@<TRIPOS>MOLECULE
ZIFDOJ
   144   152     2     0     0
SMALL
USER_CHARGES
****
Generated from the CSD

@<TRIPOS>ATOM
     1 Fe1      8.3286   6.0103   4.2245   Fe        1 RES1   2.0000
     2 O1       7.0913  -2.5121   1.9061   O.3       1 RES1   0.0000
     3 O2      11.1854  -2.6564   4.0792   O.3       1 RES1   0.0000
     4 N1       7.0305   7.5011   3.5339   N.1       1 RES1   0.0000
     5 N2       9.2233   6.0658   2.2883   N.ar      1 RES1   0.0000
     6 N3       7.1290   4.4363   3.3746   N.ar      1 RES1   0.0000
     7 N4       8.8908   3.7471   2.0075   N.pl3     1 RES1   0.0000
     8 N5      11.0849   3.2256   1.5874   N.ar      1 RES1   0.0000
     9 N6       9.5215   1.4989   2.0933   N.ar      1 RES1   0.0000
    10 N7      11.8030   0.9400   1.6182   N.ar      1 RES1   0.0000
    11 N8      13.2695   2.6549   1.1655   N.pl3     1 RES1   0.0000
    12 N9      10.2491  -0.6771   2.0727   N.pl3     1 RES1   0.0000
    13 C1       6.5347   8.4612   3.1752   C.1       1 RES1   0.0000
    14 C2       5.8667   4.2845   3.8308   C.ar      1 RES1   0.0000
    15 H1       5.5086   4.9583   4.3969   H         1 RES1   0.0000
    16 C3       5.0788   3.2112   3.5199   C.ar      1 RES1   0.0000
    17 H2       4.2060   3.1283   3.8849   H         1 RES1   0.0000
    18 C4       5.5769   2.2538   2.6665   C.ar      1 RES1   0.0000
    19 H3       5.0538   1.4929   2.4418   H         1 RES1   0.0000
    20 C5       6.8412   2.4075   2.1376   C.ar      1 RES1   0.0000
    21 H4       7.1893   1.7741   1.5225   H         1 RES1   0.0000
    22 C6       7.5936   3.5074   2.5237   C.ar      1 RES1   0.0000
    23 C7       9.1922   5.0352   1.4539   C.ar      1 RES1   0.0000
    24 C8       9.4447   5.1485   0.1031   C.ar      1 RES1   0.0000
    25 H5       9.3914   4.3901  -0.4664   H         1 RES1   0.0000
    26 C9       9.7728   6.3877  -0.4039   C.ar      1 RES1   0.0000
    27 H6       9.9627   6.4956  -1.3282   H         1 RES1   0.0000
    28 C10      9.8245   7.4618   0.4444   C.ar      1 RES1   0.0000
    29 H7      10.0627   8.3217   0.1183   H         1 RES1   0.0000
    30 C11      9.5263   7.2744   1.7760   C.ar      1 RES1   0.0000
    31 H8       9.5363   8.0270   2.3556   H         1 RES1   0.0000
    32 C12      9.8799   2.7564   1.8826   C.ar      1 RES1   0.0000
    33 C13     12.0216   2.2584   1.4624   C.ar      1 RES1   0.0000
    34 C14     10.5441   0.6384   1.9271   C.ar      1 RES1   0.0000
    35 C15     13.5990   4.0688   1.0511   C.3       1 RES1   0.0000
    36 H9      14.5551   4.1994   1.2690   H         1 RES1   0.0000
    37 H10     13.0643   4.5808   1.7084   H         1 RES1   0.0000
    38 C16     13.3308   4.6020  -0.3211   C.3       1 RES1   0.0000
    39 H11     13.8522   4.0954  -0.9767   H         1 RES1   0.0000
    40 H12     13.5874   5.5478  -0.3599   H         1 RES1   0.0000
    41 H13     12.3764   4.5153  -0.5255   H         1 RES1   0.0000
    42 C17     14.3153   1.6894   0.8094   C.3       1 RES1   0.0000
    43 H14     13.8889   0.8668   0.4613   H         1 RES1   0.0000
    44 H15     14.8716   2.0689   0.0845   H         1 RES1   0.0000
    45 C18     15.1781   1.3369   1.9365   C.3       1 RES1   0.0000
    46 H16     15.5646   2.1517   2.3201   H         1 RES1   0.0000
    47 H17     15.8977   0.7474   1.6273   H         1 RES1   0.0000
    48 H18     14.6501   0.8726   2.6209   H         1 RES1   0.0000
    49 C19     11.2936  -1.6900   1.9365   C.3       1 RES1   0.0000
    50 H19     11.9350  -1.4004   1.2386   H         1 RES1   0.0000
    51 H20     10.8822  -2.5389   1.6357   H         1 RES1   0.0000
    52 C20     12.0399  -1.9340   3.2208   C.3       1 RES1   0.0000
    53 H21     12.8661  -2.4522   3.0433   H         1 RES1   0.0000
    54 H22     12.2948  -1.0710   3.6365   H         1 RES1   0.0000
    55 C21     11.6401  -2.7046   5.4310   C.3       1 RES1   0.0000
    56 H23     12.5796  -2.3944   5.4716   H         1 RES1   0.0000
    57 H24     11.6151  -3.6407   5.7521   H         1 RES1   0.0000
    58 C22      8.9416  -1.1267   2.5209   C.3       1 RES1   0.0000
    59 H25      8.4519  -0.3641   2.9183   H         1 RES1   0.0000
    60 H26      9.0549  -1.8146   3.2242   H         1 RES1   0.0000
    61 C23      8.1354  -1.6990   1.3907   C.3       1 RES1   0.0000
    62 H27      7.7506  -0.9651   0.8500   H         1 RES1   0.0000
    63 H28      8.7218  -2.2403   0.8043   H         1 RES1   0.0000
    64 C24      5.8667  -1.8435   2.1140   C.3       1 RES1   0.0000
    65 H29      5.4070  -1.6990   1.2505   H         1 RES1   0.0000
    66 H30      6.0266  -0.9632   2.5364   H         1 RES1   0.0000
    67 B1       5.8134   9.7819   2.6986   B         1 RES1  -1.0000
    68 H31      5.1904   9.5700   1.9737   H         1 RES1   0.0000
    69 H32      6.4830  10.4214   2.3776   H         1 RES1   0.0000
    70 H33      5.3203  10.1729   3.4506   H         1 RES1   0.0000
    71 O1C      9.5660  -2.5121   6.5429   O.3       1 RES1   0.0000
    72 O2C      5.4719  -2.6564   4.3698   O.3       1 RES1   0.0000
    73 N2C      7.4340   6.0658   6.1607   N.ar      1 RES1   0.0000
    74 N3C      9.5283   4.4363   5.0745   N.ar      1 RES1   0.0000
    75 N4C      7.7665   3.7471   6.4416   N.pl3     1 RES1   0.0000
    76 N5C      5.5724   3.2256   6.8616   N.ar      1 RES1   0.0000
    77 N6C      7.1358   1.4989   6.3557   N.ar      1 RES1   0.0000
    78 N7C      4.8543   0.9400   6.8309   N.ar      1 RES1   0.0000
    79 N8C      3.3878   2.6549   7.2836   N.pl3     1 RES1   0.0000
    80 N9C      6.4082  -0.6771   6.3763   N.pl3     1 RES1   0.0000
    81 C2C     10.7906   4.2845   4.6183   C.ar      1 RES1   0.0000
    82 H1C     11.1487   4.9583   4.0522   H         1 RES1   0.0000
    83 C3C     11.5785   3.2112   4.9292   C.ar      1 RES1   0.0000
    84 H2C     12.4513   3.1283   4.5642   H         1 RES1   0.0000
    85 C4C     11.0804   2.2538   5.7825   C.ar      1 RES1   0.0000
    86 H3C     11.6035   1.4929   6.0073   H         1 RES1   0.0000
    87 C5C      9.8161   2.4075   6.3114   C.ar      1 RES1   0.0000
    88 H4C      9.4680   1.7741   6.9265   H         1 RES1   0.0000
    89 C6C      9.0637   3.5074   5.9253   C.ar      1 RES1   0.0000
    90 C7C      7.4651   5.0352   6.9951   C.ar      1 RES1   0.0000
    91 C8C      7.2126   5.1485   8.3460   C.ar      1 RES1   0.0000
    92 H5C      7.2659   4.3901   8.9154   H         1 RES1   0.0000
    93 C9C      6.8845   6.3877   8.8529   C.ar      1 RES1   0.0000
    94 H6C      6.6946   6.4956   9.7772   H         1 RES1   0.0000
    95 C10C     6.8328   7.4618   8.0046   C.ar      1 RES1   0.0000
    96 H7C      6.5946   8.3217   8.3308   H         1 RES1   0.0000
    97 C11C     7.1310   7.2744   6.6731   C.ar      1 RES1   0.0000
    98 H8C      7.1210   8.0270   6.0935   H         1 RES1   0.0000
    99 C12C     6.7774   2.7564   6.5664   C.ar      1 RES1   0.0000
   100 C13C     4.6357   2.2584   6.9867   C.ar      1 RES1   0.0000
   101 C14C     6.1132   0.6384   6.5220   C.ar      1 RES1   0.0000
   102 C15C     3.0583   4.0688   7.3980   C.3       1 RES1   0.0000
   103 H9C      2.1022   4.1994   7.1800   H         1 RES1   0.0000
   104 H10C     3.5930   4.5808   6.7407   H         1 RES1   0.0000
   105 C16C     3.3265   4.6020   8.7701   C.3       1 RES1   0.0000
   106 H11C     2.8051   4.0954   9.4258   H         1 RES1   0.0000
   107 H12C     3.0699   5.5478   8.8090   H         1 RES1   0.0000
   108 H13C     4.2809   4.5153   8.9746   H         1 RES1   0.0000
   109 C17C     2.3420   1.6894   7.6396   C.3       1 RES1   0.0000
   110 H14C     2.7684   0.8668   7.9877   H         1 RES1   0.0000
   111 H15C     1.7857   2.0689   8.3646   H         1 RES1   0.0000
   112 C18C     1.4792   1.3369   6.5125   C.3       1 RES1   0.0000
   113 H16C     1.0927   2.1517   6.1289   H         1 RES1   0.0000
   114 H17C     0.7596   0.7474   6.8218   H         1 RES1   0.0000
   115 H18C     2.0072   0.8726   5.8282   H         1 RES1   0.0000
   116 C19C     5.3637  -1.6900   6.5125   C.3       1 RES1   0.0000
   117 H19C     4.7223  -1.4004   7.2104   H         1 RES1   0.0000
   118 H20C     5.7751  -2.5389   6.8133   H         1 RES1   0.0000
   119 C20C     4.6174  -1.9340   5.2283   C.3       1 RES1   0.0000
   120 H21C     3.7912  -2.4522   5.4057   H         1 RES1   0.0000
   121 H22C     4.3625  -1.0710   4.8126   H         1 RES1   0.0000
   122 C21C     5.0172  -2.7046   3.0180   C.3       1 RES1   0.0000
   123 H23C     4.0777  -2.3944   2.9774   H         1 RES1   0.0000
   124 H24C     5.0422  -3.6407   2.6969   H         1 RES1   0.0000
   125 C22C     7.7157  -1.1267   5.9282   C.3       1 RES1   0.0000
   126 H25C     8.2054  -0.3641   5.5307   H         1 RES1   0.0000
   127 H26C     7.6024  -1.8146   5.2249   H         1 RES1   0.0000
   128 C23C     8.5219  -1.6990   7.0583   C.3       1 RES1   0.0000
   129 H27C     8.9067  -0.9651   7.5991   H         1 RES1   0.0000
   130 H28C     7.9355  -2.2403   7.6447   H         1 RES1   0.0000
   131 C24C    10.7906  -1.8435   6.3351   C.3       1 RES1   0.0000
   132 H29C    11.2503  -1.6990   7.1986   H         1 RES1   0.0000
   133 H30C    10.6307  -0.9632   5.9126   H         1 RES1   0.0000
   134 N1C      9.6268   7.5011   4.9152   N.1       1 RES1   0.0000
   135 C1C     10.1226   8.4612   5.2739   C.1       1 RES1   0.0000
   136 B1C     10.8439   9.7819   5.7504   B         1 RES1  -1.0000
   137 H31C    11.4669   9.5700   6.4754   H         1 RES1   0.0000
   138 H32C    10.1743  10.4214   6.0715   H         1 RES1   0.0000
   139 H33C    11.3370  10.1729   4.9985   H         1 RES1   0.0000
   140 Cl1      6.9214  -5.6206   4.0123   Cl        2 RES2   0.0000
   141 C25      8.3286  -4.7079   4.2245   C.3       2 RES2   0.0000
   142 H34      8.2104  -4.1243   5.0137   H         2 RES2   0.0000
   143 Cl1C     9.7359  -5.6206   4.4368   Cl        2 RES2   0.0000
   144 H34C     8.4469  -4.1243   3.4354   H         2 RES2   0.0000
@<TRIPOS>BOND
     1     1     4    1
     2     2    61    1
     3     3    52    1
     4     4    13    3
     5     5     1    1
     6     6     1    1
     7     7    22    1
     8     8    32   ar
     9     9    32   ar
    10    10    33   ar
    11    11    33    1
    12    12    34    1
    13    13    67    1
    14    14     6   ar
    15    15    14    1
    16    16    14   ar
    17    17    16    1
    18    18    16   ar
    19    19    18    1
    20    20    18   ar
    21    21    20    1
    22    22     6   ar
    23    23     5   ar
    24    24    23   ar
    25    25    24    1
    26    26    24   ar
    27    27    26    1
    28    28    26   ar
    29    29    28    1
    30    30     5   ar
    31    31    30    1
    32    32     7    1
    33    33     8   ar
    34    34     9   ar
    35    35    11    1
    36    36    35    1
    37    37    35    1
    38    38    35    1
    39    39    38    1
    40    40    38    1
    41    41    38    1
    42    42    11    1
    43    43    42    1
    44    44    42    1
    45    45    42    1
    46    46    45    1
    47    47    45    1
    48    48    45    1
    49    49    12    1
    50    50    49    1
    51    51    49    1
    52    52    49    1
    53    53    52    1
    54    54    52    1
    55    55     3    1
    56    56    55    1
    57    57    55    1
    58    58    12    1
    59    59    58    1
    60    60    58    1
    61    61    58    1
    62    62    61    1
    63    63    61    1
    64    64     2    1
    65    65    64    1
    66    66    64    1
    67    67    68    1
    68    69    67    1
    69    70    67    1
    70    71   128    1
    71    72   119    1
    72    73     1    1
    73    74     1    1
    74    75    89    1
    75    76    99   ar
    76    77    99   ar
    77    78   100   ar
    78    79   100    1
    79    80   101    1
    80    81    74   ar
    81    82    81    1
    82    83    81   ar
    83    84    83    1
    84    85    83   ar
    85    86    85    1
    86    87    85   ar
    87    88    87    1
    88    89    74   ar
    89    90    73   ar
    90    91    90   ar
    91    92    91    1
    92    93    91   ar
    93    94    93    1
    94    95    93   ar
    95    96    95    1
    96    97    73   ar
    97    98    97    1
    98    99    75    1
    99   100    76   ar
   100   101    77   ar
   101   102    79    1
   102   103   102    1
   103   104   102    1
   104   105   102    1
   105   106   105    1
   106   107   105    1
   107   108   105    1
   108   109    79    1
   109   110   109    1
   110   111   109    1
   111   112   109    1
   112   113   112    1
   113   114   112    1
   114   115   112    1
   115   116    80    1
   116   117   116    1
   117   118   116    1
   118   119   116    1
   119   120   119    1
   120   121   119    1
   121   122    64    1
   122   123   122    1
   123   124   122    1
   124   125    80    1
   125   126   125    1
   126   127   125    1
   127   128   125    1
   128   129   128    1
   129   130   128    1
   130   131    55    1
   131   132   131    1
   132   133   131    1
   133   134     1    1
   134   135   134    3
   135   136   135    1
   136   137   136    1
   137   138   136    1
   138   139   136    1
   139     7    23    1
   140    10    34   ar
   141    20    22   ar
   142    28    30   ar
   143    71   131    1
   144    72   122    1
   145    75    90    1
   146    78   101   ar
   147    87    89   ar
   148    95    97   ar
   149   140   141    1
   150   141   142    1
   151   143   141    1
   152   144   141    1
@<TRIPOS>SUBSTRUCTURE
     1 RES1        1 GROUP             0 ****  ****    0  
     2 RES2      140 GROUP             0 ****  ****    0  
@<TRIPOS>CRYSIN
   16.6573   19.2632   16.8981   90.0000   90.0000   90.0000    60     1
