@<TRIPOS>MOLECULE
ZILFEJ
   104   110     2     0     0
SMALL
USER_CHARGES
****
Generated from the CSD

@<TRIPOS>ATOM
     1 Fe1      3.0462   3.3772   3.9701   Fe        1 RES1   2.0000
     2 O1       3.4965   7.5860   3.8604   O.3       1 RES1   0.0000
     3 O2       6.5095   1.3100   2.6931   O.3       1 RES1   0.0000
     4 N1       4.8717   4.3526   3.4640   N.ar      1 RES1   0.0000
     5 N2       2.6286   5.5228   4.1061   N.2       1 RES1   0.0000
     6 N3       4.4539   1.7792   3.4844   N.2       1 RES1   0.0000
     7 N4       1.2591   2.4712   4.6003   N.1       1 RES1   0.0000
     8 N5       3.7111   3.1928   6.0476   N.1       1 RES1   0.0000
     9 N6       2.3997   3.3942   1.9099   N.1       1 RES1   0.0000
    10 C1       4.9582   5.6808   3.5340   C.ar      1 RES1   0.0000
    11 C2       6.1471   6.3555   3.2701   C.ar      1 RES1   0.0000
    12 H1       6.2036   7.3007   3.3493   H         1 RES1   0.0000
    13 C3       7.2476   5.5992   2.8866   C.ar      1 RES1   0.0000
    14 H2       8.0737   6.0298   2.7000   H         1 RES1   0.0000
    15 C4       7.1487   4.2139   2.7739   C.ar      1 RES1   0.0000
    16 H3       7.8860   3.6884   2.4871   H         1 RES1   0.0000
    17 C5       5.9289   3.6319   3.0979   C.ar      1 RES1   0.0000
    18 C6       3.6412   6.2662   3.8607   C.2       1 RES1   0.0000
    19 C7       2.1094   7.8145   4.2848   C.3       1 RES1   0.0000
    20 H4       1.6506   8.4351   3.6652   H         1 RES1   0.0000
    21 H5       2.0803   8.1945   5.1983   H         1 RES1   0.0000
    22 C8       1.4477   6.4214   4.2518   C.3       1 RES1   0.0000
    23 C9       0.6918   6.1131   5.5306   C.3       1 RES1   0.0000
    24 H6       0.3128   5.2108   5.4764   H         1 RES1   0.0000
    25 H7      -0.0309   6.7643   5.6481   H         1 RES1   0.0000
    26 H8       1.3052   6.1643   6.2931   H         1 RES1   0.0000
    27 C10      0.5613   6.2472   3.0241   C.3       1 RES1   0.0000
    28 H9       1.0823   6.4392   2.2160   H         1 RES1   0.0000
    29 H10     -0.1965   6.8658   3.0784   H         1 RES1   0.0000
    30 H11      0.2304   5.3261   2.9883   H         1 RES1   0.0000
    31 C11      5.6012   2.1896   3.0976   C.2       1 RES1   0.0000
    32 C12      5.8631  -0.0022   2.8259   C.3       1 RES1   0.0000
    33 H12      6.3742  -0.5829   3.4434   H         1 RES1   0.0000
    34 H13      5.7987  -0.4508   1.9457   H         1 RES1   0.0000
    35 C13      4.4486   0.2949   3.3957   C.3       1 RES1   0.0000
    36 C14      4.2557  -0.2893   4.7921   C.3       1 RES1   0.0000
    37 H14      4.9432   0.0672   5.3929   H         1 RES1   0.0000
    38 H15      4.3316  -1.2652   4.7511   H         1 RES1   0.0000
    39 H16      3.3687  -0.0441   5.1289   H         1 RES1   0.0000
    40 C15      3.3348  -0.1564   2.4557   C.3       1 RES1   0.0000
    41 H17      2.4652   0.0660   2.8489   H         1 RES1   0.0000
    42 H18      3.3940  -1.1258   2.3215   H         1 RES1   0.0000
    43 H19      3.4301   0.2989   1.5935   H         1 RES1   0.0000
    44 C16      0.3706   1.9640   5.0948   C.1       1 RES1   0.0000
    45 C17     -0.7490   1.3037   5.7387   C.3       1 RES1   0.0000
    46 H20     -1.4325   1.0926   5.0689   H         1 RES1   0.0000
    47 H21     -1.1309   1.8977   6.4186   H         1 RES1   0.0000
    48 H22     -0.4405   0.4767   6.1633   H         1 RES1   0.0000
    49 C18      4.1858   2.8555   7.0240   C.1       1 RES1   0.0000
    50 C19      4.8055   2.3874   8.2605   C.3       1 RES1   0.0000
    51 H23      4.9900   1.4277   8.1905   H         1 RES1   0.0000
    52 H24      4.1986   2.5500   9.0122   H         1 RES1   0.0000
    53 H25      5.6453   2.8714   8.4082   H         1 RES1   0.0000
    54 C20      2.1189   3.5928   0.8217   C.1       1 RES1   0.0000
    55 C21      1.7745   3.8698  -0.5660   C.3       1 RES1   0.0000
    56 H26      2.5773   3.7956  -1.1229   H         1 RES1   0.0000
    57 H27      1.4106   4.7773  -0.6370   H         1 RES1   0.0000
    58 H28      1.1038   3.2242  -0.8715   H         1 RES1   0.0000
    59 S1       1.6474   9.0920   8.1659   S.o2      2 RES2   0.0000
    60 S2       4.2628   8.2804   8.6072   S.o2      2 RES2   0.0000
    61 S3      -0.5145   8.5416  13.3275   S.o2      2 RES2   0.0000
    62 S4       2.0669   8.6768  14.4099   S.o2      2 RES2   0.0000
    63 S5       2.9307   3.7799  11.7530   S.o2      2 RES2   0.0000
    64 S6       0.2868   4.0685  10.8867   S.o2      2 RES2   0.0000
    65 Na1      2.0132   7.2012  11.1365   Na        2 RES2   1.0000
    66 F1       5.3467   5.9209   8.4283   F         2 RES2   0.0000
    67 F2       3.2563   5.9586   7.9420   F         2 RES2   0.0000
    68 F3       4.7032   6.7264   6.5453   F         2 RES2   0.0000
    69 F4       2.0214  11.6567   8.4242   F         2 RES2   0.0000
    70 F5       0.3668  10.8610   9.5539   F         2 RES2   0.0000
    71 F6       2.3810  10.5259  10.2357   F         2 RES2   0.0000
    72 F7      -2.2223   6.6650  12.7875   F         2 RES2   0.0000
    73 F8      -0.4267   5.9552  13.7534   F         2 RES2   0.0000
    74 F9      -1.9220   6.9868  14.8997   F         2 RES2   0.0000
    75 F10      1.9740  10.9172  13.0651   F         2 RES2   0.0000
    76 F11      3.7317  10.6789  14.2987   F         2 RES2   0.0000
    77 F12      1.8389  11.1710  15.1980   F         2 RES2   0.0000
    78 F13      4.2921   4.2564  13.9029   F         2 RES2   0.0000
    79 F14      2.2163   4.7792  14.0406   F         2 RES2   0.0000
    80 F15      2.8153   2.7232  14.1507   F         2 RES2   0.0000
    81 F16      0.0321   2.3105   8.9607   F         2 RES2   0.0000
    82 F17     -0.3294   4.3215   8.3524   F         2 RES2   0.0000
    83 F18      1.6788   3.6553   8.7144   F         2 RES2   0.0000
    84 O3       1.1931   8.0800   9.0661   O.2       2 RES2   0.0000
    85 O4       0.8527   9.3797   7.0199   O.2       2 RES2   0.0000
    86 O5       3.8980   7.9867   9.9564   O.2       2 RES2   0.0000
    87 O6       5.5282   8.8837   8.3670   O.2       2 RES2   0.0000
    88 O7       0.0597   8.3594  12.0260   O.2       2 RES2   0.0000
    89 O8      -1.5618   9.5019  13.4840   O.2       2 RES2   0.0000
    90 O9       2.6268   8.0997  13.2184   O.2       2 RES2   0.0000
    91 O10      2.6397   8.3253  15.6662   O.2       2 RES2   0.0000
    92 O11      3.1998   5.1082  11.2947   O.2       2 RES2   0.0000
    93 O12      3.8493   2.7500  11.3925   O.2       2 RES2   0.0000
    94 O13      0.4501   5.4847  10.8414   O.2       2 RES2   0.0000
    95 O14     -0.9755   3.5559  11.2983   O.2       2 RES2   0.0000
    96 N7       3.1591   8.9887   7.7289   N.2       2 RES2  -1.0000
    97 N8       0.5057   8.6613  14.5281   N.2       2 RES2  -1.0000
    98 N9       1.4463   3.2699  11.5823   N.2       2 RES2  -1.0000
    99 C22      1.6188  10.6376   9.1729   C.3       2 RES2   0.0000
   100 C23      4.3928   6.6259   7.8319   C.3       2 RES2   0.0000
   101 C24     -1.3159   6.9431  13.7190   C.3       2 RES2   0.0000
   102 C25      2.4200  10.4633  14.2318   C.3       2 RES2   0.0000
   103 C26      3.0687   3.8799  13.5698   C.3       2 RES2   0.0000
   104 C27      0.4353   3.5615   9.1242   C.3       2 RES2   0.0000
@<TRIPOS>BOND
     1     1     4    1
     2     2    18    1
     3     3    31    1
     4     4    10   ar
     5     5     1    1
     6     6     1    1
     7     7     1    1
     8     8     1    1
     9     9     1    1
    10    10    11   ar
    11    11    12    1
    12    13    11   ar
    13    14    13    1
    14    15    13   ar
    15    16    15    1
    16    17     4   ar
    17    18     5    2
    18    19     2    1
    19    20    19    1
    20    21    19    1
    21    22     5    1
    22    23    22    1
    23    24    23    1
    24    25    23    1
    25    26    23    1
    26    27    22    1
    27    28    27    1
    28    29    27    1
    29    30    27    1
    30    31     6    2
    31    32     3    1
    32    33    32    1
    33    34    32    1
    34    35     6    1
    35    36    35    1
    36    37    36    1
    37    38    36    1
    38    39    36    1
    39    40    35    1
    40    41    40    1
    41    42    40    1
    42    43    40    1
    43    44     7    3
    44    45    44    1
    45    46    45    1
    46    47    45    1
    47    48    45    1
    48    49     8    3
    49    50    49    1
    50    51    50    1
    51    52    50    1
    52    53    50    1
    53    54     9    3
    54    55    54    1
    55    56    55    1
    56    57    55    1
    57    58    55    1
    58    10    18    1
    59    15    17   ar
    60    17    31    1
    61    19    22    1
    62    32    35    1
    63    59    84    2
    64    60    86    2
    65    61    88    2
    66    62    90    2
    67    63    92    2
    68    64    94    2
    69    65    84    1
    70    66   100    1
    71    67   100    1
    72    68   100    1
    73    69    99    1
    74    70    99    1
    75    71    99    1
    76    72   101    1
    77    73   101    1
    78    74   101    1
    79    75   102    1
    80    76   102    1
    81    77   102    1
    82    78   103    1
    83    79   103    1
    84    80   103    1
    85    81   104    1
    86    82   104    1
    87    83   104    1
    88    85    59    2
    89    86    65    1
    90    87    60    2
    91    88    65    1
    92    89    61    2
    93    90    65    1
    94    91    62    2
    95    92    65    1
    96    93    63    2
    97    94    65    1
    98    95    64    2
    99    96    59    1
   100    97    61    1
   101    98    63    1
   102    99    59    1
   103   100    60    1
   104   101    61    1
   105   102    62    1
   106   103    63    1
   107   104    64    1
   108    60    96    1
   109    62    97    1
   110    64    98    1
@<TRIPOS>SUBSTRUCTURE
     1 RES1        1 GROUP             0 ****  ****    0  
     2 RES2       59 GROUP             0 ****  ****    0  
@<TRIPOS>CRYSIN
   15.2641   11.1716   29.6426   90.0000  100.0260   90.0000    14     1
