@<TRIPOS>MOLECULE
ZIWNIG
   116   123     3     0     0
SMALL
USER_CHARGES
****
Generated from the CSD

@<TRIPOS>ATOM
     1 Fe1      6.8197   9.6005  12.8547   Fe        1 RES1   1.0000
     2 Br1     10.7360  15.7897  12.3016   Br        1 RES1   0.0000
     3 Br2      4.4178  12.6314  18.9992   Br        1 RES1   0.0000
     4 O1       6.6282  11.4503  12.6571   O.3       1 RES1   0.0000
     5 O2       7.3242   9.6907  14.6640   O.3       1 RES1   0.0000
     6 N1       7.0831   7.6017  12.9806   N.3       1 RES1   0.0000
     7 N2       8.6995   9.6238  12.4175   N.2       1 RES1   0.0000
     8 C1       8.9631  12.0199  12.4611   C.ar      1 RES1   0.0000
     9 N3       6.1055   9.4091  10.9424   N.3       1 RES1   0.0000
    10 C2       7.5908  12.3285  12.5590   C.ar      1 RES1   0.0000
    11 N4       4.9501   9.6238  13.3043   N.2       1 RES1   0.0000
    12 C3       9.8956  13.0540  12.3812   C.ar      1 RES1   0.0000
    13 H1      10.8038  12.8571  12.3357   H         1 RES1   0.0000
    14 C4       9.4452  10.6755  12.3672   C.2       1 RES1   0.0000
    15 H2      10.3611  10.5514  12.2625   H         1 RES1   0.0000
    16 C5       8.5203   7.3790  13.2064   C.3       1 RES1   0.0000
    17 H3       8.7449   6.4531  13.0240   H         1 RES1   0.0000
    18 H4       8.7449   7.5721  14.1300   H         1 RES1   0.0000
    19 C6       9.4768  14.3634  12.3692   C.ar      1 RES1   0.0000
    20 C7       7.2127  13.6952  12.5230   C.ar      1 RES1   0.0000
    21 H5       6.3105  13.9175  12.5704   H         1 RES1   0.0000
    22 C8       9.2930   8.2922  12.2832   C.3       1 RES1   0.0000
    23 H6      10.2294   8.3117  12.5338   H         1 RES1   0.0000
    24 H7       9.2240   7.9820  11.3664   H         1 RES1   0.0000
    25 C9       7.2217  10.4893  16.8512   C.ar      1 RES1   0.0000
    26 H8       8.0908  10.1882  16.9922   H         1 RES1   0.0000
    27 C10      6.6056  10.2555  15.6183   C.ar      1 RES1   0.0000
    28 C11      6.5740  11.1544  17.8524   C.ar      1 RES1   0.0000
    29 H9       7.0063  11.3217  18.6594   H         1 RES1   0.0000
    30 C12      5.2739  11.5776  17.6645   C.ar      1 RES1   0.0000
    31 C13      8.1301  14.6863  12.4191   C.ar      1 RES1   0.0000
    32 H10      7.8592  15.5746  12.3832   H         1 RES1   0.0000
    33 C14      4.4635  10.1648  14.3514   C.2       1 RES1   0.0000
    34 H11      3.5435  10.2928  14.3857   H         1 RES1   0.0000
    35 C15      4.0658   9.2181  12.2093   C.3       1 RES1   0.0000
    36 H12      3.1697   9.5648  12.3433   H         1 RES1   0.0000
    37 H13      4.0201   8.2510  12.1433   H         1 RES1   0.0000
    38 C16      4.6111  11.2785  16.5275   C.ar      1 RES1   0.0000
    39 H14      3.7222  11.5343  16.4360   H         1 RES1   0.0000
    40 C17      4.6834   9.8068  10.9704   C.3       1 RES1   0.0000
    41 H15      4.2285   9.4760  10.1802   H         1 RES1   0.0000
    42 H16      4.6079  10.7733  10.9867   H         1 RES1   0.0000
    43 C18      6.2260   6.9064  13.9997   C.3       1 RES1   0.0000
    44 H17      6.4654   7.2312  14.8822   H         1 RES1   0.0000
    45 H18      5.2989   7.1453  13.8415   H         1 RES1   0.0000
    46 C19      5.2408  10.5880  15.4784   C.ar      1 RES1   0.0000
    47 C20      6.3420   5.4284  13.9917   C.3       1 RES1   0.0000
    48 H19      5.7685   5.0570  14.6653   H         1 RES1   0.0000
    49 H20      6.0837   5.0916  13.1300   H         1 RES1   0.0000
    50 H21      7.2517   5.1776  14.1720   H         1 RES1   0.0000
    51 C21      6.8873  10.1123   9.8913   C.3       1 RES1   0.0000
    52 H22      7.7993   9.7806   9.9119   H         1 RES1   0.0000
    53 H23      6.9160  11.0572  10.1095   H         1 RES1   0.0000
    54 C22      6.3525   9.9579   8.4966   C.3       1 RES1   0.0000
    55 H24      6.9127  10.4401   7.8843   H         1 RES1   0.0000
    56 H25      6.3441   9.0280   8.2587   H         1 RES1   0.0000
    57 H26      5.4593  10.3068   8.4567   H         1 RES1   0.0000
    58 H27      6.9295   7.1753  12.2293   H         1 RES1   0.0000
    59 H28      6.2817   8.7027  10.7906   H         1 RES1   0.0000
    60 C23      5.9383  15.1875   8.7983   C.ar      2 RES2   0.0000
    61 C24      8.3576  13.2417   8.5805   C.ar      2 RES2   0.0000
    62 H29      8.1880  13.6652   9.3911   H         2 RES2   0.0000
    63 C25      9.1996  12.1408   8.5705   C.ar      2 RES2   0.0000
    64 H30      9.5807  11.8415   9.3643   H         2 RES2   0.0000
    65 C26      7.9870  16.2932   7.3236   C.ar      2 RES2   0.0000
    66 C27      9.4723  11.4932   7.3975   C.ar      2 RES2   0.0000
    67 H31     10.0434  10.7588   7.3907   H         2 RES2   0.0000
    68 C28      5.6385  16.3998   9.4417   C.ar      2 RES2   0.0000
    69 H32      6.0455  17.1844   9.1493   H         2 RES2   0.0000
    70 C29      5.2860  14.1009   9.2979   C.ar      2 RES2   0.0000
    71 H33      5.4585  13.2750   8.9073   H         2 RES2   0.0000
    72 C30      8.6890  16.7530   8.4626   C.ar      2 RES2   0.0000
    73 H34      8.4445  16.4195   9.2963   H         2 RES2   0.0000
    74 C31      8.9014  11.9308   6.2325   C.ar      2 RES2   0.0000
    75 H35      9.0683  11.4841   5.4353   H         2 RES2   0.0000
    76 C32      7.7475  13.7461   7.4155   C.ar      2 RES2   0.0000
    77 C33      4.3897  14.1406  10.3389   C.ar      2 RES2   0.0000
    78 H36      3.9785  13.3574  10.6272   H         2 RES2   0.0000
    79 C34      4.7377  16.4476  10.5168   C.ar      2 RES2   0.0000
    80 H37      4.5645  17.2566  10.9427   H         2 RES2   0.0000
    81 C35      8.0683  13.0476   6.2465   C.ar      2 RES2   0.0000
    82 H38      7.7083  13.3413   5.4402   H         2 RES2   0.0000
    83 C36      8.4389  16.7960   6.1166   C.ar      2 RES2   0.0000
    84 H39      8.0273  16.5208   5.3295   H         2 RES2   0.0000
    85 C37      4.1110  15.3020  10.9404   C.ar      2 RES2   0.0000
    86 H40      3.4962  15.3345  11.6373   H         2 RES2   0.0000
    87 C38      4.1697  16.4937   4.8817   C.ar      2 RES2   0.0000
    88 H41      3.8745  17.3269   4.5907   H         2 RES2   0.0000
    89 C39      5.2287  16.3903   5.7689   C.ar      2 RES2   0.0000
    90 H42      5.6278  17.1741   6.0691   H         2 RES2   0.0000
    91 C40      3.5551  15.3180   4.4301   C.ar      2 RES2   0.0000
    92 H43      2.8425  15.3594   3.8333   H         2 RES2   0.0000
    93 C41      5.0721  14.0563   5.7669   C.ar      2 RES2   0.0000
    94 H44      5.3489  13.2178   6.0589   H         2 RES2   0.0000
    95 C42      4.0055  14.1295   4.8717   C.ar      2 RES2   0.0000
    96 H45      3.6005  13.3474   4.5739   H         2 RES2   0.0000
    97 C43      5.7319  15.1700   6.2405   C.ar      2 RES2   0.0000
    98 C44      9.5175  17.7235   6.0427   C.ar      2 RES2   0.0000
    99 H46      9.8123  18.0437   5.2214   H         2 RES2   0.0000
   100 C45     10.1155  18.1372   7.2097   C.ar      2 RES2   0.0000
   101 H47     10.8100  18.7549   7.1782   H         2 RES2   0.0000
   102 C46      9.7013  17.6535   8.4006   C.ar      2 RES2   0.0000
   103 H48     10.1126  17.9411   9.1842   H         2 RES2   0.0000
   104 B1       6.8602  15.1111   7.4415   B         2 RES2  -1.0000
   105 O3       6.7532   6.6248  10.2250   O.2       3 RES3   0.0000
   106 N5       7.2684   5.4221   8.4086   N.am      3 RES3   0.0000
   107 C47      6.5905   5.6862   9.4857   C.2       3 RES3   0.0000
   108 H49      5.9106   5.0915   9.7088   H         3 RES3   0.0000
   109 C48      6.9355   4.2288   7.6213   C.3       3 RES3   0.0000
   110 H50      6.2557   3.7253   8.0750   H         3 RES3   0.0000
   111 H51      7.7207   3.6852   7.5183   H         3 RES3   0.0000
   112 H52      6.6148   4.4948   6.7572   H         3 RES3   0.0000
   113 C49      8.3606   6.1985   7.9930   C.3       3 RES3   0.0000
   114 H53      8.0678   6.8428   7.3450   H         3 RES3   0.0000
   115 H54      9.0268   5.6291   7.5994   H         3 RES3   0.0000
   116 H55      8.7366   6.6535   8.7501   H         3 RES3   0.0000
@<TRIPOS>BOND
     1     1     4    1
     2     2    19    1
     3     3    30    1
     4     4    10    1
     5     5     1    1
     6     6     1    1
     7     7     1    1
     8     8    10   ar
     9     9     1    1
    10    10    20   ar
    11    11     1    1
    12    12     8   ar
    13    13    12    1
    14    14     7    2
    15    15    14    1
    16    16     6    1
    17    17    16    1
    18    18    16    1
    19    19    12   ar
    20    20    21    1
    21    22     7    1
    22    23    22    1
    23    24    22    1
    24    25    26    1
    25    27     5    1
    26    28    25   ar
    27    29    28    1
    28    30    28   ar
    29    31    19   ar
    30    32    31    1
    31    33    11    2
    32    34    33    1
    33    35    11    1
    34    36    35    1
    35    37    35    1
    36    38    30   ar
    37    39    38    1
    38    40     9    1
    39    41    40    1
    40    42    40    1
    41    43     6    1
    42    44    43    1
    43    45    43    1
    44    46    27   ar
    45    47    43    1
    46    48    47    1
    47    49    47    1
    48    50    47    1
    49    51     9    1
    50    52    51    1
    51    53    51    1
    52    54    51    1
    53    55    54    1
    54    56    54    1
    55    57    54    1
    56    58     6    1
    57    59     9    1
    58     8    14    1
    59    16    22    1
    60    20    31   ar
    61    25    27   ar
    62    33    46    1
    63    35    40    1
    64    38    46   ar
    65    60    68   ar
    66    61    62    1
    67    63    61   ar
    68    64    63    1
    69    65    72   ar
    70    66    63   ar
    71    67    66    1
    72    68    69    1
    73    70    60   ar
    74    71    70    1
    75    72    73    1
    76    74    66   ar
    77    75    74    1
    78    76    61   ar
    79    77    70   ar
    80    78    77    1
    81    79    68   ar
    82    80    79    1
    83    81    74   ar
    84    82    81    1
    85    83    65   ar
    86    84    83    1
    87    85    77   ar
    88    86    85    1
    89    87    88    1
    90    89    87   ar
    91    90    89    1
    92    91    87   ar
    93    92    91    1
    94    93    94    1
    95    95    91   ar
    96    96    95    1
    97    97    89   ar
    98    98    83   ar
    99    99    98    1
   100   100    98   ar
   101   101   100    1
   102   102    72   ar
   103   103   102    1
   104   104    60    1
   105    65   104    1
   106    76    81   ar
   107    76   104    1
   108    79    85   ar
   109    93    95   ar
   110    93    97   ar
   111    97   104    1
   112   100   102   ar
   113   105   107    2
   114   106   107   am
   115   107   108    1
   116   109   106    1
   117   110   109    1
   118   111   109    1
   119   112   109    1
   120   113   106    1
   121   114   113    1
   122   115   113    1
   123   116   113    1
@<TRIPOS>SUBSTRUCTURE
     1 RES1        1 GROUP             0 ****  ****    0  
     2 RES2       60 GROUP             0 ****  ****    0  
     3 RES3      105 GROUP             0 ****  ****    0  
@<TRIPOS>CRYSIN
   15.0641   15.9098   19.9825   90.0000   90.0000   90.0000    19     1
