@<TRIPOS>MOLECULE
ZIWNIG01
   116   123     3     0     0
SMALL
USER_CHARGES
****
Generated from the CSD

@<TRIPOS>ATOM
     1 Br1     11.6781   0.5957  12.7246   Br        1 RES1   0.0000
     2 Br2      8.6674   6.8308   5.8294   Br        1 RES1   0.0000
     3 Fe1      5.5326   4.5757  11.9721   Fe        1 RES1   1.0000
     4 O1       7.3836   4.7479  12.1484   O.3       1 RES1   0.0000
     5 O2       5.6073   4.0372  10.1745   O.3       1 RES1   0.0000
     6 N1       3.5274   4.3482  11.8492   N.3       1 RES1   0.0000
     7 N2       5.3653   5.3008  13.8816   N.3       1 RES1   0.0000
     8 C1       6.1960   4.7224   9.2141   C.ar      1 RES1   0.0000
     9 N3       5.5808   6.4337  11.5002   N.2       1 RES1   0.0000
    10 N4       5.5324   2.7105  12.4224   N.2       1 RES1   0.0000
    11 C2       3.2854   2.8998  11.6232   C.3       1 RES1   0.0000
    12 H1       3.4921   2.6608  10.6853   H         1 RES1   0.0000
    13 H2       2.3366   2.6809  11.8012   H         1 RES1   0.0000
    14 C3      10.2653   1.8691  12.5908   C.ar      1 RES1   0.0000
    15 C4       7.9246   2.4070  12.4361   C.ar      1 RES1   0.0000
    16 C5       9.6251   4.1484  12.3548   C.ar      1 RES1   0.0000
    17 H3       9.8651   5.0650  12.2922   H         1 RES1   0.0000
    18 C6       7.2828   6.7012   8.2941   C.ar      1 RES1   0.0000
    19 H4       7.5670   7.6035   8.3870   H         1 RES1   0.0000
    20 C7       6.1445   6.8905  10.4414   C.2       1 RES1   0.0000
    21 H5       6.2899   7.8284  10.3895   H         1 RES1   0.0000
    22 C8       8.2510   3.7818  12.2973   C.ar      1 RES1   0.0000
    23 C9       8.9599   1.4709  12.5670   C.ar      1 RES1   0.0000
    24 H6       8.7510   0.5465  12.6388   H         1 RES1   0.0000
    25 C10      7.1204   4.7088   6.9735   C.ar      1 RES1   0.0000
    26 H7       7.2821   4.2488   6.1579   H         1 RES1   0.0000
    27 C11      6.5645   1.9472  12.4996   C.2       1 RES1   0.0000
    28 H8       6.4183   1.0144  12.6066   H         1 RES1   0.0000
    29 C12     10.6057   3.2078  12.5016   C.ar      1 RES1   0.0000
    30 H9      11.5174   3.4726  12.5400   H         1 RES1   0.0000
    31 C13      6.0774   4.5120  14.9166   C.3       1 RES1   0.0000
    32 H10      7.0429   4.4961  14.6953   H         1 RES1   0.0000
    33 H11      5.7488   3.5784  14.8862   H         1 RES1   0.0000
    34 C14      5.7822   6.7237  13.8399   C.3       1 RES1   0.0000
    35 H12      6.7696   6.7907  13.8225   H         1 RES1   0.0000
    36 H13      5.4476   7.2019  14.6387   H         1 RES1   0.0000
    37 C15      7.5748   6.0085   7.1420   C.ar      1 RES1   0.0000
    38 C16      4.1817   2.1290  12.5650   C.3       1 RES1   0.0000
    39 H14      3.8635   2.2199  13.4988   H         1 RES1   0.0000
    40 H15      4.1917   1.1683  12.3267   H         1 RES1   0.0000
    41 C17      6.4365   4.0928   7.9867   C.ar      1 RES1   0.0000
    42 H16      6.1143   3.2084   7.8529   H         1 RES1   0.0000
    43 C18      2.8575   5.2062  10.8360   C.3       1 RES1   0.0000
    44 H17      3.2060   4.9723   9.9401   H         1 RES1   0.0000
    45 H18      3.0924   6.1507  11.0140   H         1 RES1   0.0000
    46 C19      6.5677   6.0866   9.3350   C.ar      1 RES1   0.0000
    47 C20      1.3445   5.0724  10.8221   C.3       1 RES1   0.0000
    48 H19      0.9708   5.6633  10.1349   H         1 RES1   0.0000
    49 H20      1.0992   4.1449  10.6236   H         1 RES1   0.0000
    50 H21      0.9855   5.3247  11.6989   H         1 RES1   0.0000
    51 C21      5.1951   7.3277  12.5828   C.3       1 RES1   0.0000
    52 H22      4.2085   7.3857  12.6522   H         1 RES1   0.0000
    53 H23      5.5568   8.2362  12.4306   H         1 RES1   0.0000
    54 C22      5.9118   5.0409  16.3303   C.3       1 RES1   0.0000
    55 H24      6.4080   4.4698  16.9526   H         1 RES1   0.0000
    56 H25      6.2574   5.9560  16.3787   H         1 RES1   0.0000
    57 H26      4.9614   5.0370  16.5698   H         1 RES1   0.0000
    58 H27      3.1855   4.5826  12.6106   H         1 RES1   0.0000
    59 H28      4.6220   5.3189  14.0581   H         1 RES1   0.0000
    60 C23      3.2713   1.9067   1.2888   C.ar      2 RES2   0.0000
    61 C24      3.2823   2.1576   3.8367   C.ar      2 RES2   0.0000
    62 C25      1.2742   4.4970   3.6027   C.ar      2 RES2   0.0000
    63 H29      1.6986   4.3105   4.4314   H         2 RES2   0.0000
    64 C26      4.4924   1.3883   0.8605   C.ar      2 RES2   0.0000
    65 H30      5.2893   1.7876   1.1887   H         2 RES2   0.0000
    66 C27      1.0993   4.2265   1.2670   C.ar      2 RES2   0.0000
    67 H31      1.4146   3.8666   0.4455   H         2 RES2   0.0000
    68 C28      1.7848   3.9095   2.4369   C.ar      2 RES2   0.0000
    69 C29     -0.4887   5.6073   2.4071   C.ar      2 RES2   0.0000
    70 H32     -1.2547   6.1680   2.3994   H         2 RES2   0.0000
    71 C30     -0.0187   5.0454   1.2432   C.ar      2 RES2   0.0000
    72 H33     -0.4619   5.2180   0.4202   H         2 RES2   0.0000
    73 C31      4.4628   1.9262   4.5585   C.ar      2 RES2   0.0000
    74 H34      5.2520   2.3958   4.3130   H         2 RES2   0.0000
    75 C32      2.2267   0.5289   5.3258   C.ar      2 RES2   0.0000
    76 H35      1.4467   0.0477   5.5768   H         2 RES2   0.0000
    77 C33      4.6064   0.3185  -0.0178   C.ar      2 RES2   0.0000
    78 H36      5.4621   0.0127  -0.2919   H         2 RES2   0.0000
    79 C34      4.7891   4.9237   3.4719   C.ar      2 RES2   0.0000
    80 H37      4.4467   4.6922   4.3267   H         2 RES2   0.0000
    81 C35      2.1424   1.2456   0.7852   C.ar      2 RES2   0.0000
    82 H38      1.2817   1.5429   1.0536   H         2 RES2   0.0000
    83 C36      0.1780   5.3384   3.5948   C.ar      2 RES2   0.0000
    84 H39     -0.1200   5.7344   4.4045   H         2 RES2   0.0000
    85 C37      2.2329   0.1728  -0.0912   C.ar      2 RES2   0.0000
    86 H40      1.4432  -0.2403  -0.4195   H         2 RES2   0.0000
    87 C38      2.1705   1.4289   4.2809   C.ar      2 RES2   0.0000
    88 H41      1.3386   1.5608   3.8426   H         2 RES2   0.0000
    89 C39      4.5112   1.0292   5.6212   C.ar      2 RES2   0.0000
    90 H42      5.3300   0.9046   6.0868   H         2 RES2   0.0000
    91 C40      5.7026   5.9649   3.3787   C.ar      2 RES2   0.0000
    92 H43      5.9805   6.4253   4.1628   H         2 RES2   0.0000
    93 C41      4.8688   4.6142   1.1183   C.ar      2 RES2   0.0000
    94 H44      4.5931   4.1720   0.3237   H         2 RES2   0.0000
    95 C42      3.4056   0.3215   6.0079   C.ar      2 RES2   0.0000
    96 H45      3.4496  -0.2966   6.7286   H         2 RES2   0.0000
    97 C43      4.3503   4.1980   2.3476   C.ar      2 RES2   0.0000
    98 B1       3.1839   3.0381   2.4666   B         2 RES2  -1.0000
    99 C44      6.2023   6.3255   2.1632   C.ar      2 RES2   0.0000
   100 H46      6.8350   7.0313   2.1011   H         2 RES2   0.0000
   101 C45      5.7932   5.6749   1.0271   C.ar      2 RES2   0.0000
   102 H47      6.1327   5.9387   0.1809   H         2 RES2   0.0000
   103 C46      3.4665  -0.2945  -0.4858   C.ar      2 RES2   0.0000
   104 H48      3.5301  -1.0343  -1.0767   H         2 RES2   0.0000
   105 O3       2.6249   4.6097  14.6079   O.2       3 RES3   0.0000
   106 N5       1.3819   4.1184  16.4473   N.am      3 RES3   0.0000
   107 C47      1.6599   4.8080  15.3608   C.2       3 RES3   0.0000
   108 H49      1.0717   5.5195  15.1362   H         3 RES3   0.0000
   109 C48      0.2311   4.4324  17.2523   C.3       3 RES3   0.0000
   110 H50     -0.2626   5.1734  16.8432   H         3 RES3   0.0000
   111 H51      0.5220   4.6915  18.1521   H         3 RES3   0.0000
   112 H52     -0.3514   3.6460  17.3123   H         3 RES3   0.0000
   113 C49      2.2283   3.0080  16.8677   C.3       3 RES3   0.0000
   114 H53      2.8903   2.8195  16.1704   H         3 RES3   0.0000
   115 H54      1.6752   2.2139  17.0177   H         3 RES3   0.0000
   116 H55      2.6896   3.2470  17.6995   H         3 RES3   0.0000
@<TRIPOS>BOND
     1     1    14    1
     2     2    37    1
     3     3     4    1
     4     4    22    1
     5     5     3    1
     6     6     3    1
     7     7     3    1
     8     8     5    1
     9     9     3    1
    10    10     3    1
    11    11     6    1
    12    12    11    1
    13    13    11    1
    14    14    23   ar
    15    15    22   ar
    16    16    17    1
    17    18    19    1
    18    20     9    2
    19    21    20    1
    20    22    16   ar
    21    23    15   ar
    22    24    23    1
    23    25    26    1
    24    27    10    2
    25    28    27    1
    26    29    14   ar
    27    30    29    1
    28    31     7    1
    29    32    31    1
    30    33    31    1
    31    34     7    1
    32    35    34    1
    33    36    34    1
    34    37    18   ar
    35    38    10    1
    36    39    38    1
    37    40    38    1
    38    41     8   ar
    39    42    41    1
    40    43     6    1
    41    44    43    1
    42    45    43    1
    43    46     8   ar
    44    47    43    1
    45    48    47    1
    46    49    47    1
    47    50    47    1
    48    51     9    1
    49    52    51    1
    50    53    51    1
    51    54    31    1
    52    55    54    1
    53    56    54    1
    54    57    54    1
    55    58     6    1
    56    59     7    1
    57    11    38    1
    58    15    27    1
    59    16    29   ar
    60    18    46   ar
    61    20    46    1
    62    25    37   ar
    63    25    41   ar
    64    34    51    1
    65    60    64   ar
    66    61    73   ar
    67    62    63    1
    68    64    65    1
    69    66    67    1
    70    68    62   ar
    71    69    70    1
    72    71    66   ar
    73    72    71    1
    74    73    74    1
    75    75    76    1
    76    77    64   ar
    77    78    77    1
    78    79    80    1
    79    81    60   ar
    80    82    81    1
    81    83    62   ar
    82    84    83    1
    83    85    81   ar
    84    86    85    1
    85    87    61   ar
    86    88    87    1
    87    89    73   ar
    88    90    89    1
    89    91    79   ar
    90    92    91    1
    91    93    94    1
    92    95    75   ar
    93    96    95    1
    94    97    79   ar
    95    98    60    1
    96    99    91   ar
    97   100    99    1
    98   101    93   ar
    99   102   101    1
   100   103    77   ar
   101   104   103    1
   102    61    98    1
   103    66    68   ar
   104    68    98    1
   105    69    71   ar
   106    69    83   ar
   107    75    87   ar
   108    85   103   ar
   109    89    95   ar
   110    93    97   ar
   111    97    98    1
   112    99   101   ar
   113   105   107    2
   114   106   107   am
   115   107   108    1
   116   109   106    1
   117   110   109    1
   118   111   109    1
   119   112   109    1
   120   113   106    1
   121   114   113    1
   122   115   113    1
   123   116   113    1
@<TRIPOS>SUBSTRUCTURE
     1 RES1        1 GROUP             0 ****  ****    0  
     2 RES2       60 GROUP             0 ****  ****    0  
     3 RES3      105 GROUP             0 ****  ****    0  
@<TRIPOS>CRYSIN
   15.6150   15.0250   19.8280   90.0000   90.0000   90.0000    19     1
