@<TRIPOS>MOLECULE
ZIWZAK
   106   113     3     0     0
SMALL
USER_CHARGES
****
Generated from the CSD

@<TRIPOS>ATOM
     1 Fe1      6.6176   4.4507  11.4314   Fe        1 RES1   2.0000
     2 N1       5.7822   4.5441   8.6621   N.pl3     1 RES1   0.0000
     3 N2       7.6612   3.1368  10.4209   N.2       1 RES1   0.0000
     4 N3       7.1521   2.6544   9.2286   N.pl3     1 RES1   0.0000
     5 N4       4.8552   2.7096   9.9335   N.pl3     1 RES1   0.0000
     6 N5       6.1737   5.3203   9.7348   N.2       1 RES1   0.0000
     7 N6       5.0339   3.3157  11.1644   N.2       1 RES1   0.0000
     8 C1       8.0341   1.7651   8.6614   C.2       1 RES1   0.0000
     9 C2       5.7836   3.0781   8.8450   C.3       1 RES1   0.0000
    10 C3       8.8458   2.5458  10.5862   C.2       1 RES1   0.0000
    11 C4       5.5060   5.3435   7.5694   C.2       1 RES1   0.0000
    12 C5       4.0608   2.8573  11.9543   C.2       1 RES1   0.0000
    13 C6       5.3662   2.4123   7.5653   C.3       1 RES1   0.0000
    14 H1       4.4566   2.6926   7.3321   H         1 RES1   0.0000
    15 H2       5.3880   1.4393   7.6819   H         1 RES1   0.0000
    16 H3       5.9806   2.6704   6.8474   H         1 RES1   0.0000
    17 C7       6.1348   6.5852   9.3166   C.2       1 RES1   0.0000
    18 C8       3.7727   1.8497   9.9831   C.2       1 RES1   0.0000
    19 C9       5.7197   6.6235   7.9810   C.2       1 RES1   0.0000
    20 H4       5.6068   7.4050   7.4533   H         1 RES1   0.0000
    21 C10      3.2793   1.9423  11.2469   C.2       1 RES1   0.0000
    22 H5       2.5321   1.4652  11.5892   H         1 RES1   0.0000
    23 C11      7.9694   1.0584   7.3424   C.3       1 RES1   0.0000
    24 H6       7.1787   0.4816   7.3184   H         1 RES1   0.0000
    25 H7       8.7744   0.5136   7.2247   H         1 RES1   0.0000
    26 H8       7.9126   1.7197   6.6211   H         1 RES1   0.0000
    27 C12      9.0886   1.6823   9.5187   C.2       1 RES1   0.0000
    28 H9       9.8551   1.1331   9.4081   H         1 RES1   0.0000
    29 C13      3.1998   0.9542   8.9206   C.3       1 RES1   0.0000
    30 H10      2.8899   1.4981   8.1666   H         1 RES1   0.0000
    31 H11      2.4455   0.4486   9.2915   H         1 RES1   0.0000
    32 H12      3.8901   0.3311   8.6124   H         1 RES1   0.0000
    33 C14      5.0751   4.9865   6.1792   C.3       1 RES1   0.0000
    34 H13      5.7747   4.4524   5.7477   H         1 RES1   0.0000
    35 H14      4.9261   5.8063   5.6631   H         1 RES1   0.0000
    36 H15      4.2458   4.4685   6.2164   H         1 RES1   0.0000
    37 C15      9.7837   2.7852  11.7314   C.3       1 RES1   0.0000
    38 H16      9.4898   3.5730  12.2339   H         1 RES1   0.0000
    39 H17     10.6885   2.9365  11.3857   H         1 RES1   0.0000
    40 H18      9.7852   2.0028  12.3208   H         1 RES1   0.0000
    41 C16      6.4762   7.7691  10.1600   C.3       1 RES1   0.0000
    42 H19      6.6002   7.4833  11.0885   H         1 RES1   0.0000
    43 H20      5.7501   8.4242  10.1123   H         1 RES1   0.0000
    44 H21      7.3036   8.1767   9.8310   H         1 RES1   0.0000
    45 C17      3.8524   3.2650  13.3823   C.3       1 RES1   0.0000
    46 H22      4.7017   3.5757  13.7612   H         1 RES1   0.0000
    47 H23      3.5274   2.4968  13.8961   H         1 RES1   0.0000
    48 H24      3.1916   3.9878  13.4228   H         1 RES1   0.0000
    49 N1D      7.4530   4.3572  14.2008   N.pl3     1 RES1   0.0000
    50 N2D      5.5741   5.7645  12.4420   N.2       1 RES1   0.0000
    51 N3D      6.0832   6.2469  13.6343   N.pl3     1 RES1   0.0000
    52 N4D      8.3800   6.1917  12.9294   N.pl3     1 RES1   0.0000
    53 N5D      7.0615   3.5810  13.1281   N.2       1 RES1   0.0000
    54 N6D      8.2013   5.5856  11.6985   N.2       1 RES1   0.0000
    55 C1D      5.2011   7.1362  14.2015   C.2       1 RES1   0.0000
    56 C2D      7.4516   5.8232  14.0179   C.3       1 RES1   0.0000
    57 C3D      4.3894   6.3555  12.2767   C.2       1 RES1   0.0000
    58 C4D      7.7292   3.5578  15.2934   C.2       1 RES1   0.0000
    59 C5D      9.1744   6.0440  10.9086   C.2       1 RES1   0.0000
    60 C6D      7.8690   6.4890  15.2976   C.3       1 RES1   0.0000
    61 H1D      8.7786   6.2087  15.5308   H         1 RES1   0.0000
    62 H2D      7.8472   7.4620  15.1810   H         1 RES1   0.0000
    63 H3D      7.2546   6.2309  16.0155   H         1 RES1   0.0000
    64 C7D      7.1004   2.3161  13.5463   C.2       1 RES1   0.0000
    65 C8D      9.4625   7.0516  12.8798   C.2       1 RES1   0.0000
    66 C9D      7.5155   2.2778  14.8819   C.2       1 RES1   0.0000
    67 H4D      7.6284   1.4963  15.4096   H         1 RES1   0.0000
    68 C10D     9.9559   6.9590  11.6159   C.2       1 RES1   0.0000
    69 H5D     10.7031   7.4361  11.2737   H         1 RES1   0.0000
    70 C11D     5.2658   7.8429  15.5205   C.3       1 RES1   0.0000
    71 H6D      6.0565   8.4197  15.5445   H         1 RES1   0.0000
    72 H7D      4.4608   8.3877  15.6382   H         1 RES1   0.0000
    73 H8D      5.3226   7.1816  16.2418   H         1 RES1   0.0000
    74 C12D     4.1466   7.2190  13.3442   C.2       1 RES1   0.0000
    75 H9D      3.3802   7.7682  13.4548   H         1 RES1   0.0000
    76 C13D    10.0354   7.9471  13.9422   C.3       1 RES1   0.0000
    77 H10D    10.3453   7.4032  14.6963   H         1 RES1   0.0000
    78 H11D    10.7897   8.4527  13.5714   H         1 RES1   0.0000
    79 H12D     9.3451   8.5702  14.2504   H         1 RES1   0.0000
    80 C14D     8.1601   3.9148  16.6837   C.3       1 RES1   0.0000
    81 H13D     7.4605   4.4489  17.1152   H         1 RES1   0.0000
    82 H14D     8.3091   3.0950  17.1997   H         1 RES1   0.0000
    83 H15D     8.9894   4.4328  16.6465   H         1 RES1   0.0000
    84 C15D     3.4515   6.1161  11.1315   C.3       1 RES1   0.0000
    85 H16D     3.7455   5.3283  10.6290   H         1 RES1   0.0000
    86 H17D     2.5468   5.9648  11.4772   H         1 RES1   0.0000
    87 H18D     3.4500   6.8985  10.5421   H         1 RES1   0.0000
    88 C16D     6.7590   1.1322  12.7028   C.3       1 RES1   0.0000
    89 H19D     6.6350   1.4180  11.7744   H         1 RES1   0.0000
    90 H20D     7.4851   0.4771  12.7506   H         1 RES1   0.0000
    91 H21D     5.9316   0.7246  13.0318   H         1 RES1   0.0000
    92 C17D     9.3828   5.6363   9.4806   C.3       1 RES1   0.0000
    93 H22D     8.5335   5.3256   9.1017   H         1 RES1   0.0000
    94 H23D     9.7078   6.4045   8.9668   H         1 RES1   0.0000
    95 H24D    10.0437   4.9135   9.4401   H         1 RES1   0.0000
    96 S1      11.9396   4.5264  15.4453   S.o2      2 RES2   0.0000
    97 F1      13.0063   2.1492  15.7354   F         2 RES2   0.0000
    98 F2      11.9487   2.3998  13.9015   F         2 RES2   0.0000
    99 F3      10.8659   2.1568  15.7356   F         2 RES2   0.0000
   100 O1      10.7399   4.9367  14.7713   O.3       2 RES2  -1.0000
   101 O2      13.1542   4.9447  14.8378   O.2       2 RES2   0.0000
   102 O3      11.8759   4.6242  16.8717   O.2       2 RES2   0.0000
   103 C18     11.9332   2.7291  15.1910   C.3       2 RES2   0.0000
   104 C19     15.4484  -0.8047  17.1472   C.1       3 RES3   0.0000
   105 C20     15.4484  -2.2396  17.1472   C.3       3 RES3   0.0000
   106 N7      15.4484   0.3089  17.1472   N.1       3 RES3   0.0000
@<TRIPOS>BOND
     1     1     3    1
     2     2     6    1
     3     3     4    1
     4     4     8    1
     5     5     7    1
     6     6     1    1
     7     7     1    1
     8     8    23    1
     9     9     2    1
    10    10     3    2
    11    11     2    1
    12    12     7    2
    13    13     9    1
    14    14    13    1
    15    15    13    1
    16    16    13    1
    17    17     6    2
    18    18     5    1
    19    19    11    2
    20    20    19    1
    21    21    12    1
    22    22    21    1
    23    23    24    1
    24    25    23    1
    25    26    23    1
    26    27     8    2
    27    28    27    1
    28    29    18    1
    29    30    29    1
    30    31    29    1
    31    32    29    1
    32    33    11    1
    33    34    33    1
    34    35    33    1
    35    36    33    1
    36    37    10    1
    37    38    37    1
    38    39    37    1
    39    40    37    1
    40    41    17    1
    41    42    41    1
    42    43    41    1
    43    44    41    1
    44    45    12    1
    45    46    45    1
    46    47    45    1
    47    48    45    1
    48    49    53    1
    49    50     1    1
    50    51    50    1
    51    52    54    1
    52    53     1    1
    53    54     1    1
    54    55    51    1
    55    56    49    1
    56    57    50    2
    57    58    49    1
    58    59    54    2
    59    60    56    1
    60    61    60    1
    61    62    60    1
    62    63    60    1
    63    64    53    2
    64    65    52    1
    65    66    58    2
    66    67    66    1
    67    68    59    1
    68    69    68    1
    69    70    55    1
    70    71    70    1
    71    72    70    1
    72    73    70    1
    73    74    55    2
    74    75    74    1
    75    76    65    1
    76    77    76    1
    77    78    76    1
    78    79    76    1
    79    80    58    1
    80    81    80    1
    81    82    80    1
    82    83    80    1
    83    84    57    1
    84    85    84    1
    85    86    84    1
    86    87    84    1
    87    88    64    1
    88    89    88    1
    89    90    88    1
    90    91    88    1
    91    92    59    1
    92    93    92    1
    93    94    92    1
    94    95    92    1
    95     4     9    1
    96     5     9    1
    97    10    27    1
    98    17    19    1
    99    18    21    2
   100    51    56    1
   101    52    56    1
   102    57    74    1
   103    64    66    1
   104    65    68    2
   105    96   100    1
   106    97   103    1
   107    98   103    1
   108    99   103    1
   109   101    96    2
   110   102    96    2
   111   103    96    1
   112   104   105    1
   113   106   104    3
@<TRIPOS>SUBSTRUCTURE
     1 RES1        1 GROUP             0 ****  ****    0  
     2 RES2       96 GROUP             0 ****  ****    0  
     3 RES3      104 GROUP             0 ****  ****    0  
@<TRIPOS>CRYSIN
   22.0880    8.9013   24.5170   90.0000  111.1670   90.0000    15     1
