@<TRIPOS>MOLECULE
ZIZHUO
   115   126     1     0     0
SMALL
NO_CHARGES
****
Generated from the CSD

@<TRIPOS>ATOM
     1 Br1      8.4203   6.6272   7.8121   Br        1 RES1   0.0000
     2 Fe1     10.5923   6.3848   9.0075   Fe        1 RES1   0.0000
     3 P1       9.2806   7.2483  11.0387   P.3       1 RES1   0.0000
     4 P2      10.8041   8.8846   8.7180   P.3       1 RES1   0.0000
     5 C1       9.9324   7.5071  12.7424   C.ar      1 RES1   0.0000
     6 C2      11.2647   7.8827  12.8862   C.ar      1 RES1   0.0000
     7 H1      11.8216   7.9542  12.1205   H         1 RES1   0.0000
     8 C3      11.7846   8.1521  14.1462   C.ar      1 RES1   0.0000
     9 H2      12.6947   8.4062  14.2355   H         1 RES1   0.0000
    10 C4      10.9966   8.0551  15.2615   C.ar      1 RES1   0.0000
    11 H3      11.3628   8.2338  16.1199   H         1 RES1   0.0000
    12 C5       9.6711   7.6975  15.1370   C.ar      1 RES1   0.0000
    13 H4       9.1205   7.6324  15.9091   H         1 RES1   0.0000
    14 C6       9.1420   7.4332  13.8844   C.ar      1 RES1   0.0000
    15 H5       8.2248   7.1982  13.8032   H         1 RES1   0.0000
    16 C7       7.6801   6.4066  11.3099   C.ar      1 RES1   0.0000
    17 C8       7.6025   5.2972  12.1541   C.ar      1 RES1   0.0000
    18 H6       8.3777   4.9967  12.6142   H         1 RES1   0.0000
    19 C9       6.3985   4.6328  12.3230   C.ar      1 RES1   0.0000
    20 H7       6.3474   3.8922  12.9168   H         1 RES1   0.0000
    21 C10      5.2736   5.0363  11.6377   C.ar      1 RES1   0.0000
    22 H8       4.4501   4.5805  11.7620   H         1 RES1   0.0000
    23 C11      5.3487   6.0962  10.7764   C.ar      1 RES1   0.0000
    24 H9       4.5783   6.3605  10.2866   H         1 RES1   0.0000
    25 C12      6.5381   6.7870  10.6138   C.ar      1 RES1   0.0000
    26 H10      6.5736   7.5290  10.0218   H         1 RES1   0.0000
    27 C13      8.7556   8.9566  10.6112   C.ar      1 RES1   0.0000
    28 C14      7.7480   9.5938  11.3437   C.ar      1 RES1   0.0000
    29 H11      7.3735   9.1584  12.1007   H         1 RES1   0.0000
    30 C15      7.2912  10.8452  10.9838   C.ar      1 RES1   0.0000
    31 H12      6.6056  11.2641  11.4918   H         1 RES1   0.0000
    32 C16      7.8230  11.4850   9.8962   C.ar      1 RES1   0.0000
    33 H13      7.4874  12.3329   9.6309   H         1 RES1   0.0000
    34 C17      8.8483  10.8950   9.1850   C.ar      1 RES1   0.0000
    35 H14      9.2245  11.3483   8.4401   H         1 RES1   0.0000
    36 C18      9.3415   9.6357   9.5471   C.ar      1 RES1   0.0000
    37 C19     10.8158   9.6896   7.0722   C.ar      1 RES1   0.0000
    38 C20     10.2694   9.0230   5.9933   C.ar      1 RES1   0.0000
    39 H15      9.9155   8.1483   6.1017   H         1 RES1   0.0000
    40 C21     10.2384   9.6359   4.7524   C.ar      1 RES1   0.0000
    41 H16      9.8707   9.1660   4.0120   H         1 RES1   0.0000
    42 C22     10.7218  10.8950   4.5668   C.ar      1 RES1   0.0000
    43 H17     10.6764  11.3049   3.7111   H         1 RES1   0.0000
    44 C23     11.2765  11.5654   5.6333   C.ar      1 RES1   0.0000
    45 H18     11.6210  12.4427   5.5126   H         1 RES1   0.0000
    46 C24     11.3345  10.9729   6.8643   C.ar      1 RES1   0.0000
    47 H19     11.7315  11.4390   7.5898   H         1 RES1   0.0000
    48 C25     12.1901   9.7573   9.5413   C.ar      1 RES1   0.0000
    49 C26     12.0275  10.7328  10.5010   C.ar      1 RES1   0.0000
    50 H20     11.1552  10.9474  10.8108   H         1 RES1   0.0000
    51 C27     13.1253  11.4033  11.0180   C.ar      1 RES1   0.0000
    52 H21     13.0037  12.0737  11.6792   H         1 RES1   0.0000
    53 C28     14.3836  11.1006  10.5732   C.ar      1 RES1   0.0000
    54 H22     15.1303  11.5782  10.9153   H         1 RES1   0.0000
    55 C29     14.5749  10.1122   9.6370   C.ar      1 RES1   0.0000
    56 H23     15.4518   9.8952   9.3462   H         1 RES1   0.0000
    57 C30     13.4826   9.4355   9.1205   C.ar      1 RES1   0.0000
    58 H24     13.6122   8.7497   8.4761   H         1 RES1   0.0000
    59 Br1B    12.7643   6.1424  10.2030   Br        1 RES1   0.0000
    60 P1B     11.9040   5.5213   6.9763   P.3       1 RES1   0.0000
    61 P2B     10.3805   3.8850   9.2970   P.3       1 RES1   0.0000
    62 C1B     11.2522   5.2625   5.2727   C.ar      1 RES1   0.0000
    63 C2B      9.9199   4.8869   5.1289   C.ar      1 RES1   0.0000
    64 H1B      9.3630   4.8154   5.8945   H         1 RES1   0.0000
    65 C3B      9.4000   4.6175   3.8689   C.ar      1 RES1   0.0000
    66 H2B      8.4899   4.3634   3.7796   H         1 RES1   0.0000
    67 C4B     10.1880   4.7145   2.7536   C.ar      1 RES1   0.0000
    68 H3B      9.8217   4.5358   1.8952   H         1 RES1   0.0000
    69 C5B     11.5135   5.0721   2.8781   C.ar      1 RES1   0.0000
    70 H4B     12.0641   5.1372   2.1060   H         1 RES1   0.0000
    71 C6B     12.0426   5.3364   4.1307   C.ar      1 RES1   0.0000
    72 H5B     12.9598   5.5714   4.2119   H         1 RES1   0.0000
    73 C7B     13.5045   6.3630   6.7052   C.ar      1 RES1   0.0000
    74 C8B     13.5820   7.4724   5.8610   C.ar      1 RES1   0.0000
    75 H6B     12.8069   7.7729   5.4009   H         1 RES1   0.0000
    76 C9B     14.7861   8.1368   5.6920   C.ar      1 RES1   0.0000
    77 H7B     14.8371   8.8774   5.0983   H         1 RES1   0.0000
    78 C10B    15.9110   7.7333   6.3773   C.ar      1 RES1   0.0000
    79 H8B     16.7345   8.1891   6.2530   H         1 RES1   0.0000
    80 C11B    15.8359   6.6734   7.2386   C.ar      1 RES1   0.0000
    81 H9B     16.6063   6.4091   7.7285   H         1 RES1   0.0000
    82 C12B    14.6465   5.9826   7.4013   C.ar      1 RES1   0.0000
    83 H10B    14.6110   5.2406   7.9933   H         1 RES1   0.0000
    84 C13B    12.4290   3.8130   7.4038   C.ar      1 RES1   0.0000
    85 C14B    13.4366   3.1758   6.6713   C.ar      1 RES1   0.0000
    86 H11B    13.8111   3.6112   5.9143   H         1 RES1   0.0000
    87 C15B    13.8934   1.9244   7.0313   C.ar      1 RES1   0.0000
    88 H12B    14.5790   1.5055   6.5233   H         1 RES1   0.0000
    89 C16B    13.3616   1.2846   8.1189   C.ar      1 RES1   0.0000
    90 H13B    13.6972   0.4367   8.3842   H         1 RES1   0.0000
    91 C17B    12.3362   1.8746   8.8301   C.ar      1 RES1   0.0000
    92 H14B    11.9601   1.4213   9.5750   H         1 RES1   0.0000
    93 C18B    11.8431   3.1339   8.4680   C.ar      1 RES1   0.0000
    94 C19B    10.3688   3.0800  10.9429   C.ar      1 RES1   0.0000
    95 C20B    10.9152   3.7466  12.0218   C.ar      1 RES1   0.0000
    96 H15B    11.2691   4.6213  11.9134   H         1 RES1   0.0000
    97 C21B    10.9462   3.1337  13.2627   C.ar      1 RES1   0.0000
    98 H16B    11.3139   3.6036  14.0031   H         1 RES1   0.0000
    99 C22B    10.4628   1.8746  13.4483   C.ar      1 RES1   0.0000
   100 H17B    10.5082   1.4647  14.3040   H         1 RES1   0.0000
   101 C23B     9.9081   1.2042  12.3818   C.ar      1 RES1   0.0000
   102 H18B     9.5635   0.3269  12.5025   H         1 RES1   0.0000
   103 C24B     9.8501   1.7967  11.1508   C.ar      1 RES1   0.0000
   104 H19B     9.4531   1.3306  10.4253   H         1 RES1   0.0000
   105 C25B     8.9945   3.0123   8.4738   C.ar      1 RES1   0.0000
   106 C26B     9.1571   2.0368   7.5141   C.ar      1 RES1   0.0000
   107 H20B    10.0294   1.8222   7.2042   H         1 RES1   0.0000
   108 C27B     8.0593   1.3663   6.9971   C.ar      1 RES1   0.0000
   109 H21B     8.1809   0.6959   6.3359   H         1 RES1   0.0000
   110 C28B     6.8010   1.6690   7.4418   C.ar      1 RES1   0.0000
   111 H22B     6.0543   1.1914   7.0997   H         1 RES1   0.0000
   112 C29B     6.6097   2.6574   8.3781   C.ar      1 RES1   0.0000
   113 H23B     5.7328   2.8744   8.6689   H         1 RES1   0.0000
   114 C30B     7.7020   3.3341   8.8946   C.ar      1 RES1   0.0000
   115 H24B     7.5724   4.0199   9.5390   H         1 RES1   0.0000
@<TRIPOS>BOND
     1     1     2    1
     2     2     3    1
     3     3     5    1
     4     4     2    1
     5     5     6   ar
     6     6     7    1
     7     8     6   ar
     8     9     8    1
     9    10     8   ar
    10    11    10    1
    11    12    10   ar
    12    13    12    1
    13    14     5   ar
    14    15    14    1
    15    16     3    1
    16    17    16   ar
    17    18    17    1
    18    19    17   ar
    19    20    19    1
    20    21    19   ar
    21    22    21    1
    22    23    21   ar
    23    24    23    1
    24    25    16   ar
    25    26    25    1
    26    27     3    1
    27    28    27   ar
    28    29    28    1
    29    30    28   ar
    30    31    30    1
    31    32    30   ar
    32    33    32    1
    33    34    32   ar
    34    35    34    1
    35    36     4    1
    36    37     4    1
    37    38    37   ar
    38    39    38    1
    39    40    38   ar
    40    41    40    1
    41    42    40   ar
    42    43    42    1
    43    44    42   ar
    44    45    44    1
    45    46    37   ar
    46    47    46    1
    47    48     4    1
    48    49    48   ar
    49    50    49    1
    50    51    49   ar
    51    52    51    1
    52    53    51   ar
    53    54    53    1
    54    55    53   ar
    55    56    55    1
    56    57    48   ar
    57    58    57    1
    58    59     2    1
    59    60     2    1
    60    61     2    1
    61    62    60    1
    62    63    62   ar
    63    64    63    1
    64    65    63   ar
    65    66    65    1
    66    67    65   ar
    67    68    67    1
    68    69    67   ar
    69    70    69    1
    70    71    62   ar
    71    72    71    1
    72    73    60    1
    73    74    73   ar
    74    75    74    1
    75    76    74   ar
    76    77    76    1
    77    78    76   ar
    78    79    78    1
    79    80    78   ar
    80    81    80    1
    81    82    73   ar
    82    83    82    1
    83    84    60    1
    84    85    84   ar
    85    86    85    1
    86    87    85   ar
    87    88    87    1
    88    89    87   ar
    89    90    89    1
    90    91    89   ar
    91    92    91    1
    92    93    61    1
    93    94    61    1
    94    95    94   ar
    95    96    95    1
    96    97    95   ar
    97    98    97    1
    98    99    97   ar
    99   100    99    1
   100   101    99   ar
   101   102   101    1
   102   103    94   ar
   103   104   103    1
   104   105    61    1
   105   106   105   ar
   106   107   106    1
   107   108   106   ar
   108   109   108    1
   109   110   108   ar
   110   111   110    1
   111   112   110   ar
   112   113   112    1
   113   114   105   ar
   114   115   114    1
   115    12    14   ar
   116    23    25   ar
   117    27    36   ar
   118    34    36   ar
   119    44    46   ar
   120    55    57   ar
   121    69    71   ar
   122    80    82   ar
   123    84    93   ar
   124    91    93   ar
   125   101   103   ar
   126   112   114   ar
@<TRIPOS>SUBSTRUCTURE
     1 RES1        1 GROUP             0 ****  ****    0  
@<TRIPOS>CRYSIN
   11.0317   12.7696   18.0365   90.0000   92.7928   90.0000   231     1
