@<TRIPOS>MOLECULE
ZODZIF
   104   110     4     0     0
SMALL
USER_CHARGES
****
Generated from the CSD

@<TRIPOS>ATOM
     1 Fe1      2.5550   6.0591  11.0810   Fe        1 RES1   1.0000
     2 H1       3.9973   5.9764  11.5197   H         1 RES1   0.0000
     3 S1       2.5875   7.3129  12.9417   S.3       1 RES1   0.0000
     4 P1       2.6213   4.1798  12.2683   P.3       1 RES1   0.0000
     5 P2       2.8325   7.8403   9.7619   P.3       1 RES1   0.0000
     6 O1       3.1118   4.5195   8.6773   O.2       1 RES1   0.0000
     7 N1       0.4672   6.1482  11.2076   N.pl3     1 RES1   0.0000
     8 H2       0.2126   6.7319  10.5575   H         1 RES1   0.0000
     9 C1       2.9336   9.0745  12.6136   C.3       1 RES1   0.0000
    10 H3       2.9022   9.5584  13.4550   H         1 RES1   0.0000
    11 H4       3.8333   9.1541  12.2632   H         1 RES1   0.0000
    12 C2       6.2644  10.1244   9.6166   C.ar      1 RES1   0.0000
    13 H5       6.5100  11.0139   9.7359   H         1 RES1   0.0000
    14 C3      -0.2375   1.6956  13.7717   C.ar      1 RES1   0.0000
    15 H6      -0.2615   0.9956  14.3851   H         1 RES1   0.0000
    16 C4      -1.3992   6.6890  12.7696   C.ar      1 RES1   0.0000
    17 H7      -2.0037   6.2505  12.2143   H         1 RES1   0.0000
    18 C5      -0.1486   3.7854  11.8945   C.ar      1 RES1   0.0000
    19 C6       4.4402   4.5246  16.4810   C.ar      1 RES1   0.0000
    20 H8       4.7990   4.6017  17.3362   H         1 RES1   0.0000
    21 C7       5.2181   4.0255  15.4499   C.ar      1 RES1   0.0000
    22 H9       6.1001   3.7741  15.6121   H         1 RES1   0.0000
    23 C8       0.1656  10.9444   9.9180   C.ar      1 RES1   0.0000
    24 H10     -0.4310  11.3551   9.3351   H         1 RES1   0.0000
    25 C9       4.9387   9.7353   9.7941   C.ar      1 RES1   0.0000
    26 H11      4.2983  10.3645  10.0388   H         1 RES1   0.0000
    27 C10     -0.0303   6.7307  12.4652   C.ar      1 RES1   0.0000
    28 C11      5.5252   7.4723   9.2755   C.ar      1 RES1   0.0000
    29 H12      5.2776   6.5816   9.1775   H         1 RES1   0.0000
    30 C12      1.9834   9.7277  11.6498   C.ar      1 RES1   0.0000
    31 C13      5.5034   2.1833  10.1337   C.ar      1 RES1   0.0000
    32 H13      6.3594   2.3501   9.8140   H         1 RES1   0.0000
    33 C14      7.2078   9.1856   9.2647   C.ar      1 RES1   0.0000
    34 H14      8.0941   9.4396   9.1439   H         1 RES1   0.0000
    35 C15      0.9991   3.4304  12.6059   C.ar      1 RES1   0.0000
    36 C16      1.2113   6.9265   7.7043   C.ar      1 RES1   0.0000
    37 H15      0.6951   6.5828   8.3973   H         1 RES1   0.0000
    38 C17     -0.2091   4.8443  10.8573   C.3       1 RES1   0.0000
    39 H16     -1.1405   5.0275  10.6615   H         1 RES1   0.0000
    40 H17      0.1960   4.4993  10.0465   H         1 RES1   0.0000
    41 C18      0.8008   6.7243   6.3963   C.ar      1 RES1   0.0000
    42 H18     -0.0018   6.2935   6.2127   H         1 RES1   0.0000
    43 C19      6.8285   7.8400   9.0873   C.ar      1 RES1   0.0000
    44 H19      7.4612   7.2032   8.8456   H         1 RES1   0.0000
    45 C20     -1.3556   2.0368  13.0710   C.ar      1 RES1   0.0000
    46 H20     -2.1462   1.5680  13.2117   H         1 RES1   0.0000
    47 C21     -0.9566   7.9752  14.7615   C.ar      1 RES1   0.0000
    48 H21     -1.2659   8.4111  15.5218   H         1 RES1   0.0000
    49 C22      2.3472   7.6151   8.0087   C.ar      1 RES1   0.0000
    50 C23      3.1617   4.8961  16.2561   C.ar      1 RES1   0.0000
    51 H22      2.6525   5.2486  16.9492   H         1 RES1   0.0000
    52 C24      3.5554   2.8492  11.4142   C.ar      1 RES1   0.0000
    53 C25      0.3828   7.9878  14.4754   C.ar      1 RES1   0.0000
    54 H23      0.9757   8.4174  15.0476   H         1 RES1   0.0000
    55 C26     -1.8292   7.3447  13.9598   C.ar      1 RES1   0.0000
    56 H24     -2.7309   7.3346  14.1863   H         1 RES1   0.0000
    57 C27      4.8263   3.1221  10.8864   C.ar      1 RES1   0.0000
    58 H25      5.2187   3.9510  11.0455   H         1 RES1   0.0000
    59 C28      3.6817   0.6722  10.4213   C.ar      1 RES1   0.0000
    60 H26      3.3103  -0.1668  10.2744   H         1 RES1   0.0000
    61 C29      4.6922   3.9042  14.1908   C.ar      1 RES1   0.0000
    62 H27      5.2295   3.5909  13.4978   H         1 RES1   0.0000
    63 C30      0.8591   7.3510  13.3173   C.ar      1 RES1   0.0000
    64 C31      0.2648  11.3854  11.2229   C.ar      1 RES1   0.0000
    65 H28     -0.2694  12.0841  11.5228   H         1 RES1   0.0000
    66 C32      4.5729   8.4162   9.6074   C.ar      1 RES1   0.0000
    67 C33      2.8283   5.1260   9.6411   C.1       1 RES1   0.0000
    68 C34      0.9112   2.3943  13.5590   C.ar      1 RES1   0.0000
    69 H29      1.6660   2.1808  14.0608   H         1 RES1   0.0000
    70 C35     -1.3317   3.0779  12.1500   C.ar      1 RES1   0.0000
    71 H30     -2.1090   3.3078  11.6957   H         1 RES1   0.0000
    72 C36      3.0072   1.5781  11.2076   C.ar      1 RES1   0.0000
    73 H31      2.1956   1.3494  11.5978   H         1 RES1   0.0000
    74 C37      3.3712   4.2390  13.9323   C.ar      1 RES1   0.0000
    75 C38      2.7209   7.8716   5.6558   C.ar      1 RES1   0.0000
    76 H32      3.2445   8.1938   4.9552   H         1 RES1   0.0000
    77 C39      3.1213   8.1281   6.9669   C.ar      1 RES1   0.0000
    78 H33      3.8844   8.6310   7.1428   H         1 RES1   0.0000
    79 C40      1.1865  10.7625  12.0950   C.ar      1 RES1   0.0000
    80 H34      1.2574  11.0518  12.9761   H         1 RES1   0.0000
    81 C41      1.8649   9.3019  10.3188   C.ar      1 RES1   0.0000
    82 C42      4.8512   0.9666   9.8675   C.ar      1 RES1   0.0000
    83 H35      5.2501   0.3550   9.2908   H         1 RES1   0.0000
    84 C43      0.9429   9.9058   9.4713   C.ar      1 RES1   0.0000
    85 H36      0.8520   9.6039   8.5962   H         1 RES1   0.0000
    86 C44      2.6108   4.7558  14.9986   C.ar      1 RES1   0.0000
    87 H37      1.7267   5.0047  14.8533   H         1 RES1   0.0000
    88 C45      1.6094   7.1754   5.3698   C.ar      1 RES1   0.0000
    89 H38      1.3844   6.9960   4.4855   H         1 RES1   0.0000
    90 Cl1      3.9559   1.5857   2.8103   Cl        2 RES2   0.0000
    91 C46      4.4799   2.7949   3.9577   C.3       2 RES2   0.0000
    92 H39      3.9604   3.6073   3.8476   H         2 RES2   0.0000
    93 H40      5.4159   3.0059   3.8170   H         2 RES2   0.0000
    94 Cl2      4.2409   2.1378   5.5732   Cl        2 RES2   0.0000
    95 C47      1.8177  11.8226   6.2907   C.3       3 RES3   0.0000
    96 H41      1.1746  11.1794   6.6303   H         3 RES3   0.0000
    97 H42      1.3777  12.6881   6.2923   H         3 RES3   0.0000
    98 Cl3      2.1169  11.4460   4.7899   Cl        3 RES3   0.0000
    99 Cl4      3.1141  11.8996   7.4196   Cl        3 RES3   0.0000
   100 F1       4.2751   4.7255   0.4437   F         4 RES4   0.0000
   101 F2       5.9187   5.0439   1.9169   F         4 RES4   0.0000
   102 F3       3.9887   6.1406   2.1081   F         4 RES4   0.0000
   103 F4       5.3712   6.6662   0.4743   F         4 RES4   0.0000
   104 B1       4.8804   5.5986   1.1872   B         4 RES4  -1.0000
@<TRIPOS>BOND
     1     1     2    1
     2     3     1    1
     3     4     1    1
     4     5     1    1
     5     6    67    3
     6     7     1    1
     7     8     7    1
     8     9     3    1
     9    10     9    1
    10    11     9    1
    11    12    13    1
    12    14    15    1
    13    16    17    1
    14    18    35   ar
    15    19    20    1
    16    21    19   ar
    17    22    21    1
    18    23    24    1
    19    25    12   ar
    20    26    25    1
    21    27     7    1
    22    28    29    1
    23    30     9    1
    24    31    32    1
    25    33    12   ar
    26    34    33    1
    27    35     4    1
    28    36    37    1
    29    38     7    1
    30    39    38    1
    31    40    38    1
    32    41    36   ar
    33    42    41    1
    34    43    28   ar
    35    44    43    1
    36    45    14   ar
    37    46    45    1
    38    47    48    1
    39    49     5    1
    40    50    19   ar
    41    51    50    1
    42    52     4    1
    43    53    47   ar
    44    54    53    1
    45    55    16   ar
    46    56    55    1
    47    57    31   ar
    48    58    57    1
    49    59    60    1
    50    61    21   ar
    51    62    61    1
    52    63     3    1
    53    64    23   ar
    54    65    64    1
    55    66     5    1
    56    67     1    1
    57    68    14   ar
    58    69    68    1
    59    70    18   ar
    60    71    70    1
    61    72    52   ar
    62    73    72    1
    63    74     4    1
    64    75    76    1
    65    77    49   ar
    66    78    77    1
    67    79    30   ar
    68    80    79    1
    69    81     5    1
    70    82    31   ar
    71    83    82    1
    72    84    23   ar
    73    85    84    1
    74    86    50   ar
    75    87    86    1
    76    88    41   ar
    77    89    88    1
    78    16    27   ar
    79    18    38    1
    80    25    66   ar
    81    27    63   ar
    82    28    66   ar
    83    30    81   ar
    84    33    43   ar
    85    35    68   ar
    86    36    49   ar
    87    45    70   ar
    88    47    55   ar
    89    52    57   ar
    90    53    63   ar
    91    59    72   ar
    92    59    82   ar
    93    61    74   ar
    94    64    79   ar
    95    74    86   ar
    96    75    77   ar
    97    75    88   ar
    98    81    84   ar
    99    90    91    1
   100    91    92    1
   101    93    91    1
   102    94    91    1
   103    95    96    1
   104    97    95    1
   105    98    95    1
   106    99    95    1
   107   100   104    1
   108   101   104    1
   109   102   104    1
   110   103   104    1
@<TRIPOS>SUBSTRUCTURE
     1 RES1        1 GROUP             0 ****  ****    0  
     2 RES2       90 GROUP             0 ****  ****    0  
     3 RES3       95 GROUP             0 ****  ****    0  
     4 RES4      100 GROUP             0 ****  ****    0  
@<TRIPOS>CRYSIN
   23.4530   12.6350   21.2940   90.0000  134.0742   90.0000     9     1
