@<TRIPOS>MOLECULE
ZOGNAM
   100   111     1     0     0
SMALL
USER_CHARGES
****
Generated from the CSD

@<TRIPOS>ATOM
     1 Fe1      7.3151   4.2225   0.3963   Fe        1 RES1   3.0000
     2 O1       6.1009   3.0823   1.5025   O.2       1 RES1  -1.0000
     3 C1       5.5180   2.0220   1.0790   C.2       1 RES1   0.0000
     4 C2       4.4194   1.4062   1.8213   C.ar      1 RES1   0.0000
     5 C3       3.8861   1.7521   3.0570   C.ar      1 RES1   0.0000
     6 H1       4.2314   2.4616   3.5480   H         1 RES1   0.0000
     7 C4       2.8329   1.0122   3.5242   C.ar      1 RES1   0.0000
     8 H2       2.4686   1.2099   4.3569   H         1 RES1   0.0000
     9 C5       2.3077  -0.0063   2.7902   C.ar      1 RES1   0.0000
    10 H3       1.5631  -0.4599   3.1130   H         1 RES1   0.0000
    11 C6       2.8475  -0.3864   1.5810   C.ar      1 RES1   0.0000
    12 H4       2.4971  -1.1047   1.1045   H         1 RES1   0.0000
    13 C7       3.9278   0.3319   1.0933   C.ar      1 RES1   0.0000
    14 C8       4.7683   0.1356  -0.1353   C.3       1 RES1   0.0000
    15 H5       4.2248   0.1774  -0.9380   H         1 RES1   0.0000
    16 H6       5.2276  -0.7183  -0.1088   H         1 RES1   0.0000
    17 C9       5.7586   1.2884  -0.0894   C.2       1 RES1   0.0000
    18 C10      6.7687   1.6242  -0.9961   C.2       1 RES1   0.0000
    19 C11      7.0664   0.9236  -2.2610   C.ar      1 RES1   0.0000
    20 C12      6.7644  -0.4029  -2.5213   C.ar      1 RES1   0.0000
    21 H7       6.3240  -0.9020  -1.8726   H         1 RES1   0.0000
    22 C13      7.1030  -1.0072  -3.7210   C.ar      1 RES1   0.0000
    23 H8       6.9180  -1.9079  -3.8607   H         1 RES1   0.0000
    24 C14      7.7277  -0.2496  -4.7198   C.ar      1 RES1   0.0000
    25 C15      8.0297   1.0693  -4.4779   C.ar      1 RES1   0.0000
    26 H9       8.4474   1.5823  -5.1317   H         1 RES1   0.0000
    27 C16      7.7043   1.6254  -3.2592   C.ar      1 RES1   0.0000
    28 H10      7.9266   2.5148  -3.1028   H         1 RES1   0.0000
    29 O2       7.5426   2.6427  -0.7793   O.2       1 RES1   0.0000
    30 O3       7.9815  -0.8995  -5.8859   O.3       1 RES1   0.0000
    31 C17      8.5315  -0.1166  -6.9513   C.3       1 RES1   0.0000
    32 H11      8.7071  -0.6816  -7.7078   H         1 RES1   0.0000
    33 H12      9.3507   0.2914  -6.6577   H         1 RES1   0.0000
    34 H13      7.9054   0.5676  -7.2014   H         1 RES1   0.0000
    35 O1A      8.9089   3.7424   1.5025   O.2       1 RES1  -1.0000
    36 C1A     10.1187   3.7677   1.0790   C.2       1 RES1   0.0000
    37 C2A     11.2013   3.1242   1.8213   C.ar      1 RES1   0.0000
    38 C3A     11.1684   2.4894   3.0570   C.ar      1 RES1   0.0000
    39 H1A     10.3813   2.4337   3.5480   H         1 RES1   0.0000
    40 C4A     12.3357   1.9472   3.5242   C.ar      1 RES1   0.0000
    41 H2A     12.3467   1.5329   4.3569   H         1 RES1   0.0000
    42 C5A     13.4804   2.0017   2.7902   C.ar      1 RES1   0.0000
    43 H3A     14.2455   1.5836   3.1130   H         1 RES1   0.0000
    44 C6A     13.5397   2.6592   1.5810   C.ar      1 RES1   0.0000
    45 H4A     14.3370   2.7149   1.1045   H         1 RES1   0.0000
    46 C7A     12.3774   3.2356   1.0933   C.ar      1 RES1   0.0000
    47 C8A     12.1273   4.0617  -0.1353   C.3       1 RES1   0.0000
    48 H5A     12.3628   3.5701  -0.9380   H         1 RES1   0.0000
    49 H6A     12.6371   4.8864  -0.1088   H         1 RES1   0.0000
    50 C9A     10.6337   4.3429  -0.0894   C.2       1 RES1   0.0000
    51 C10A     9.8379   5.0498  -0.9961   C.2       1 RES1   0.0000
    52 C11A    10.2957   5.6579  -2.2610   C.ar      1 RES1   0.0000
    53 C12A    11.5955   6.0595  -2.5213   C.ar      1 RES1   0.0000
    54 H7A     12.2480   5.9278  -1.8726   H         1 RES1   0.0000
    55 C13A    11.9495   6.6550  -3.7210   C.ar      1 RES1   0.0000
    56 H8A     12.8221   6.9451  -3.8607   H         1 RES1   0.0000
    57 C14A    10.9811   6.8171  -4.7198   C.ar      1 RES1   0.0000
    58 C15A     9.6879   6.4193  -4.4779   C.ar      1 RES1   0.0000
    59 H9A      9.0347   6.5245  -5.1317   H         1 RES1   0.0000
    60 C16A     9.3690   5.8594  -3.2592   C.ar      1 RES1   0.0000
    61 H10A     8.4876   5.6073  -3.1028   H         1 RES1   0.0000
    62 O2A      8.5688   5.2107  -0.7793   O.2       1 RES1   0.0000
    63 O3A     11.4170   7.3619  -5.8859   O.3       1 RES1   0.0000
    64 C17A    10.4640   7.4468  -6.9513   C.3       1 RES1   0.0000
    65 H11A    10.8655   7.8813  -7.7078   H         1 RES1   0.0000
    66 H12A     9.7011   7.9523  -6.6577   H         1 RES1   0.0000
    67 H13A    10.1846   6.5625  -7.2014   H         1 RES1   0.0000
    68 O1B      6.9333   5.8442   1.5025   O.2       1 RES1  -1.0000
    69 C1B      6.3065   6.8792   1.0790   C.2       1 RES1   0.0000
    70 C2B      6.3226   8.1385   1.8213   C.ar      1 RES1   0.0000
    71 C3B      6.8887   8.4274   3.0570   C.ar      1 RES1   0.0000
    72 H1B      7.3305   7.7736   3.5480   H         1 RES1   0.0000
    73 C4B      6.7746   9.7095   3.5242   C.ar      1 RES1   0.0000
    74 H2B      7.1279   9.9261   4.3569   H         1 RES1   0.0000
    75 C5B      6.1551  10.6736   2.7902   C.ar      1 RES1   0.0000
    76 H3B      6.1346  11.5452   3.1130   H         1 RES1   0.0000
    77 C6B      5.5560  10.3961   1.5810   C.ar      1 RES1   0.0000
    78 H4B      5.1091  11.0587   1.1045   H         1 RES1   0.0000
    79 C7B      5.6379   9.1013   1.0933   C.ar      1 RES1   0.0000
    80 C8B      5.0477   8.4717  -0.1353   C.3       1 RES1   0.0000
    81 H5B      5.3556   8.9214  -0.9380   H         1 RES1   0.0000
    82 H6B      4.0785   8.5008  -0.1088   H         1 RES1   0.0000
    83 C9B      5.5509   7.0376  -0.0894   C.2       1 RES1   0.0000
    84 C10B     5.3366   5.9949  -0.9961   C.2       1 RES1   0.0000
    85 C11B     4.5810   6.0874  -2.2610   C.ar      1 RES1   0.0000
    86 C12B     3.5833   7.0122  -2.5213   C.ar      1 RES1   0.0000
    87 H7B      3.3712   7.6432  -1.8726   H         1 RES1   0.0000
    88 C13B     2.8907   7.0211  -3.7210   C.ar      1 RES1   0.0000
    89 H8B      2.2031   7.6318  -3.8607   H         1 RES1   0.0000
    90 C14B     3.2344   6.1013  -4.7198   C.ar      1 RES1   0.0000
    91 C15B     4.2255   5.1803  -4.4779   C.ar      1 RES1   0.0000
    92 H9B      4.4611   4.5621  -5.1317   H         1 RES1   0.0000
    93 C16B     4.8699   5.1841  -3.2592   C.ar      1 RES1   0.0000
    94 H10B     5.5290   4.5469  -3.1028   H         1 RES1   0.0000
    95 O2B      5.8318   4.8155  -0.7793   O.2       1 RES1   0.0000
    96 O3B      2.5447   6.2065  -5.8859   O.3       1 RES1   0.0000
    97 C17B     2.9477   5.3387  -6.9513   C.3       1 RES1   0.0000
    98 H11B     2.3706   5.4692  -7.7078   H         1 RES1   0.0000
    99 H12B     2.8914   4.4253  -6.6577   H         1 RES1   0.0000
   100 H13B     3.8532   5.5388  -7.2014   H         1 RES1   0.0000
@<TRIPOS>BOND
     1     1     2    1
     2     2     3   un
     3     3     4    1
     4     4     5   ar
     5     5     6    1
     6     7     5   ar
     7     8     7    1
     8     9     7   ar
     9    10     9    1
    10    11     9   ar
    11    12    11    1
    12    13     4   ar
    13    14    13    1
    14    15    14    1
    15    16    14    1
    16    17     3   un
    17    18    17   un
    18    19    18    1
    19    20    19   ar
    20    21    20    1
    21    22    20   ar
    22    23    22    1
    23    24    22   ar
    24    25    24   ar
    25    26    25    1
    26    27    19   ar
    27    28    27    1
    28    29     1    1
    29    30    24    1
    30    31    30    1
    31    32    31    1
    32    33    31    1
    33    34    31    1
    34    35     1    1
    35    36    35   un
    36    37    36    1
    37    38    37   ar
    38    39    38    1
    39    40    38   ar
    40    41    40    1
    41    42    40   ar
    42    43    42    1
    43    44    42   ar
    44    45    44    1
    45    46    37   ar
    46    47    46    1
    47    48    47    1
    48    49    47    1
    49    50    36   un
    50    51    50   un
    51    52    51    1
    52    53    52   ar
    53    54    53    1
    54    55    53   ar
    55    56    55    1
    56    57    55   ar
    57    58    57   ar
    58    59    58    1
    59    60    52   ar
    60    61    60    1
    61    62     1    1
    62    63    57    1
    63    64    63    1
    64    65    64    1
    65    66    64    1
    66    67    64    1
    67    68     1    1
    68    69    68   un
    69    70    69    1
    70    71    70   ar
    71    72    71    1
    72    73    71   ar
    73    74    73    1
    74    75    73   ar
    75    76    75    1
    76    77    75   ar
    77    78    77    1
    78    79    70   ar
    79    80    79    1
    80    81    80    1
    81    82    80    1
    82    83    69   un
    83    84    83   un
    84    85    84    1
    85    86    85   ar
    86    87    86    1
    87    88    86   ar
    88    89    88    1
    89    90    88   ar
    90    91    90   ar
    91    92    91    1
    92    93    85   ar
    93    94    93    1
    94    95     1    1
    95    96    90    1
    96    97    96    1
    97    98    97    1
    98    99    97    1
    99   100    97    1
   100    11    13   ar
   101    14    17    1
   102    18    29   un
   103    25    27   ar
   104    44    46   ar
   105    47    50    1
   106    51    62   un
   107    58    60   ar
   108    77    79   ar
   109    80    83    1
   110    84    95   un
   111    91    93   ar
@<TRIPOS>SUBSTRUCTURE
     1 RES1        1 GROUP             0 ****  ****    0  
@<TRIPOS>CRYSIN
   14.6288   14.6288   33.9850   90.0000   90.0000  120.0000   233     1
