@<TRIPOS>MOLECULE
ZOXKEE
   180   184     6     0     0
SMALL
USER_CHARGES
****
Generated from the CSD

@<TRIPOS>ATOM
     1 Br1     11.1750  10.5071  13.9972   Br        1 RES1  -1.0000
     2 Br2      5.6341  13.1807  24.4303   Br        2 RES2  -1.0000
     3 Fe1      4.8630   8.0745  14.0362   Fe        3 RES3   2.0000
     4 S1       5.6062   9.8072  15.3834   S.2       3 RES3   0.0000
     5 S2       4.5286   6.5532  12.4024   S.2       3 RES3   0.0000
     6 S3       5.1292   6.6121  15.7315   S.2       3 RES3   0.0000
     7 S4       4.1940   9.7881  12.6236   S.2       3 RES3   0.0000
     8 N1       6.7517   7.7245  13.7367   N.ar      3 RES3   0.0000
     9 N2       8.1910  10.4912  15.4668   N.am      3 RES3   0.0000
    10 N3       6.4079   4.9455  11.4632   N.am      3 RES3   0.0000
    11 N4       2.9565   7.8369  14.3596   N.ar      3 RES3   0.0000
    12 N5       1.6304  10.5298  12.4369   N.am      3 RES3   0.0000
    13 N6       3.1505   5.3359  16.9358   N.am      3 RES3   0.0000
    14 C1       7.2552   9.6232  15.1133   C.2       3 RES3   0.0000
    15 C2       6.0793   5.9384  12.2795   C.2       3 RES3   0.0000
    16 C3       7.7078   8.3798  14.4559   C.ar      3 RES3   0.0000
    17 C4       8.9679   7.8379  14.6862   C.ar      3 RES3   0.0000
    18 C5       9.2880   6.6060  14.1465   C.ar      3 RES3   0.0000
    19 C6       8.3648   5.9860  13.3239   C.ar      3 RES3   0.0000
    20 C7       7.1218   6.5618  13.1114   C.ar      3 RES3   0.0000
    21 C8       7.9293  11.7213  16.1802   C.ar      3 RES3   0.0000
    22 C9       7.8181  11.6972  17.5740   C.ar      3 RES3   0.0000
    23 C10      7.6444  12.9128  18.2168   C.ar      3 RES3   0.0000
    24 C11      7.5893  14.0986  17.5141   C.ar      3 RES3   0.0000
    25 C12      7.7014  14.0950  16.1423   C.ar      3 RES3   0.0000
    26 C13      7.8840  12.9127  15.4340   C.ar      3 RES3   0.0000
    27 C14      7.9974  12.9249  13.9142   C.3       3 RES3   0.0000
    28 C15      8.9401  14.0086  13.4194   C.3       3 RES3   0.0000
    29 C16      6.6088  13.0840  13.2976   C.3       3 RES3   0.0000
    30 C17      7.9186  10.4131  18.3723   C.3       3 RES3   0.0000
    31 C18      6.7190  10.2196  19.2924   C.3       3 RES3   0.0000
    32 C19      9.1942  10.3736  19.1950   C.3       3 RES3   0.0000
    33 C20      5.5208   4.4170  10.4554   C.ar      3 RES3   0.0000
    34 C21      5.6769   4.8884   9.1431   C.ar      3 RES3   0.0000
    35 C22      4.9009   4.3169   8.1592   C.ar      3 RES3   0.0000
    36 C23      3.9895   3.3173   8.4478   C.ar      3 RES3   0.0000
    37 C24      3.8312   2.8919   9.7427   C.ar      3 RES3   0.0000
    38 C25      4.5916   3.4176  10.7809   C.ar      3 RES3   0.0000
    39 C26      4.4069   2.8877  12.1995   C.3       3 RES3   0.0000
    40 C27      2.9568   3.0131  12.6661   C.3       3 RES3   0.0000
    41 C28      4.8920   1.4507  12.2932   C.3       3 RES3   0.0000
    42 C29      6.6149   6.0459   8.8114   C.3       3 RES3   0.0000
    43 C30      7.6000   5.7254   7.7395   C.3       3 RES3   0.0000
    44 C31      5.8229   7.2562   8.4441   C.3       3 RES3   0.0000
    45 C32      3.5304   6.1673  15.9787   C.2       3 RES3   0.0000
    46 C33      2.5374   9.6546  12.8556   C.2       3 RES3   0.0000
    47 C34      2.5295   6.7474  15.0646   C.ar      3 RES3   0.0000
    48 C35      1.2902   6.1716  14.8474   C.ar      3 RES3   0.0000
    49 C36      0.4271   6.7332  13.9235   C.ar      3 RES3   0.0000
    50 C37      0.7852   7.9294  13.3145   C.ar      3 RES3   0.0000
    51 C38      2.0461   8.4556  13.5692   C.ar      3 RES3   0.0000
    52 C39      4.0428   4.8107  17.9365   C.ar      3 RES3   0.0000
    53 C40      3.9978   5.3579  19.2137   C.ar      3 RES3   0.0000
    54 C41      4.8176   4.8138  20.1882   C.ar      3 RES3   0.0000
    55 C42      5.6646   3.7604  19.8921   C.ar      3 RES3   0.0000
    56 C43      5.6919   3.2241  18.6216   C.ar      3 RES3   0.0000
    57 C44      4.8791   3.7273  17.6078   C.ar      3 RES3   0.0000
    58 C45      4.8791   3.0762  16.2379   C.3       3 RES3   0.0000
    59 C46      6.3016   2.9439  15.6851   C.3       3 RES3   0.0000
    60 C47      4.1790   1.7252  16.2979   C.3       3 RES3   0.0000
    61 C48      3.1389   6.5665  19.5379   C.3       3 RES3   0.0000
    62 C49      2.5150   6.5139  20.9340   C.3       3 RES3   0.0000
    63 C50      3.9758   7.8249  19.4011   C.3       3 RES3   0.0000
    64 C51      1.9336  11.6660  11.5899   C.ar      3 RES3   0.0000
    65 C52      2.1614  11.4393  10.2262   C.ar      3 RES3   0.0000
    66 C53      2.4199  12.5606   9.4298   C.ar      3 RES3   0.0000
    67 C54      2.4198  13.8319   9.9714   C.ar      3 RES3   0.0000
    68 C55      2.1579  14.0212  11.3112   C.ar      3 RES3   0.0000
    69 C56      1.9088  12.9372  12.1620   C.ar      3 RES3   0.0000
    70 C57      1.6512  13.1632  13.6443   C.3       3 RES3   0.0000
    71 C58      2.9115  13.5398  14.3583   C.3       3 RES3   0.0000
    72 C59      0.5646  14.1645  13.8917   C.3       3 RES3   0.0000
    73 C60      2.0773  10.0647   9.6022   C.3       3 RES3   0.0000
    74 C61      0.7942   9.9179   8.7983   C.3       3 RES3   0.0000
    75 C62      3.2882   9.7635   8.7214   C.3       3 RES3   0.0000
    76 H1       9.0260  10.3072  15.2541   H         3 RES3   0.0000
    77 H2       7.2097   4.5902  11.5399   H         3 RES3   0.0000
    78 H3       9.6040   8.3115  15.2091   H         3 RES3   0.0000
    79 H4       0.7950  10.4121  12.6886   H         3 RES3   0.0000
    80 H5      10.1237   6.1952  14.3377   H         3 RES3   0.0000
    81 H6       8.5834   5.1623  12.9022   H         3 RES3   0.0000
    82 H7       2.3051   5.0908  16.9612   H         3 RES3   0.0000
    83 H8       7.5617  12.9302  19.1631   H         3 RES3   0.0000
    84 H9       7.4741  14.9197  17.9788   H         3 RES3   0.0000
    85 H10      7.6517  14.9185  15.6682   H         3 RES3   0.0000
    86 H11      8.3647  12.0410  13.6256   H         3 RES3   0.0000
    87 H12      9.8340  13.8597  13.7942   H         3 RES3   0.0000
    88 H13      8.6090  14.8850  13.7080   H         3 RES3   0.0000
    89 H14      8.9866  13.9807  12.4412   H         3 RES3   0.0000
    90 H15      6.2146  13.9292  13.5975   H         3 RES3   0.0000
    91 H16      6.0383  12.3392  13.5787   H         3 RES3   0.0000
    92 H17      6.6843  13.0877  12.3194   H         3 RES3   0.0000
    93 H18      7.9419   9.6487  17.7277   H         3 RES3   0.0000
    94 H19      5.8987  10.1907  18.7584   H         3 RES3   0.0000
    95 H20      6.6700  10.9639  19.9277   H         3 RES3   0.0000
    96 H21      6.8188   9.3773  19.7853   H         3 RES3   0.0000
    97 H22      9.1991  11.1238  19.8265   H         3 RES3   0.0000
    98 H23      9.9699  10.4430  18.5991   H         3 RES3   0.0000
    99 H24      9.2377   9.5300  19.6916   H         3 RES3   0.0000
   100 H25      4.9922   4.6156   7.2635   H         3 RES3   0.0000
   101 H26      3.4746   2.9265   7.7526   H         3 RES3   0.0000
   102 H27      3.1860   2.2215   9.9339   H         3 RES3   0.0000
   103 H28      4.9745   3.4421  12.8085   H         3 RES3   0.0000
   104 H29      2.3772   2.4940  12.0721   H         3 RES3   0.0000
   105 H30      2.6876   3.9554  12.6455   H         3 RES3   0.0000
   106 H31      2.8780   2.6699  13.5806   H         3 RES3   0.0000
   107 H32      5.8388   1.4076  12.0440   H         3 RES3   0.0000
   108 H33      4.3692   0.8886  11.6823   H         3 RES3   0.0000
   109 H34      4.7805   1.1273  13.2114   H         3 RES3   0.0000
   110 H35      7.1304   6.2649   9.6415   H         3 RES3   0.0000
   111 H36      8.1944   6.4934   7.6027   H         3 RES3   0.0000
   112 H37      7.1241   5.5275   6.9074   H         3 RES3   0.0000
   113 H38      8.1306   4.9453   8.0074   H         3 RES3   0.0000
   114 H39      5.3212   7.0798   7.6214   H         3 RES3   0.0000
   115 H40      6.4299   8.0132   8.2998   H         3 RES3   0.0000
   116 H41      5.1989   7.4717   9.1674   H         3 RES3   0.0000
   117 H42      1.0334   5.3952  15.3290   H         3 RES3   0.0000
   118 H43     -0.3955   6.3069  13.7099   H         3 RES3   0.0000
   119 H44      0.1797   8.3784  12.7355   H         3 RES3   0.0000
   120 H45      4.7972   5.1664  21.0708   H         3 RES3   0.0000
   121 H46      6.2306   3.4033  20.5667   H         3 RES3   0.0000
   122 H47      6.2757   2.4986  18.4323   H         3 RES3   0.0000
   123 H48      4.3610   3.6651  15.6157   H         3 RES3   0.0000
   124 H49      6.2661   2.5928  14.7706   H         3 RES3   0.0000
   125 H50      6.8157   2.3298  16.2510   H         3 RES3   0.0000
   126 H51      6.7341   3.8236  15.6813   H         3 RES3   0.0000
   127 H52      3.2577   1.8479  16.6052   H         3 RES3   0.0000
   128 H53      4.6559   1.1379  16.9219   H         3 RES3   0.0000
   129 H54      4.1748   1.3194  15.4059   H         3 RES3   0.0000
   130 H55      2.3975   6.6098  18.8671   H         3 RES3   0.0000
   131 H56      3.2268   6.4752  21.6087   H         3 RES3   0.0000
   132 H57      1.9512   5.7160  21.0109   H         3 RES3   0.0000
   133 H58      1.9705   7.3144  21.0802   H         3 RES3   0.0000
   134 H59      4.3229   7.8889  18.4866   H         3 RES3   0.0000
   135 H60      4.7237   7.7888  20.0327   H         3 RES3   0.0000
   136 H61      3.4201   8.6079  19.5942   H         3 RES3   0.0000
   137 H62      2.5998  12.4460   8.5040   H         3 RES3   0.0000
   138 H63      2.6014  14.5807   9.4148   H         3 RES3   0.0000
   139 H64      2.1465  14.9036  11.6654   H         3 RES3   0.0000
   140 H65      1.3441  12.2917  14.0266   H         3 RES3   0.0000
   141 H66      3.2695  14.3675  13.9760   H         3 RES3   0.0000
   142 H67      3.5708  12.8213  14.2571   H         3 RES3   0.0000
   143 H68      2.7201  13.6752  15.3103   H         3 RES3   0.0000
   144 H69      0.8455  15.0428  13.5600   H         3 RES3   0.0000
   145 H70      0.3858  14.2204  14.8549   H         3 RES3   0.0000
   146 H71     -0.2501  13.8836  13.4251   H         3 RES3   0.0000
   147 H72      2.0562   9.3906  10.3405   H         3 RES3   0.0000
   148 H73      0.7815  10.5824   8.0787   H         3 RES3   0.0000
   149 H74      0.0230  10.0579   9.3867   H         3 RES3   0.0000
   150 H75      0.7528   9.0189   8.4122   H         3 RES3   0.0000
   151 H76      4.1052   9.8138   9.2630   H         3 RES3   0.0000
   152 H77      3.3361  10.4186   7.9962   H         3 RES3   0.0000
   153 H78      3.2023   8.8634   8.3448   H         3 RES3   0.0000
   154 O1       8.1943  13.2363  26.4098   O.3       4 RES4   0.0000
   155 C63      8.1067  14.1434  27.5042   C.3       4 RES4   0.0000
   156 C64      7.8865  15.4588  27.1256   C.3       4 RES4   0.0000
   157 H79      7.4796  13.2600  25.9694   H         4 RES4   0.0000
   158 H80      7.3705  13.8552  28.1001   H         4 RES4   0.0000
   159 H81      8.9477  14.0978  28.0251   H         4 RES4   0.0000
   160 H82      7.0477  15.5173  26.6215   H         4 RES4   0.0000
   161 H83      8.6280  15.7652  26.5634   H         4 RES4   0.0000
   162 H84      7.8281  16.0234  27.9239   H         4 RES4   0.0000
   163 O2       5.6746  13.4514  21.2601   O.3       5 RES5   0.0000
   164 C65      5.7824  14.8976  21.1046   C.3       5 RES5   0.0000
   165 C66      7.1119  15.3620  21.4588   C.3       5 RES5   0.0000
   166 H85      5.9446  13.2296  22.0228   H         5 RES5   0.0000
   167 H86      5.5868  15.1446  20.1657   H         5 RES5   0.0000
   168 H87      5.1139  15.3421  21.6836   H         5 RES5   0.0000
   169 H88      7.7748  14.9224  20.8853   H         5 RES5   0.0000
   170 H89      7.2947  15.1436  22.3957   H         5 RES5   0.0000
   171 H90      7.1630  16.3327  21.3332   H         5 RES5   0.0000
   172 O3       3.7446  12.3364  19.8102   O.3       6 RES6   0.0000
   173 C67      3.8829  12.9033  18.5054   C.3       6 RES6   0.0000
   174 C68      3.0998  14.1390  18.3330   C.3       6 RES6   0.0000
   175 H91      4.2281  12.7580  20.3512   H         6 RES6   0.0000
   176 H92      3.5908  12.2387  17.8308   H         6 RES6   0.0000
   177 H93      4.8395  13.1009  18.3386   H         6 RES6   0.0000
   178 H94      3.4033  14.8099  18.9795   H         6 RES6   0.0000
   179 H95      2.1505  13.9465  18.4810   H         6 RES6   0.0000
   180 H96      3.2257  14.4809  17.4241   H         6 RES6   0.0000
@<TRIPOS>BOND
     1     3     4    1
     2     4    14    2
     3     5     3    1
     4     6     3    1
     5     7     3    1
     6     8     3    1
     7     9    14   am
     8    10    15   am
     9    11     3    1
    10    12    46   am
    11    13    45   am
    12    14    16    1
    13    15     5    2
    14    16     8   ar
    15    17    16   ar
    16    18    17   ar
    17    19    18   ar
    18    20     8   ar
    19    21     9    1
    20    22    21   ar
    21    23    22   ar
    22    24    23   ar
    23    25    24   ar
    24    26    21   ar
    25    27    26    1
    26    28    27    1
    27    29    27    1
    28    30    22    1
    29    31    30    1
    30    32    30    1
    31    33    10    1
    32    34    33   ar
    33    35    34   ar
    34    36    35   ar
    35    37    36   ar
    36    38    33   ar
    37    39    38    1
    38    40    39    1
    39    41    39    1
    40    42    34    1
    41    43    42    1
    42    44    42    1
    43    45     6    2
    44    46     7    2
    45    47    11   ar
    46    48    47   ar
    47    49    48   ar
    48    50    49   ar
    49    51    11   ar
    50    52    13    1
    51    53    52   ar
    52    54    53   ar
    53    55    54   ar
    54    56    55   ar
    55    57    52   ar
    56    58    57    1
    57    59    58    1
    58    60    58    1
    59    61    53    1
    60    62    61    1
    61    63    61    1
    62    64    12    1
    63    65    64   ar
    64    66    65   ar
    65    67    66   ar
    66    68    67   ar
    67    69    64   ar
    68    70    69    1
    69    71    70    1
    70    72    70    1
    71    73    65    1
    72    74    73    1
    73    75    73    1
    74    76     9    1
    75    77    10    1
    76    78    17    1
    77    79    12    1
    78    80    18    1
    79    81    19    1
    80    82    13    1
    81    83    23    1
    82    84    24    1
    83    85    25    1
    84    86    27    1
    85    87    28    1
    86    88    28    1
    87    89    28    1
    88    90    29    1
    89    91    29    1
    90    92    29    1
    91    93    30    1
    92    94    31    1
    93    95    31    1
    94    96    31    1
    95    97    32    1
    96    98    32    1
    97    99    32    1
    98   100    35    1
    99   101    36    1
   100   102    37    1
   101   103    39    1
   102   104    40    1
   103   105    40    1
   104   106    40    1
   105   107    41    1
   106   108    41    1
   107   109    41    1
   108   110    42    1
   109   111    43    1
   110   112    43    1
   111   113    43    1
   112   114    44    1
   113   115    44    1
   114   116    44    1
   115   117    48    1
   116   118    49    1
   117   119    50    1
   118   120    54    1
   119   121    55    1
   120   122    56    1
   121   123    58    1
   122   124    59    1
   123   125    59    1
   124   126    59    1
   125   127    60    1
   126   128    60    1
   127   129    60    1
   128   130    61    1
   129   131    62    1
   130   132    62    1
   131   133    62    1
   132   134    63    1
   133   135    63    1
   134   136    63    1
   135   137    66    1
   136   138    67    1
   137   139    68    1
   138   140    70    1
   139   141    71    1
   140   142    71    1
   141   143    71    1
   142   144    72    1
   143   145    72    1
   144   146    72    1
   145   147    73    1
   146   148    74    1
   147   149    74    1
   148   150    74    1
   149   151    75    1
   150   152    75    1
   151   153    75    1
   152    15    20    1
   153    19    20   ar
   154    25    26   ar
   155    37    38   ar
   156    45    47    1
   157    46    51    1
   158    50    51   ar
   159    56    57   ar
   160    68    69   ar
   161   154   155    1
   162   155   156    1
   163   156   160    1
   164   157   154    1
   165   158   155    1
   166   159   155    1
   167   161   156    1
   168   162   156    1
   169   163   164    1
   170   164   165    1
   171   165   169    1
   172   166   163    1
   173   167   164    1
   174   168   164    1
   175   170   165    1
   176   171   165    1
   177   172   173    1
   178   173   174    1
   179   174   178    1
   180   175   172    1
   181   176   173    1
   182   177   173    1
   183   179   174    1
   184   180   174    1
@<TRIPOS>SUBSTRUCTURE
     1 RES1        1 GROUP             0 ****  ****    0  
     2 RES2        2 GROUP             0 ****  ****    0  
     3 RES3        3 GROUP             0 ****  ****    0  
     4 RES4      154 GROUP             0 ****  ****    0  
     5 RES5      163 GROUP             0 ****  ****    0  
     6 RES6      172 GROUP             0 ****  ****    0  
@<TRIPOS>CRYSIN
   12.5723   15.1060   18.8520   87.1600   84.3090   87.5220     2     1
