@<TRIPOS>MOLECULE
ZOYKUV
   157   164     1     0     0
SMALL
NO_CHARGES
****
Generated from the CSD

@<TRIPOS>ATOM
     1 Fe1      5.3526   2.1437   9.3736   Fe        1 RES1   0.0000
     2 C1       7.8279   1.8423   7.6560   C.ar      1 RES1   0.0000
     3 H1       8.0001   1.0631   8.1344   H         1 RES1   0.0000
     4 C2       8.7466   2.2569   6.6888   C.ar      1 RES1   0.0000
     5 H2       9.5113   1.7535   6.5259   H         1 RES1   0.0000
     6 C3       8.5180   3.4151   5.9762   C.ar      1 RES1   0.0000
     7 H3       9.1288   3.7081   5.3392   H         1 RES1   0.0000
     8 C4       7.3546   4.1359   6.2282   C.ar      1 RES1   0.0000
     9 H4       7.1719   4.9220   5.7666   H         1 RES1   0.0000
    10 C5       6.4697   3.6500   7.1899   C.ar      1 RES1   0.0000
    11 C6       5.1822   4.2334   7.5384   C.2       1 RES1   0.0000
    12 C7       3.2813   5.2953   7.6699   C.2       1 RES1   0.0000
    13 C8       2.1842   6.2531   7.4220   C.ar      1 RES1   0.0000
    14 C9       1.2005   6.4358   8.3941   C.ar      1 RES1   0.0000
    15 H5       1.2007   5.9453   9.1843   H         1 RES1   0.0000
    16 C10      0.2190   7.3871   8.1264   C.ar      1 RES1   0.0000
    17 H6      -0.4489   7.5533   8.7512   H         1 RES1   0.0000
    18 C11      0.2359   8.0788   6.9412   C.ar      1 RES1   0.0000
    19 H7      -0.4135   8.7171   6.7527   H         1 RES1   0.0000
    20 C12      1.2458   7.8034   6.0302   C.ar      1 RES1   0.0000
    21 H8       1.2529   8.2692   5.2248   H         1 RES1   0.0000
    22 C13      4.3560   5.7360   4.7168   C.2       1 RES1   0.0000
    23 C14      4.6892   6.7364   3.6428   C.3       1 RES1   0.0000
    24 H9       4.4630   7.6271   3.9538   H         1 RES1   0.0000
    25 H10      4.1546   6.5502   2.8552   H         1 RES1   0.0000
    26 C15      6.1819   6.6955   3.2641   C.3       1 RES1   0.0000
    27 H11      6.3534   7.3791   2.5984   H         1 RES1   0.0000
    28 H12      6.7091   6.9107   4.0494   H         1 RES1   0.0000
    29 C16      6.6432   5.3463   2.7152   C.3       1 RES1   0.0000
    30 H13      6.4794   4.6585   3.3801   H         1 RES1   0.0000
    31 H14      6.1234   5.1280   1.9253   H         1 RES1   0.0000
    32 C17      8.1255   5.3489   2.3539   C.3       1 RES1   0.0000
    33 H15      8.2855   6.0474   1.7004   H         1 RES1   0.0000
    34 H16      8.6396   5.5670   3.1477   H         1 RES1   0.0000
    35 C18      8.6285   4.0251   1.7917   C.3       1 RES1   0.0000
    36 H17      8.5226   3.3367   2.4671   H         1 RES1   0.0000
    37 H18      8.0806   3.7786   1.0292   H         1 RES1   0.0000
    38 C19     10.0858   4.0677   1.3564   C.3       1 RES1   0.0000
    39 H19     10.6330   4.2991   2.1241   H         1 RES1   0.0000
    40 H20     10.1937   4.7700   0.6974   H         1 RES1   0.0000
    41 C20     10.6009   2.7574   0.7649   C.3       1 RES1   0.0000
    42 H21     10.5040   2.0547   1.4267   H         1 RES1   0.0000
    43 H22     10.0534   2.5216   0.0000   H         1 RES1   0.0000
    44 C21     12.0569   2.8249   0.3271   C.3       1 RES1   0.0000
    45 H23     12.6121   2.9633   1.1098   H         1 RES1   0.0000
    46 H24     12.1726   3.5911  -0.2568   H         1 RES1   0.0000
    47 C22     12.5426   1.5720  -0.4042   C.3       1 RES1   0.0000
    48 H25     12.4505   0.8086   0.1875   H         1 RES1   0.0000
    49 H26     11.9731   1.4184  -1.1736   H         1 RES1   0.0000
    50 C23     13.9880   1.6602  -0.8714   C.3       1 RES1   0.0000
    51 H27     14.5665   1.6928  -0.0937   H         1 RES1   0.0000
    52 H28     14.1072   2.4881  -1.3629   H         1 RES1   0.0000
    53 C24     14.4205   0.4944  -1.7591   C.3       1 RES1   0.0000
    54 H29     14.3391  -0.3309  -1.2561   H         1 RES1   0.0000
    55 H30     13.8216   0.4383  -2.5196   H         1 RES1   0.0000
    56 C25     15.8486   0.6270  -2.2630   C.3       1 RES1   0.0000
    57 H31     16.4415   0.6953  -1.4979   H         1 RES1   0.0000
    58 H32     15.9234   1.4535  -2.7652   H         1 RES1   0.0000
    59 C26     16.3216  -0.5242  -3.1445   C.3       1 RES1   0.0000
    60 H33     16.2519  -1.3510  -2.6434   H         1 RES1   0.0000
    61 H34     15.7328  -0.5932  -3.9125   H         1 RES1   0.0000
    62 C27     17.7491  -0.3670  -3.6341   C.3       1 RES1   0.0000
    63 H35     18.3332  -0.2559  -2.8683   H         1 RES1   0.0000
    64 H36     17.8097   0.4369  -4.1731   H         1 RES1   0.0000
    65 C28     18.2361  -1.5507  -4.4581   C.3       1 RES1   0.0000
    66 H37     19.1407  -1.3956  -4.7393   H         1 RES1   0.0000
    67 H38     17.6751  -1.6552  -5.2305   H         1 RES1   0.0000
    68 H39     18.1985  -2.3490  -3.9257   H         1 RES1   0.0000
    69 N1       6.7025   2.5311   7.9188   N.ar      1 RES1   0.0000
    70 N2       4.4563   3.6745   8.4781   N.2       1 RES1   0.0000
    71 N3       3.2529   4.3419   8.5765   N.2       1 RES1   0.0000
    72 N4       2.2104   6.8990   6.2498   N.ar      1 RES1   0.0000
    73 N5       4.4884   5.2779   7.0122   N.pl3     1 RES1   0.0000
    74 N6       4.9170   6.0624   5.9485   N.am      1 RES1   0.0000
    75 H40      5.4830   6.7017   6.0441   H         1 RES1   0.0000
    76 O1       3.7552   4.7021   4.5522   O.2       1 RES1   0.0000
    77 N7       6.3157   3.4295  10.5018   N.2       1 RES1   0.0000
    78 C29      6.9468   4.1892  11.0217   C.1       1 RES1   0.0000
    79 S1       7.9299   5.2851  11.8154   S.2       1 RES1   0.0000
    80 C1A      2.8772   2.4452  11.0912   C.ar      1 RES1   0.0000
    81 H1A      2.7050   3.2243  10.6128   H         1 RES1   0.0000
    82 C2A      1.9585   2.0306  12.0584   C.ar      1 RES1   0.0000
    83 H2A      1.1938   2.5340  12.2213   H         1 RES1   0.0000
    84 C3A      2.1871   0.8724  12.7710   C.ar      1 RES1   0.0000
    85 H3A      1.5763   0.5794  13.4080   H         1 RES1   0.0000
    86 C4A      3.3505   0.1516  12.5190   C.ar      1 RES1   0.0000
    87 H4A      3.5332  -0.6345  12.9806   H         1 RES1   0.0000
    88 C5A      4.2354   0.6375  11.5573   C.ar      1 RES1   0.0000
    89 C6A      5.5229   0.0541  11.2088   C.2       1 RES1   0.0000
    90 C7A      7.4238  -1.0078  11.0774   C.2       1 RES1   0.0000
    91 C8A      8.5209  -1.9656  11.3252   C.ar      1 RES1   0.0000
    92 C9A      9.5046  -2.1483  10.3532   C.ar      1 RES1   0.0000
    93 H5A      9.5044  -1.6578   9.5630   H         1 RES1   0.0000
    94 C10A    10.4861  -3.0996  10.6209   C.ar      1 RES1   0.0000
    95 H6A     11.1540  -3.2659   9.9960   H         1 RES1   0.0000
    96 C11A    10.4692  -3.7913  11.8061   C.ar      1 RES1   0.0000
    97 H7A     11.1186  -4.4296  11.9945   H         1 RES1   0.0000
    98 C12A     9.4593  -3.5159  12.7170   C.ar      1 RES1   0.0000
    99 H8A      9.4522  -3.9817  13.5224   H         1 RES1   0.0000
   100 C13A     6.3491  -1.4485  14.0304   C.2       1 RES1   0.0000
   101 C14A     6.0159  -2.4489  15.1044   C.3       1 RES1   0.0000
   102 H9A      6.2421  -3.3396  14.7934   H         1 RES1   0.0000
   103 H10A     6.5505  -2.2627  15.8920   H         1 RES1   0.0000
   104 C15A     4.5232  -2.4080  15.4831   C.3       1 RES1   0.0000
   105 H11A     4.3517  -3.0916  16.1489   H         1 RES1   0.0000
   106 H12A     3.9960  -2.6232  14.6978   H         1 RES1   0.0000
   107 C16A     4.0619  -1.0588  16.0321   C.3       1 RES1   0.0000
   108 H13A     4.2257  -0.3710  15.3671   H         1 RES1   0.0000
   109 H14A     4.5817  -0.8406  16.8219   H         1 RES1   0.0000
   110 C17A     2.5796  -1.0614  16.3933   C.3       1 RES1   0.0000
   111 H15A     2.4196  -1.7600  17.0468   H         1 RES1   0.0000
   112 H16A     2.0655  -1.2795  15.5996   H         1 RES1   0.0000
   113 C18A     2.0766   0.2624  16.9555   C.3       1 RES1   0.0000
   114 H17A     2.1826   0.9508  16.2801   H         1 RES1   0.0000
   115 H18A     2.6245   0.5089  17.7180   H         1 RES1   0.0000
   116 C19A     0.6193   0.2198  17.3909   C.3       1 RES1   0.0000
   117 H19A     0.0721  -0.0116  16.6232   H         1 RES1   0.0000
   118 H20A     0.5114  -0.4825  18.0498   H         1 RES1   0.0000
   119 C20A     0.1042   1.5300  17.9823   C.3       1 RES1   0.0000
   120 H21A     0.2011   2.2328  17.3206   H         1 RES1   0.0000
   121 H22A     0.6517   1.7659  18.7472   H         1 RES1   0.0000
   122 C21A    -1.3518   1.4626  18.4201   C.3       1 RES1   0.0000
   123 H23A    -1.9070   1.3242  17.6374   H         1 RES1   0.0000
   124 H24A    -1.4675   0.6964  19.0041   H         1 RES1   0.0000
   125 C22A    -1.8375   2.7155  19.1514   C.3       1 RES1   0.0000
   126 H25A    -1.7454   3.4789  18.5597   H         1 RES1   0.0000
   127 H26A    -1.2680   2.8691  19.9208   H         1 RES1   0.0000
   128 C23A    -3.2829   2.6273  19.6186   C.3       1 RES1   0.0000
   129 H27A    -3.8614   2.5947  18.8410   H         1 RES1   0.0000
   130 H28A    -3.4021   1.7994  20.1101   H         1 RES1   0.0000
   131 C24A    -3.7154   3.7931  20.5063   C.3       1 RES1   0.0000
   132 H29A    -3.6340   4.6184  20.0033   H         1 RES1   0.0000
   133 H30A    -3.1165   3.8492  21.2668   H         1 RES1   0.0000
   134 C25A    -5.1435   3.6605  21.0102   C.3       1 RES1   0.0000
   135 H31A    -5.7364   3.5922  20.2451   H         1 RES1   0.0000
   136 H32A    -5.2183   2.8340  21.5124   H         1 RES1   0.0000
   137 C26A    -5.6165   4.8116  21.8917   C.3       1 RES1   0.0000
   138 H33A    -5.5468   5.6384  21.3906   H         1 RES1   0.0000
   139 H34A    -5.0277   4.8807  22.6598   H         1 RES1   0.0000
   140 C27A    -7.0440   4.6545  22.3814   C.3       1 RES1   0.0000
   141 H35A    -7.6281   4.5434  21.6155   H         1 RES1   0.0000
   142 H36A    -7.1046   3.8506  22.9203   H         1 RES1   0.0000
   143 C28A    -7.5310   5.8382  23.2053   C.3       1 RES1   0.0000
   144 H37A    -8.4356   5.6831  23.4865   H         1 RES1   0.0000
   145 H38A    -6.9700   5.9427  23.9777   H         1 RES1   0.0000
   146 H39A    -7.4934   6.6365  22.6729   H         1 RES1   0.0000
   147 N1A      4.0026   1.7564  10.8284   N.ar      1 RES1   0.0000
   148 N2A      6.2488   0.6130  10.2692   N.2       1 RES1   0.0000
   149 N3A      7.4522  -0.0544  10.1707   N.2       1 RES1   0.0000
   150 N4A      8.4947  -2.6115  12.4975   N.ar      1 RES1   0.0000
   151 N5A      6.2167  -0.9904  11.7350   N.pl3     1 RES1   0.0000
   152 N6A      5.7881  -1.7749  12.7987   N.am      1 RES1   0.0000
   153 H40A     5.2221  -2.4142  12.7031   H         1 RES1   0.0000
   154 O1A      6.9499  -0.4146  14.1950   O.2       1 RES1   0.0000
   155 N7A      4.3894   0.8580   8.2454   N.2       1 RES1   0.0000
   156 C29A     3.7583   0.0983   7.7255   C.1       1 RES1   0.0000
   157 S1A      2.7752  -0.9976   6.9318   S.2       1 RES1   0.0000
@<TRIPOS>BOND
     1     1    69    1
     2     2     3    1
     3     4     2   ar
     4     5     4    1
     5     6     4   ar
     6     7     6    1
     7     8     6   ar
     8     9     8    1
     9    10     8   ar
    10    11    10    1
    11    12    13    1
    12    13    14   ar
    13    14    15    1
    14    16    14   ar
    15    17    16    1
    16    18    16   ar
    17    19    18    1
    18    20    18   ar
    19    21    20    1
    20    22    23    1
    21    23    24    1
    22    25    23    1
    23    26    23    1
    24    27    26    1
    25    28    26    1
    26    29    26    1
    27    30    29    1
    28    31    29    1
    29    32    29    1
    30    33    32    1
    31    34    32    1
    32    35    32    1
    33    36    35    1
    34    37    35    1
    35    38    35    1
    36    39    38    1
    37    40    38    1
    38    41    38    1
    39    42    41    1
    40    43    41    1
    41    44    41    1
    42    45    44    1
    43    46    44    1
    44    47    44    1
    45    48    47    1
    46    49    47    1
    47    50    47    1
    48    51    50    1
    49    52    50    1
    50    53    50    1
    51    54    53    1
    52    55    53    1
    53    56    53    1
    54    57    56    1
    55    58    56    1
    56    59    56    1
    57    60    59    1
    58    61    59    1
    59    62    59    1
    60    63    62    1
    61    64    62    1
    62    65    62    1
    63    66    65    1
    64    67    65    1
    65    68    65    1
    66    69     2   ar
    67    70     1    1
    68    71    12    2
    69    72    13   ar
    70    73    11    1
    71    74    22   am
    72    75    74    1
    73    76    22    2
    74    77     1    1
    75    78    77    2
    76    79    78    2
    77    80    81    1
    78    82    80   ar
    79    83    82    1
    80    84    82   ar
    81    85    84    1
    82    86    84   ar
    83    87    86    1
    84    88    86   ar
    85    89    88    1
    86    90    91    1
    87    91    92   ar
    88    92    93    1
    89    94    92   ar
    90    95    94    1
    91    96    94   ar
    92    97    96    1
    93    98    96   ar
    94    99    98    1
    95   100   101    1
    96   101   102    1
    97   103   101    1
    98   104   101    1
    99   105   104    1
   100   106   104    1
   101   107   104    1
   102   108   107    1
   103   109   107    1
   104   110   107    1
   105   111   110    1
   106   112   110    1
   107   113   110    1
   108   114   113    1
   109   115   113    1
   110   116   113    1
   111   117   116    1
   112   118   116    1
   113   119   116    1
   114   120   119    1
   115   121   119    1
   116   122   119    1
   117   123   122    1
   118   124   122    1
   119   125   122    1
   120   126   125    1
   121   127   125    1
   122   128   125    1
   123   129   128    1
   124   130   128    1
   125   131   128    1
   126   132   131    1
   127   133   131    1
   128   134   131    1
   129   135   134    1
   130   136   134    1
   131   137   134    1
   132   138   137    1
   133   139   137    1
   134   140   137    1
   135   141   140    1
   136   142   140    1
   137   143   140    1
   138   144   143    1
   139   145   143    1
   140   146   143    1
   141   147     1    1
   142   148     1    1
   143   149    90    2
   144   150    91   ar
   145   151    89    1
   146   152   100   am
   147   153   152    1
   148   154   100    2
   149   155     1    1
   150   156   155    2
   151   157   156    2
   152    10    69   ar
   153    11    70    2
   154    12    73    1
   155    20    72   ar
   156    70    71    1
   157    73    74    1
   158    80   147   ar
   159    88   147   ar
   160    89   148    2
   161    90   151    1
   162    98   150   ar
   163   148   149    1
   164   151   152    1
@<TRIPOS>SUBSTRUCTURE
     1 RES1        1 GROUP             0 ****  ****    0  
@<TRIPOS>CRYSIN
    7.6430   10.2671   19.4735   76.0598   80.9530   81.5397     2     1
