@<TRIPOS>MOLECULE
ZUBNAO
   104   118     2     0     0
SMALL
NO_CHARGES
****
Generated from the CSD

@<TRIPOS>ATOM
     1 Fe1      3.0962   5.9875   8.2867   Fe        1 RES1   0.0000
     2 S1       0.3114   7.8144   4.9552   S.2       1 RES1   0.0000
     3 N1       2.1005   6.9541   6.9098   N.2       1 RES1   0.0000
     4 N2       2.2776   7.0619   9.7353   N.ar      1 RES1   0.0000
     5 N3       4.4548   7.4262   8.3498   N.ar      1 RES1   0.0000
     6 N4       5.4753  11.3331  11.2186   N.2       1 RES1   0.0000
     7 N5       3.6597  10.9782  12.4598   N.pl3     1 RES1   0.0000
     8 H1       3.0755  11.0726  13.0845   H         1 RES1   0.0000
     9 C1       1.3821   7.3215   6.0840   C.1       1 RES1   0.0000
    10 C2       1.1877   6.8090  10.4505   C.ar      1 RES1   0.0000
    11 H2       0.6653   6.0770  10.2179   H         1 RES1   0.0000
    12 C3       0.7852   7.6017  11.5474   C.ar      1 RES1   0.0000
    13 H3       0.0102   7.3898  12.0143   H         1 RES1   0.0000
    14 C4       1.5283   8.6723  11.9194   C.ar      1 RES1   0.0000
    15 H4       1.2688   9.1987  12.6414   H         1 RES1   0.0000
    16 C5       2.7048   8.9812  11.1930   C.ar      1 RES1   0.0000
    17 C6       3.0429   8.1368  10.1090   C.ar      1 RES1   0.0000
    18 C7       3.6226  10.0518  11.4399   C.ar      1 RES1   0.0000
    19 C8       4.7459  10.2913  10.6734   C.ar      1 RES1   0.0000
    20 C9       5.0951   9.4387   9.5670   C.ar      1 RES1   0.0000
    21 C10      4.2220   8.3681   9.3168   C.ar      1 RES1   0.0000
    22 C11      6.2221   9.5728   8.7555   C.ar      1 RES1   0.0000
    23 H5       6.8210  10.2723   8.8895   H         1 RES1   0.0000
    24 C12      6.4289   8.6531   7.7549   C.ar      1 RES1   0.0000
    25 H6       7.1686   8.7339   7.1975   H         1 RES1   0.0000
    26 C13      5.5311   7.5969   7.5737   C.ar      1 RES1   0.0000
    27 H7       5.6880   6.9883   6.8878   H         1 RES1   0.0000
    28 C14      8.0117  13.1198  15.8161   C.ar      1 RES1   0.0000
    29 H8       8.2780  13.7142  16.4793   H         1 RES1   0.0000
    30 C15      8.7523  12.0157  15.5804   C.ar      1 RES1   0.0000
    31 H9       9.5236  11.8592  16.0769   H         1 RES1   0.0000
    32 C16      8.3573  11.0936  14.5797   C.ar      1 RES1   0.0000
    33 H10      8.8650  10.3264  14.4390   H         1 RES1   0.0000
    34 C17      7.2476  11.3068  13.8213   C.ar      1 RES1   0.0000
    35 H11      7.0142  10.6922  13.1632   H         1 RES1   0.0000
    36 C18      6.4327  12.4708  14.0233   C.ar      1 RES1   0.0000
    37 C19      6.8178  13.3928  15.0592   C.ar      1 RES1   0.0000
    38 C20      6.0116  14.4898  15.3366   C.ar      1 RES1   0.0000
    39 H12      6.2569  15.0647  16.0262   H         1 RES1   0.0000
    40 C21      4.8635  14.7556  14.6263   C.ar      1 RES1   0.0000
    41 C22      4.4486  13.8527  13.5647   C.ar      1 RES1   0.0000
    42 C23      5.2487  12.7151  13.3001   C.ar      1 RES1   0.0000
    43 C24      4.0325  15.8836  14.9037   C.ar      1 RES1   0.0000
    44 H13      4.2744  16.4589  15.5920   H         1 RES1   0.0000
    45 C25      2.9228  16.1399  14.2125   C.ar      1 RES1   0.0000
    46 H14      2.4026  16.8837  14.4180   H         1 RES1   0.0000
    47 C26      2.5451  15.2681  13.1590   C.ar      1 RES1   0.0000
    48 H15      1.7770  15.4567  12.6705   H         1 RES1   0.0000
    49 C27      3.2758  14.1688  12.8463   C.ar      1 RES1   0.0000
    50 H16      2.9990  13.6156  12.1515   H         1 RES1   0.0000
    51 C28      4.7954  11.7163  12.2930   C.2       1 RES1   0.0000
    52 S1A      5.8810   4.1606   4.9552   S.2       1 RES1   0.0000
    53 N1A      4.0919   5.0209   6.9098   N.2       1 RES1   0.0000
    54 N2A      3.9148   4.9131   9.7353   N.ar      1 RES1   0.0000
    55 N3A      1.7376   4.5488   8.3498   N.ar      1 RES1   0.0000
    56 N4A      0.7171   0.6419  11.2186   N.2       1 RES1   0.0000
    57 N5A      2.5327   0.9968  12.4598   N.pl3     1 RES1   0.0000
    58 H1A      3.1169   0.9024  13.0845   H         1 RES1   0.0000
    59 C1A      4.8103   4.6535   6.0840   C.1       1 RES1   0.0000
    60 C2A      5.0047   5.1660  10.4505   C.ar      1 RES1   0.0000
    61 H2A      5.5271   5.8980  10.2179   H         1 RES1   0.0000
    62 C3A      5.4072   4.3733  11.5474   C.ar      1 RES1   0.0000
    63 H3A      6.1822   4.5852  12.0143   H         1 RES1   0.0000
    64 C4A      4.6641   3.3027  11.9194   C.ar      1 RES1   0.0000
    65 H4A      4.9236   2.7763  12.6414   H         1 RES1   0.0000
    66 C5A      3.4876   2.9938  11.1930   C.ar      1 RES1   0.0000
    67 C6A      3.1495   3.8382  10.1090   C.ar      1 RES1   0.0000
    68 C7A      2.5698   1.9232  11.4399   C.ar      1 RES1   0.0000
    69 C8A      1.4465   1.6837  10.6734   C.ar      1 RES1   0.0000
    70 C9A      1.0973   2.5363   9.5670   C.ar      1 RES1   0.0000
    71 C10A     1.9704   3.6069   9.3168   C.ar      1 RES1   0.0000
    72 C11A    -0.0297   2.4022   8.7555   C.ar      1 RES1   0.0000
    73 H5A     -0.6286   1.7027   8.8895   H         1 RES1   0.0000
    74 C12A    -0.2365   3.3219   7.7549   C.ar      1 RES1   0.0000
    75 H6A     -0.9762   3.2411   7.1975   H         1 RES1   0.0000
    76 C13A     0.6613   4.3781   7.5737   C.ar      1 RES1   0.0000
    77 H7A      0.5044   4.9867   6.8878   H         1 RES1   0.0000
    78 C14A    -1.8193  -1.1448  15.8161   C.ar      1 RES1   0.0000
    79 H8A     -2.0856  -1.7392  16.4793   H         1 RES1   0.0000
    80 C15A    -2.5599  -0.0407  15.5804   C.ar      1 RES1   0.0000
    81 H9A     -3.3312   0.1158  16.0769   H         1 RES1   0.0000
    82 C16A    -2.1649   0.8814  14.5797   C.ar      1 RES1   0.0000
    83 H10A    -2.6726   1.6486  14.4390   H         1 RES1   0.0000
    84 C17A    -1.0552   0.6682  13.8213   C.ar      1 RES1   0.0000
    85 H11A    -0.8218   1.2828  13.1632   H         1 RES1   0.0000
    86 C18A    -0.2403  -0.4958  14.0233   C.ar      1 RES1   0.0000
    87 C19A    -0.6254  -1.4178  15.0592   C.ar      1 RES1   0.0000
    88 C20A     0.1808  -2.5147  15.3366   C.ar      1 RES1   0.0000
    89 H12A    -0.0645  -3.0897  16.0262   H         1 RES1   0.0000
    90 C21A     1.3289  -2.7806  14.6263   C.ar      1 RES1   0.0000
    91 C22A     1.7438  -1.8777  13.5647   C.ar      1 RES1   0.0000
    92 C23A     0.9437  -0.7401  13.3001   C.ar      1 RES1   0.0000
    93 C24A     2.1599  -3.9086  14.9037   C.ar      1 RES1   0.0000
    94 H13A     1.9180  -4.4839  15.5920   H         1 RES1   0.0000
    95 C25A     3.2696  -4.1649  14.2125   C.ar      1 RES1   0.0000
    96 H14A     3.7898  -4.9087  14.4180   H         1 RES1   0.0000
    97 C26A     3.6473  -3.2931  13.1590   C.ar      1 RES1   0.0000
    98 H15A     4.4154  -3.4817  12.6705   H         1 RES1   0.0000
    99 C27A     2.9166  -2.1938  12.8463   C.ar      1 RES1   0.0000
   100 H16A     3.1934  -1.6406  12.1515   H         1 RES1   0.0000
   101 C28A     1.3970   0.2587  12.2930   C.2       1 RES1   0.0000
   102 O1       7.5646  12.6377   9.9614   O.3       2 RES2   0.0000
   103 H17      7.2239  13.1593   9.3830   H         2 RES2   0.0000
   104 H18      6.8973  12.3269  10.3866   H         2 RES2   0.0000
@<TRIPOS>BOND
     1     1     3    1
     2     2     9    2
     3     3     9    2
     4     4     1    1
     5     5     1    1
     6     6    19    1
     7     7     8    1
     8    10     4   ar
     9    11    10    1
    10    12    10   ar
    11    13    12    1
    12    14    12   ar
    13    15    14    1
    14    16    14   ar
    15    17     4   ar
    16    18     7    1
    17    19    18   ar
    18    20    19   ar
    19    21     5   ar
    20    22    20   ar
    21    23    22    1
    22    24    22   ar
    23    25    24    1
    24    26     5   ar
    25    27    26    1
    26    28    29    1
    27    30    28   ar
    28    31    30    1
    29    32    30   ar
    30    33    32    1
    31    34    32   ar
    32    35    34    1
    33    36    34   ar
    34    37    28   ar
    35    38    37   ar
    36    39    38    1
    37    40    38   ar
    38    41    40   ar
    39    42    36   ar
    40    43    40   ar
    41    44    43    1
    42    45    43   ar
    43    46    45    1
    44    47    45   ar
    45    48    47    1
    46    49    41   ar
    47    50    49    1
    48    51     6    2
    49    52    59    2
    50    53     1    1
    51    54     1    1
    52    55     1    1
    53    56    69    1
    54    57    58    1
    55    59    53    2
    56    60    54   ar
    57    61    60    1
    58    62    60   ar
    59    63    62    1
    60    64    62   ar
    61    65    64    1
    62    66    64   ar
    63    67    54   ar
    64    68    57    1
    65    69    68   ar
    66    70    69   ar
    67    71    55   ar
    68    72    70   ar
    69    73    72    1
    70    74    72   ar
    71    75    74    1
    72    76    55   ar
    73    77    76    1
    74    78    79    1
    75    80    78   ar
    76    81    80    1
    77    82    80   ar
    78    83    82    1
    79    84    82   ar
    80    85    84    1
    81    86    84   ar
    82    87    78   ar
    83    88    87   ar
    84    89    88    1
    85    90    88   ar
    86    91    90   ar
    87    92    86   ar
    88    93    90   ar
    89    94    93    1
    90    95    93   ar
    91    96    95    1
    92    97    95   ar
    93    98    97    1
    94    99    91   ar
    95   100    99    1
    96   101    56    2
    97     7    51    1
    98    16    17   ar
    99    16    18   ar
   100    17    21   ar
   101    20    21   ar
   102    24    26   ar
   103    36    37   ar
   104    41    42   ar
   105    42    51    1
   106    47    49   ar
   107    57   101    1
   108    66    67   ar
   109    66    68   ar
   110    67    71   ar
   111    70    71   ar
   112    74    76   ar
   113    86    87   ar
   114    91    92   ar
   115    92   101    1
   116    97    99   ar
   117   102   103    1
   118   104   102    1
@<TRIPOS>SUBSTRUCTURE
     1 RES1        1 GROUP             0 ****  ****    0  
     2 RES2      102 GROUP             0 ****  ****    0  
@<TRIPOS>CRYSIN
   12.3848   23.9500   16.0358   90.0000   90.0000   90.0000    56     1
