@<TRIPOS>MOLECULE
ZUBNOC
   101   116     1     0     0
SMALL
NO_CHARGES
****
Generated from the CSD

@<TRIPOS>ATOM
     1 Fe1      9.0359   6.3689   7.5589   Fe        1 RES1   0.0000
     2 S1       5.7288   4.8429   4.5069   S.2       1 RES1   0.0000
     3 N1       7.9564   5.3053   6.1127   N.2       1 RES1   0.0000
     4 N2       9.6227   7.6794   9.2432   N.ar      1 RES1   0.0000
     5 N3       7.3673   7.7968   7.8042   N.ar      1 RES1   0.0000
     6 N4       6.0468  11.7517  10.4340   N.2       1 RES1   0.0000
     7 N5       7.9010  11.6319  11.6792   N.pl3     1 RES1   0.0000
     8 H1       8.4721  11.8252  12.2928   H         1 RES1   0.0000
     9 C1       7.0504   5.0951   5.4167   C.1       1 RES1   0.0000
    10 C2      10.7262   7.5790   9.9759   C.ar      1 RES1   0.0000
    11 H2      11.3176   6.8865   9.7884   H         1 RES1   0.0000
    12 C3      11.0431   8.4554  11.0067   C.ar      1 RES1   0.0000
    13 H3      11.8212   8.3348  11.5014   H         1 RES1   0.0000
    14 C4      10.1998   9.4948  11.2901   C.ar      1 RES1   0.0000
    15 H4      10.4057  10.0987  11.9654   H         1 RES1   0.0000
    16 C5       9.0154   9.6349  10.5427   C.ar      1 RES1   0.0000
    17 C6       8.7624   8.6974   9.5222   C.ar      1 RES1   0.0000
    18 C7       8.0191  10.6412  10.7321   C.ar      1 RES1   0.0000
    19 C8       6.8589  10.7329   9.9832   C.ar      1 RES1   0.0000
    20 C9       6.6131   9.7954   8.9319   C.ar      1 RES1   0.0000
    21 C10      7.5480   8.7687   8.7278   C.ar      1 RES1   0.0000
    22 C11      5.4613   9.7929   8.1537   C.ar      1 RES1   0.0000
    23 H5       4.8097  10.4460   8.2756   H         1 RES1   0.0000
    24 C12      5.2963   8.8222   7.2051   C.ar      1 RES1   0.0000
    25 H6       4.5435   8.8271   6.6591   H         1 RES1   0.0000
    26 C13      6.2529   7.8363   7.0612   C.ar      1 RES1   0.0000
    27 H7       6.1176   7.1729   6.4239   H         1 RES1   0.0000
    28 C14      7.3769  16.6535  13.6365   C.ar      1 RES1   0.0000
    29 H8       7.1456  17.2709  14.2916   H         1 RES1   0.0000
    30 C15      8.4287  16.8929  12.8641   C.ar      1 RES1   0.0000
    31 H9       8.9043  17.6868  12.9582   H         1 RES1   0.0000
    32 C16      8.8263  15.9351  11.8891   C.ar      1 RES1   0.0000
    33 H10      9.5643  16.1124  11.3519   H         1 RES1   0.0000
    34 C17      8.1504  14.7632  11.7262   C.ar      1 RES1   0.0000
    35 H11      8.4333  14.1428  11.0947   H         1 RES1   0.0000
    36 C18      7.0059  14.5008  12.5293   C.ar      1 RES1   0.0000
    37 C19      6.5902  15.4637  13.4896   C.ar      1 RES1   0.0000
    38 C20      5.3878  15.2982  14.1680   C.ar      1 RES1   0.0000
    39 H12      5.1091  15.9571  14.7630   H         1 RES1   0.0000
    40 C21      4.5999  14.1849  13.9815   C.ar      1 RES1   0.0000
    41 C22      5.0408  13.1455  13.0947   C.ar      1 RES1   0.0000
    42 C23      6.2336  13.3289  12.3854   C.ar      1 RES1   0.0000
    43 C24      3.3228  14.0448  14.6159   C.ar      1 RES1   0.0000
    44 H13      3.0057  14.7374  15.1480   H         1 RES1   0.0000
    45 C25      2.5710  12.9442  14.4661   C.ar      1 RES1   0.0000
    46 H14      1.7329  12.8898  14.8658   H         1 RES1   0.0000
    47 C26      3.0662  11.8768  13.6981   C.ar      1 RES1   0.0000
    48 H15      2.5806  11.0847  13.6504   H         1 RES1   0.0000
    49 C27      4.2517  11.9812  13.0183   C.ar      1 RES1   0.0000
    50 H16      4.5413  11.2681  12.4955   H         1 RES1   0.0000
    51 C28      6.7047  12.2487  11.4589   C.2       1 RES1   0.0000
    52 S1A     12.3431   7.8949   4.5069   S.2       1 RES1   0.0000
    53 N1A     10.1154   7.4325   6.1127   N.2       1 RES1   0.0000
    54 N2A      8.4492   5.0585   9.2432   N.ar      1 RES1   0.0000
    55 N3A     10.7046   4.9410   7.8042   N.ar      1 RES1   0.0000
    56 N4A     12.0250   0.9862  10.4340   N.2       1 RES1   0.0000
    57 N5A     10.1708   1.1059  11.6792   N.pl3     1 RES1   0.0000
    58 H1A      9.5998   0.9126  12.2928   H         1 RES1   0.0000
    59 C1A     11.0214   7.6427   5.4167   C.1       1 RES1   0.0000
    60 C2A      7.3456   5.1588   9.9759   C.ar      1 RES1   0.0000
    61 H2A      6.7542   5.8514   9.7884   H         1 RES1   0.0000
    62 C3A      7.0287   4.2825  11.0067   C.ar      1 RES1   0.0000
    63 H3A      6.2506   4.4030  11.5014   H         1 RES1   0.0000
    64 C4A      7.8721   3.2431  11.2901   C.ar      1 RES1   0.0000
    65 H4A      7.6662   2.6391  11.9654   H         1 RES1   0.0000
    66 C5A      9.0564   3.1029  10.5427   C.ar      1 RES1   0.0000
    67 C6A      9.3094   4.0404   9.5222   C.ar      1 RES1   0.0000
    68 C7A     10.0528   2.0967  10.7321   C.ar      1 RES1   0.0000
    69 C8A     11.2130   2.0049   9.9832   C.ar      1 RES1   0.0000
    70 C9A     11.4588   2.9424   8.9319   C.ar      1 RES1   0.0000
    71 C10A    10.5238   3.9691   8.7278   C.ar      1 RES1   0.0000
    72 C11A    12.6105   2.9450   8.1537   C.ar      1 RES1   0.0000
    73 H5A     13.2621   2.2918   8.2756   H         1 RES1   0.0000
    74 C12A    12.7756   3.9156   7.2051   C.ar      1 RES1   0.0000
    75 H6A     13.5284   3.9107   6.6591   H         1 RES1   0.0000
    76 C13A    11.8190   4.9015   7.0612   C.ar      1 RES1   0.0000
    77 H7A     11.9542   5.5650   6.4239   H         1 RES1   0.0000
    78 C14A    10.6949  -3.9156  13.6365   C.ar      1 RES1   0.0000
    79 H8A     10.9263  -4.5330  14.2916   H         1 RES1   0.0000
    80 C15A     9.6431  -4.1551  12.8641   C.ar      1 RES1   0.0000
    81 H9A      9.1676  -4.9490  12.9582   H         1 RES1   0.0000
    82 C16A     9.2456  -3.1972  11.8891   C.ar      1 RES1   0.0000
    83 H10A     8.5076  -3.3746  11.3519   H         1 RES1   0.0000
    84 C17A     9.9214  -2.0253  11.7262   C.ar      1 RES1   0.0000
    85 H11A     9.6386  -1.4050  11.0947   H         1 RES1   0.0000
    86 C18A    11.0660  -1.7629  12.5293   C.ar      1 RES1   0.0000
    87 C19A    11.4816  -2.7259  13.4896   C.ar      1 RES1   0.0000
    88 C20A    12.6840  -2.5603  14.1680   C.ar      1 RES1   0.0000
    89 H12A    12.9628  -3.2193  14.7630   H         1 RES1   0.0000
    90 C21A    13.4720  -1.4470  13.9815   C.ar      1 RES1   0.0000
    91 C22A    13.0310  -0.4076  13.0947   C.ar      1 RES1   0.0000
    92 C23A    11.8383  -0.5910  12.3854   C.ar      1 RES1   0.0000
    93 C24A    14.7490  -1.3069  14.6159   C.ar      1 RES1   0.0000
    94 H13A    15.0661  -1.9995  15.1480   H         1 RES1   0.0000
    95 C25A    15.5008  -0.2064  14.4661   C.ar      1 RES1   0.0000
    96 H14A    16.3389  -0.1519  14.8658   H         1 RES1   0.0000
    97 C26A    15.0057   0.8611  13.6981   C.ar      1 RES1   0.0000
    98 H15A    15.4912   1.6531  13.6504   H         1 RES1   0.0000
    99 C27A    13.8201   0.7566  13.0183   C.ar      1 RES1   0.0000
   100 H16A    13.5305   1.4698  12.4955   H         1 RES1   0.0000
   101 C28A    11.3672   0.4891  11.4589   C.2       1 RES1   0.0000
@<TRIPOS>BOND
     1     1     3    1
     2     2     9    2
     3     3     9    2
     4     4     1    1
     5     5     1    1
     6     6    19    1
     7     7     8    1
     8    10     4   ar
     9    11    10    1
    10    12    10   ar
    11    13    12    1
    12    14    12   ar
    13    15    14    1
    14    16    14   ar
    15    17     4   ar
    16    18     7    1
    17    19    18   ar
    18    20    19   ar
    19    21     5   ar
    20    22    20   ar
    21    23    22    1
    22    24    22   ar
    23    25    24    1
    24    26     5   ar
    25    27    26    1
    26    28    29    1
    27    30    28   ar
    28    31    30    1
    29    32    30   ar
    30    33    32    1
    31    34    32   ar
    32    35    34    1
    33    36    34   ar
    34    37    28   ar
    35    38    37   ar
    36    39    38    1
    37    40    38   ar
    38    41    40   ar
    39    42    36   ar
    40    43    40   ar
    41    44    43    1
    42    45    43   ar
    43    46    45    1
    44    47    45   ar
    45    48    47    1
    46    49    41   ar
    47    50    49    1
    48    51     6    2
    49    52    59    2
    50    53     1    1
    51    54     1    1
    52    55     1    1
    53    56    69    1
    54    57    58    1
    55    59    53    2
    56    60    54   ar
    57    61    60    1
    58    62    60   ar
    59    63    62    1
    60    64    62   ar
    61    65    64    1
    62    66    64   ar
    63    67    54   ar
    64    68    57    1
    65    69    68   ar
    66    70    69   ar
    67    71    55   ar
    68    72    70   ar
    69    73    72    1
    70    74    72   ar
    71    75    74    1
    72    76    55   ar
    73    77    76    1
    74    78    79    1
    75    80    78   ar
    76    81    80    1
    77    82    80   ar
    78    83    82    1
    79    84    82   ar
    80    85    84    1
    81    86    84   ar
    82    87    78   ar
    83    88    87   ar
    84    89    88    1
    85    90    88   ar
    86    91    90   ar
    87    92    86   ar
    88    93    90   ar
    89    94    93    1
    90    95    93   ar
    91    96    95    1
    92    97    95   ar
    93    98    97    1
    94    99    91   ar
    95   100    99    1
    96   101    56    2
    97     7    51    1
    98    16    17   ar
    99    16    18   ar
   100    17    21   ar
   101    20    21   ar
   102    24    26   ar
   103    36    37   ar
   104    41    42   ar
   105    42    51    1
   106    47    49   ar
   107    57   101    1
   108    66    67   ar
   109    66    68   ar
   110    67    71   ar
   111    70    71   ar
   112    74    76   ar
   113    86    87   ar
   114    91    92   ar
   115    92   101    1
   116    97    99   ar
@<TRIPOS>SUBSTRUCTURE
     1 RES1        1 GROUP             0 ****  ****    0  
@<TRIPOS>CRYSIN
   12.0479   25.4757   14.6834   90.0000   90.0000   90.0000    56     1
