@<TRIPOS>MOLECULE
ZUBNAO01
   104   118     2     0     0
SMALL
NO_CHARGES
****
Generated from the CSD

@<TRIPOS>ATOM
     1 Fe1      3.1264  18.0615   8.0498   Fe        1 RES1   0.0000
     2 S1       6.2291  19.7301  11.2238   S.2       1 RES1   0.0000
     3 N1       4.2719  19.0609   9.4145   N.2       1 RES1   0.0000
     4 N2       2.3673  16.8839   6.4011   N.ar      1 RES1   0.0000
     5 N3       4.5758  16.4938   7.8118   N.ar      1 RES1   0.0000
     6 N4       5.6451  12.6984   4.8404   N.2       1 RES1   0.0000
     7 N5       3.8367  13.0717   3.6057   N.pl3     1 RES1   0.0000
     8 H1       3.2606  12.9842   2.9726   H         1 RES1   0.0000
     9 C1       5.0698  19.3523  10.1795   C.1       1 RES1   0.0000
    10 C2       1.2868  17.1175   5.6603   C.ar      1 RES1   0.0000
    11 H2       0.7363  17.8249   5.9061   H         1 RES1   0.0000
    12 C3       0.9254  16.3709   4.5386   C.ar      1 RES1   0.0000
    13 H3       0.1550  16.5790   4.0610   H         1 RES1   0.0000
    14 C4       1.7108  15.3378   4.1544   C.ar      1 RES1   0.0000
    15 H4       1.4871  14.8382   3.4038   H         1 RES1   0.0000
    16 C5       2.8651  15.0199   4.8888   C.ar      1 RES1   0.0000
    17 C6       3.1689  15.8387   6.0089   C.ar      1 RES1   0.0000
    18 C7       3.7930  13.9868   4.6306   C.ar      1 RES1   0.0000
    19 C8       4.9222  13.7267   5.3891   C.ar      1 RES1   0.0000
    20 C9       5.2299  14.5528   6.5270   C.ar      1 RES1   0.0000
    21 C10      4.3645  15.5931   6.8288   C.ar      1 RES1   0.0000
    22 C11      6.3591  14.4059   7.3405   C.ar      1 RES1   0.0000
    23 H5       6.9651  13.7187   7.1786   H         1 RES1   0.0000
    24 C12      6.5630  15.2608   8.3525   C.ar      1 RES1   0.0000
    25 H6       7.3073  15.1603   8.9018   H         1 RES1   0.0000
    26 C13      5.6563  16.3059   8.5865   C.ar      1 RES1   0.0000
    27 H7       5.8079  16.8838   9.2982   H         1 RES1   0.0000
    28 C14      8.1812  10.9934   0.2453   C.ar      1 RES1   0.0000
    29 H8       8.4527  10.4029  -0.4196   H         1 RES1   0.0000
    30 C15      8.9166  12.1012   0.4923   C.ar      1 RES1   0.0000
    31 H9       9.6869  12.2758   0.0007   H         1 RES1   0.0000
    32 C16      8.5014  12.9730   1.4929   C.ar      1 RES1   0.0000
    33 H10      9.0146  13.7271   1.6684   H         1 RES1   0.0000
    34 C17      7.3971  12.7707   2.2112   C.ar      1 RES1   0.0000
    35 H11      7.1477  13.3987   2.8486   H         1 RES1   0.0000
    36 C18      6.5943  11.6147   2.0223   C.ar      1 RES1   0.0000
    37 C19      7.0007  10.7189   0.9845   C.ar      1 RES1   0.0000
    38 C20      6.1928   9.5991   0.7085   C.ar      1 RES1   0.0000
    39 H12      6.4324   9.0242   0.0181   H         1 RES1   0.0000
    40 C21      5.0536   9.3318   1.4413   C.ar      1 RES1   0.0000
    41 C22      4.6446  10.2060   2.4710   C.ar      1 RES1   0.0000
    42 C23      5.4225  11.3354   2.7373   C.ar      1 RES1   0.0000
    43 C24      4.2532   8.2023   1.1363   C.ar      1 RES1   0.0000
    44 H13      4.5195   7.6259   0.4558   H         1 RES1   0.0000
    45 C25      3.1264   7.9495   1.8045   C.ar      1 RES1   0.0000
    46 H14      2.5898   7.2272   1.5657   H         1 RES1   0.0000
    47 C26      2.7575   8.7923   2.8810   C.ar      1 RES1   0.0000
    48 H15      1.9984   8.5840   3.3766   H         1 RES1   0.0000
    49 C27      3.4766   9.8977   3.2102   C.ar      1 RES1   0.0000
    50 H16      3.2063  10.4427   3.9138   H         1 RES1   0.0000
    51 C28      4.9785  12.3228   3.7864   C.2       1 RES1   0.0000
    52 S1A      0.0238  16.3929  11.2238   S.2       1 RES1   0.0000
    53 N1A      1.9809  17.0621   9.4145   N.2       1 RES1   0.0000
    54 N2A      3.8855  19.2391   6.4011   N.ar      1 RES1   0.0000
    55 N3A      1.6770  19.6292   7.8118   N.ar      1 RES1   0.0000
    56 N4A      0.6078  23.4246   4.8404   N.2       1 RES1   0.0000
    57 N5A      2.4161  23.0513   3.6057   N.pl3     1 RES1   0.0000
    58 H1A      2.9923  23.1388   2.9726   H         1 RES1   0.0000
    59 C1A      1.1830  16.7707  10.1795   C.1       1 RES1   0.0000
    60 C2A      4.9660  19.0055   5.6603   C.ar      1 RES1   0.0000
    61 H2A      5.5166  18.2981   5.9061   H         1 RES1   0.0000
    62 C3A      5.3274  19.7521   4.5386   C.ar      1 RES1   0.0000
    63 H3A      6.0978  19.5440   4.0610   H         1 RES1   0.0000
    64 C4A      4.5421  20.7852   4.1544   C.ar      1 RES1   0.0000
    65 H4A      4.7658  21.2848   3.4038   H         1 RES1   0.0000
    66 C5A      3.3878  21.1031   4.8888   C.ar      1 RES1   0.0000
    67 C6A      3.0839  20.2843   6.0089   C.ar      1 RES1   0.0000
    68 C7A      2.4599  22.1362   4.6306   C.ar      1 RES1   0.0000
    69 C8A      1.3306  22.3963   5.3891   C.ar      1 RES1   0.0000
    70 C9A      1.0230  21.5702   6.5270   C.ar      1 RES1   0.0000
    71 C10A     1.8884  20.5299   6.8288   C.ar      1 RES1   0.0000
    72 C11A    -0.1063  21.7171   7.3405   C.ar      1 RES1   0.0000
    73 H5A     -0.7122  22.4043   7.1786   H         1 RES1   0.0000
    74 C12A    -0.3101  20.8622   8.3525   C.ar      1 RES1   0.0000
    75 H6A     -1.0545  20.9627   8.9018   H         1 RES1   0.0000
    76 C13A     0.5965  19.8171   8.5865   C.ar      1 RES1   0.0000
    77 H7A      0.4450  19.2392   9.2982   H         1 RES1   0.0000
    78 C14A    -1.9284  25.1296   0.2453   C.ar      1 RES1   0.0000
    79 H8A     -2.1999  25.7201  -0.4196   H         1 RES1   0.0000
    80 C15A    -2.6637  24.0218   0.4923   C.ar      1 RES1   0.0000
    81 H9A     -3.4340  23.8472   0.0007   H         1 RES1   0.0000
    82 C16A    -2.2485  23.1500   1.4929   C.ar      1 RES1   0.0000
    83 H10A    -2.7617  22.3959   1.6684   H         1 RES1   0.0000
    84 C17A    -1.1443  23.3523   2.2112   C.ar      1 RES1   0.0000
    85 H11A    -0.8948  22.7243   2.8486   H         1 RES1   0.0000
    86 C18A    -0.3414  24.5083   2.0223   C.ar      1 RES1   0.0000
    87 C19A    -0.7478  25.4041   0.9845   C.ar      1 RES1   0.0000
    88 C20A     0.0600  26.5239   0.7085   C.ar      1 RES1   0.0000
    89 H12A    -0.1796  27.0988   0.0181   H         1 RES1   0.0000
    90 C21A     1.1993  26.7912   1.4413   C.ar      1 RES1   0.0000
    91 C22A     1.6082  25.9170   2.4710   C.ar      1 RES1   0.0000
    92 C23A     0.8304  24.7876   2.7373   C.ar      1 RES1   0.0000
    93 C24A     1.9997  27.9207   1.1363   C.ar      1 RES1   0.0000
    94 H13A     1.7333  28.4971   0.4558   H         1 RES1   0.0000
    95 C25A     3.1264  28.1735   1.8045   C.ar      1 RES1   0.0000
    96 H14A     3.6631  28.8958   1.5657   H         1 RES1   0.0000
    97 C26A     3.4953  27.3307   2.8810   C.ar      1 RES1   0.0000
    98 H15A     4.2544  27.5390   3.3766   H         1 RES1   0.0000
    99 C27A     2.7763  26.2253   3.2102   C.ar      1 RES1   0.0000
   100 H16A     3.0466  25.6803   3.9138   H         1 RES1   0.0000
   101 C28A     1.2743  23.8002   3.7864   C.2       1 RES1   0.0000
   102 O1       7.7385  11.3498   6.0557   O.3       2 RES2   0.0000
   103 H17      7.0591  11.8021   5.8201   H         2 RES2   0.0000
   104 H18      7.4603  10.8654   6.6969   H         2 RES2   0.0000
@<TRIPOS>BOND
     1     1     3    1
     2     2     9    2
     3     3     9    2
     4     4     1    1
     5     5     1    1
     6     6    19    1
     7     7     8    1
     8    10     4   ar
     9    11    10    1
    10    12    10   ar
    11    13    12    1
    12    14    12   ar
    13    15    14    1
    14    16    14   ar
    15    17     4   ar
    16    18     7    1
    17    19    18   ar
    18    20    19   ar
    19    21     5   ar
    20    22    20   ar
    21    23    22    1
    22    24    22   ar
    23    25    24    1
    24    26     5   ar
    25    27    26    1
    26    28    29    1
    27    30    28   ar
    28    31    30    1
    29    32    30   ar
    30    33    32    1
    31    34    32   ar
    32    35    34    1
    33    36    34   ar
    34    37    28   ar
    35    38    37   ar
    36    39    38    1
    37    40    38   ar
    38    41    40   ar
    39    42    36   ar
    40    43    40   ar
    41    44    43    1
    42    45    43   ar
    43    46    45    1
    44    47    45   ar
    45    48    47    1
    46    49    41   ar
    47    50    49    1
    48    51     6    2
    49    52    59    2
    50    53     1    1
    51    54     1    1
    52    55     1    1
    53    56    69    1
    54    57    58    1
    55    59    53    2
    56    60    54   ar
    57    61    60    1
    58    62    60   ar
    59    63    62    1
    60    64    62   ar
    61    65    64    1
    62    66    64   ar
    63    67    54   ar
    64    68    57    1
    65    69    68   ar
    66    70    69   ar
    67    71    55   ar
    68    72    70   ar
    69    73    72    1
    70    74    72   ar
    71    75    74    1
    72    76    55   ar
    73    77    76    1
    74    78    79    1
    75    80    78   ar
    76    81    80    1
    77    82    80   ar
    78    83    82    1
    79    84    82   ar
    80    85    84    1
    81    86    84   ar
    82    87    78   ar
    83    88    87   ar
    84    89    88    1
    85    90    88   ar
    86    91    90   ar
    87    92    86   ar
    88    93    90   ar
    89    94    93    1
    90    95    93   ar
    91    96    95    1
    92    97    95   ar
    93    98    97    1
    94    99    91   ar
    95   100    99    1
    96   101    56    2
    97     7    51    1
    98    16    17   ar
    99    16    18   ar
   100    17    21   ar
   101    20    21   ar
   102    24    26   ar
   103    36    37   ar
   104    41    42   ar
   105    42    51    1
   106    47    49   ar
   107    57   101    1
   108    66    67   ar
   109    66    68   ar
   110    67    71   ar
   111    70    71   ar
   112    74    76   ar
   113    86    87   ar
   114    91    92   ar
   115    92   101    1
   116    97    99   ar
   117   102   103    1
   118   104   102    1
@<TRIPOS>SUBSTRUCTURE
     1 RES1        1 GROUP             0 ****  ****    0  
     2 RES2      102 GROUP             0 ****  ****    0  
@<TRIPOS>CRYSIN
   12.5057   24.0820   16.1400   90.0000   90.0000   90.0000    56     1
