@<TRIPOS>MOLECULE
ZUNWEK
   103   106     1     0     0
SMALL
NO_CHARGES
****
Generated from the CSD

@<TRIPOS>ATOM
     1 Fe1      0.0000   0.0000   0.0000   Fe        1 RES1   0.0000
     2 F1       2.2302  -1.3356   4.0914   F         1 RES1   0.0000
     3 F2       1.7451   0.1957   5.4742   F         1 RES1   0.0000
     4 F3       0.1969  -0.9774   4.6019   F         1 RES1   0.0000
     5 S1       1.1790   0.8071   3.0149   S.o2      1 RES1   0.0000
     6 P1       2.3765   0.0520  -1.0105   P.3       1 RES1   0.0000
     7 O1       4.1982  -2.3947  -0.0871   O.3       1 RES1   0.0000
     8 O2       0.3545   2.1570  -0.1291   O.3       1 RES1   0.0000
     9 O3       0.7386  -0.0851   1.9218   O.3       1 RES1   0.0000
    10 O4       2.5006   1.3256   2.8497   O.2       1 RES1   0.0000
    11 O5       0.1677   1.7070   3.4443   O.2       1 RES1   0.0000
    12 C1       6.2095  -3.5202   0.6381   C.3       1 RES1   0.0000
    13 C2       4.7394  -3.5844   0.4925   C.3       1 RES1   0.0000
    14 C3       4.0644  -1.3433   0.8318   C.3       1 RES1   0.0000
    15 C4       3.8461  -0.0299   0.0556   C.3       1 RES1   0.0000
    16 C5       2.3549   1.8176  -1.4714   C.3       1 RES1   0.0000
    17 C6       1.7034   2.6590  -0.4024   C.3       1 RES1   0.0000
    18 C7      -0.5624   3.1974   0.2267   C.3       1 RES1   0.0000
    19 C8      -1.0222   3.9636  -1.0075   C.3       1 RES1   0.0000
    20 C9       2.8629  -0.7761  -2.6065   C.3       1 RES1   0.0000
    21 C10      4.1502  -0.3074  -3.2236   C.ar      1 RES1   0.0000
    22 C11      5.3370  -0.9530  -3.0028   C.ar      1 RES1   0.0000
    23 C12      6.5127  -0.5174  -3.5464   C.ar      1 RES1   0.0000
    24 C13      6.5323   0.6158  -4.3376   C.ar      1 RES1   0.0000
    25 C14      5.3733   1.2615  -4.5763   C.ar      1 RES1   0.0000
    26 C15      4.1856   0.8049  -4.0403   C.ar      1 RES1   0.0000
    27 C16      1.3474  -0.3958   4.3481   C.3       1 RES1   0.0000
    28 H1       6.5345  -4.3561   0.9819   H         1 RES1   0.0000
    29 H2       6.4408  -2.8138   1.2447   H         1 RES1   0.0000
    30 H3       6.6086  -3.3500  -0.2177   H         1 RES1   0.0000
    31 H4       4.5076  -4.3439  -0.0646   H         1 RES1   0.0000
    32 H5       4.3395  -3.7226   1.3663   H         1 RES1   0.0000
    33 H6       4.8646  -1.2759   1.3753   H         1 RES1   0.0000
    34 H7       3.3109  -1.5114   1.4173   H         1 RES1   0.0000
    35 H8       4.6278   0.1294  -0.4970   H         1 RES1   0.0000
    36 H9       3.7941   0.6954   0.6967   H         1 RES1   0.0000
    37 H10      3.2638   2.1239  -1.6110   H         1 RES1   0.0000
    38 H11      1.8702   1.9248  -2.3047   H         1 RES1   0.0000
    39 H12      2.2351   2.6269   0.4084   H         1 RES1   0.0000
    40 H13      1.6560   3.5821  -0.6967   H         1 RES1   0.0000
    41 H14     -0.1325   3.8088   0.8453   H         1 RES1   0.0000
    42 H15     -1.3318   2.8104   0.6726   H         1 RES1   0.0000
    43 H16     -0.2654   4.3815  -1.4248   H         1 RES1   0.0000
    44 H17     -1.6566   4.6358  -0.7492   H         1 RES1   0.0000
    45 H18     -1.4337   3.3566  -1.6260   H         1 RES1   0.0000
    46 H19      2.9301  -1.7303  -2.4458   H         1 RES1   0.0000
    47 H20      2.1496  -0.6390  -3.2491   H         1 RES1   0.0000
    48 H21      5.3423  -1.7126  -2.4668   H         1 RES1   0.0000
    49 H22      7.3008  -0.9829  -3.3827   H         1 RES1   0.0000
    50 H23      7.3315   0.9265  -4.6994   H         1 RES1   0.0000
    51 H24      5.3733   2.0244  -5.1078   H         1 RES1   0.0000
    52 H25      3.3956   1.2560  -4.2340   H         1 RES1   0.0000
    53 P1B     -2.3765  -0.0520   1.0105   P.3       1 RES1   0.0000
    54 C4B     -3.8461   0.0299  -0.0556   C.3       1 RES1   0.0000
    55 C3B     -4.0644   1.3433  -0.8318   C.3       1 RES1   0.0000
    56 O1B     -4.1982   2.3947   0.0871   O.3       1 RES1   0.0000
    57 C2B     -4.7394   3.5844  -0.4925   C.3       1 RES1   0.0000
    58 C1B     -6.2095   3.5202  -0.6381   C.3       1 RES1   0.0000
    59 H1B     -6.5345   4.3561  -0.9819   H         1 RES1   0.0000
    60 H2B     -6.4408   2.8138  -1.2447   H         1 RES1   0.0000
    61 H3B     -6.6086   3.3500   0.2177   H         1 RES1   0.0000
    62 H4B     -4.5076   4.3439   0.0646   H         1 RES1   0.0000
    63 H5B     -4.3395   3.7226  -1.3663   H         1 RES1   0.0000
    64 H6B     -4.8646   1.2759  -1.3753   H         1 RES1   0.0000
    65 H7B     -3.3109   1.5114  -1.4173   H         1 RES1   0.0000
    66 H8B     -4.6278  -0.1294   0.4970   H         1 RES1   0.0000
    67 H9B     -3.7941  -0.6954  -0.6967   H         1 RES1   0.0000
    68 C5B     -2.3549  -1.8176   1.4714   C.3       1 RES1   0.0000
    69 C6B     -1.7034  -2.6590   0.4024   C.3       1 RES1   0.0000
    70 O2B     -0.3545  -2.1570   0.1291   O.3       1 RES1   0.0000
    71 O3B     -0.7386   0.0851  -1.9218   O.3       1 RES1   0.0000
    72 S1B     -1.1790  -0.8071  -3.0149   S.o2      1 RES1   0.0000
    73 O4B     -2.5006  -1.3256  -2.8497   O.2       1 RES1   0.0000
    74 O5B     -0.1677  -1.7070  -3.4443   O.2       1 RES1   0.0000
    75 C16B    -1.3474   0.3958  -4.3481   C.3       1 RES1   0.0000
    76 F1B     -2.2302   1.3356  -4.0914   F         1 RES1   0.0000
    77 F2B     -1.7451  -0.1957  -5.4742   F         1 RES1   0.0000
    78 F3B     -0.1969   0.9774  -4.6019   F         1 RES1   0.0000
    79 C7B      0.5624  -3.1974  -0.2267   C.3       1 RES1   0.0000
    80 C8B      1.0222  -3.9636   1.0075   C.3       1 RES1   0.0000
    81 H16B     0.2654  -4.3815   1.4248   H         1 RES1   0.0000
    82 H17B     1.6566  -4.6358   0.7492   H         1 RES1   0.0000
    83 H18B     1.4337  -3.3566   1.6260   H         1 RES1   0.0000
    84 H14B     0.1325  -3.8088  -0.8453   H         1 RES1   0.0000
    85 H15B     1.3318  -2.8104  -0.6726   H         1 RES1   0.0000
    86 H12B    -2.2351  -2.6269  -0.4084   H         1 RES1   0.0000
    87 H13B    -1.6560  -3.5821   0.6967   H         1 RES1   0.0000
    88 H10B    -3.2638  -2.1239   1.6110   H         1 RES1   0.0000
    89 H11B    -1.8702  -1.9248   2.3047   H         1 RES1   0.0000
    90 C9B     -2.8629   0.7761   2.6065   C.3       1 RES1   0.0000
    91 C10B    -4.1502   0.3074   3.2236   C.ar      1 RES1   0.0000
    92 C11B    -5.3370   0.9530   3.0028   C.ar      1 RES1   0.0000
    93 C12B    -6.5127   0.5174   3.5464   C.ar      1 RES1   0.0000
    94 C13B    -6.5323  -0.6158   4.3376   C.ar      1 RES1   0.0000
    95 C14B    -5.3733  -1.2615   4.5763   C.ar      1 RES1   0.0000
    96 C15B    -4.1856  -0.8049   4.0403   C.ar      1 RES1   0.0000
    97 H25B    -3.3956  -1.2560   4.2340   H         1 RES1   0.0000
    98 H24B    -5.3733  -2.0244   5.1078   H         1 RES1   0.0000
    99 H23B    -7.3315  -0.9265   4.6994   H         1 RES1   0.0000
   100 H22B    -7.3008   0.9829   3.3827   H         1 RES1   0.0000
   101 H21B    -5.3423   1.7126   2.4668   H         1 RES1   0.0000
   102 H19B    -2.9301   1.7303   2.4458   H         1 RES1   0.0000
   103 H20B    -2.1496   0.6390   3.2491   H         1 RES1   0.0000
@<TRIPOS>BOND
     1     1     6    1
     2     2    27    1
     3     3    27    1
     4     4    27    1
     5     5     9    1
     6     6    15    1
     7     7    13    1
     8     8     1    1
     9     9     1    1
    10    10     5    2
    11    11     5    2
    12    12    13    1
    13    13    31    1
    14    14     7    1
    15    15    14    1
    16    16     6    1
    17    17     8    1
    18    18     8    1
    19    19    18    1
    20    20     6    1
    21    21    20    1
    22    22    21   ar
    23    23    22   ar
    24    24    23   ar
    25    25    24   ar
    26    26    21   ar
    27    27     5    1
    28    28    12    1
    29    29    12    1
    30    30    12    1
    31    32    13    1
    32    33    14    1
    33    34    14    1
    34    35    15    1
    35    36    15    1
    36    37    16    1
    37    38    16    1
    38    39    17    1
    39    40    17    1
    40    41    18    1
    41    42    18    1
    42    43    19    1
    43    44    19    1
    44    45    19    1
    45    46    20    1
    46    47    20    1
    47    48    22    1
    48    49    23    1
    49    50    24    1
    50    51    25    1
    51    52    26    1
    52    53     1    1
    53    54    53    1
    54    55    54    1
    55    56    55    1
    56    57    56    1
    57    58    57    1
    58    59    58    1
    59    60    58    1
    60    61    58    1
    61    62    57    1
    62    63    57    1
    63    64    55    1
    64    65    55    1
    65    66    54    1
    66    67    54    1
    67    68    53    1
    68    69    68    1
    69    70     1    1
    70    71     1    1
    71    72    71    1
    72    73    72    2
    73    74    72    2
    74    75    72    1
    75    76    75    1
    76    77    75    1
    77    78    75    1
    78    79    70    1
    79    80    79    1
    80    81    80    1
    81    82    80    1
    82    83    80    1
    83    84    79    1
    84    85    79    1
    85    86    69    1
    86    87    69    1
    87    88    68    1
    88    89    68    1
    89    90    53    1
    90    91    90    1
    91    92    91   ar
    92    93    92   ar
    93    94    93   ar
    94    95    94   ar
    95    96    91   ar
    96    97    96    1
    97    98    95    1
    98    99    94    1
    99   100    93    1
   100   101    92    1
   101   102    90    1
   102   103    90    1
   103    16    17    1
   104    25    26   ar
   105    69    70    1
   106    95    96   ar
@<TRIPOS>SUBSTRUCTURE
     1 RES1        1 GROUP             0 ****  ****    0  
@<TRIPOS>CRYSIN
   12.2500   11.0560   15.2670   90.0000  100.4410   90.0000    14     1
