@<TRIPOS>MOLECULE
ABAXIK
    84    89     2     0     0
SMALL
USER_CHARGES
****
Generated from the CSD

@<TRIPOS>ATOM
     1 I1       7.0091   0.7163   1.3745   I         1 RES1   0.0000
     2 Fe1      7.8125  -1.7022   2.1121   Fe        1 RES1   1.0000
     3 O1      10.4537  -0.6805   1.3384   O.2       1 RES1   0.0000
     4 O2       7.3537  -2.3110  -0.7105   O.2       1 RES1   0.0000
     5 N1       8.4997  -3.5308   2.6498   N.3       1 RES1   0.0000
     6 N2       5.9700  -2.4396   2.7069   N.3       1 RES1   0.0000
     7 N3       8.0326  -1.2219   4.1129   N.3       1 RES1   0.0000
     8 C1       9.4235  -1.0681   1.6569   C.1       1 RES1   0.0000
     9 C2       7.5057  -2.1172   0.3951   C.1       1 RES1   0.0000
    10 C3       7.3650  -4.4515   3.0434   C.3       1 RES1   0.0000
    11 C4       6.0810  -3.9037   2.4861   C.3       1 RES1   0.0000
    12 C5       5.7527  -2.1636   4.1745   C.3       1 RES1   0.0000
    13 C6       6.6152  -1.0091   4.5936   C.3       1 RES1   0.0000
    14 C7       8.6497  -2.4080   4.8205   C.3       1 RES1   0.0000
    15 C8       9.3899  -3.2738   3.8410   C.3       1 RES1   0.0000
    16 C9       9.3277  -4.2345   1.5953   C.3       1 RES1   0.0000
    17 C10      4.7642  -1.9613   1.8912   C.3       1 RES1   0.0000
    18 C11      8.8163  -0.0442   4.4194   C.3       1 RES1   0.0000
    19 H1       7.3068  -4.5104   4.0303   H         1 RES1   0.0000
    20 H2       7.5281  -5.3594   2.6859   H         1 RES1   0.0000
    21 H3       6.0386  -4.0933   1.5157   H         1 RES1   0.0000
    22 H4       5.3160  -4.3588   2.9202   H         1 RES1   0.0000
    23 H5       4.8006  -1.9487   4.3383   H         1 RES1   0.0000
    24 H6       5.9849  -2.9683   4.7048   H         1 RES1   0.0000
    25 H7       6.2571  -0.1706   4.2121   H         1 RES1   0.0000
    26 H8       6.6067  -0.9291   5.5806   H         1 RES1   0.0000
    27 H9       9.2742  -2.0898   5.5190   H         1 RES1   0.0000
    28 H10      7.9396  -2.9388   5.2606   H         1 RES1   0.0000
    29 H11      9.6387  -4.1312   4.2692   H         1 RES1   0.0000
    30 H12     10.2199  -2.8188   3.5496   H         1 RES1   0.0000
    31 H13      9.6167  -5.1066   1.9348   H         1 RES1   0.0000
    32 H14     10.1133  -3.6888   1.3820   H         1 RES1   0.0000
    33 H15      8.7882  -4.3609   0.7871   H         1 RES1   0.0000
    34 H16      3.9460  -2.3637   2.2518   H         1 RES1   0.0000
    35 H17      4.8748  -2.2289   0.9554   H         1 RES1   0.0000
    36 H18      4.6994  -0.9838   1.9468   H         1 RES1   0.0000
    37 H19      8.8401   0.0885   5.3898   H         1 RES1   0.0000
    38 H20      8.4090   0.7373   3.9913   H         1 RES1   0.0000
    39 H21      9.7286  -0.1622   4.0829   H         1 RES1   0.0000
    40 B1       2.9075  -7.5230   2.2382   B         2 RES2  -1.0000
    41 C12      3.5160  -6.8236   3.6262   C.ar      2 RES2   0.0000
    42 C13      4.6460  -7.3313   4.2496   C.ar      2 RES2   0.0000
    43 C14      5.2720  -6.6424   5.3297   C.ar      2 RES2   0.0000
    44 C15      4.7589  -5.4732   5.7578   C.ar      2 RES2   0.0000
    45 C16      3.6255  -4.9149   5.1660   C.ar      2 RES2   0.0000
    46 C17      3.0160  -5.6101   4.0979   C.ar      2 RES2   0.0000
    47 C18      3.6436  -6.7372   1.0470   C.ar      2 RES2   0.0000
    48 C19      3.1084  -5.6544   0.3320   C.ar      2 RES2   0.0000
    49 C20      3.8199  -4.8939  -0.5753   C.ar      2 RES2   0.0000
    50 C21      5.1416  -5.2330  -0.8082   C.ar      2 RES2   0.0000
    51 C22      5.7664  -6.2506  -0.1382   C.ar      2 RES2   0.0000
    52 C23      5.0290  -6.9858   0.7631   C.ar      2 RES2   0.0000
    53 C24      3.1780  -9.1452   2.2487   C.ar      2 RES2   0.0000
    54 C25      3.5106  -9.8741   1.0816   C.ar      2 RES2   0.0000
    55 C26      3.6271 -11.2245   1.0380   C.ar      2 RES2   0.0000
    56 C27      3.3713 -11.9892   2.1962   C.ar      2 RES2   0.0000
    57 C28      3.0315 -11.2961   3.3573   C.ar      2 RES2   0.0000
    58 C29      2.9568  -9.9478   3.3558   C.ar      2 RES2   0.0000
    59 C30      1.2592  -7.4683   2.1601   C.ar      2 RES2   0.0000
    60 C31      0.3824  -7.4156   3.2252   C.ar      2 RES2   0.0000
    61 C32     -1.0022  -7.5673   3.0975   C.ar      2 RES2   0.0000
    62 C33     -1.5561  -7.7969   1.8507   C.ar      2 RES2   0.0000
    63 C34     -0.7392  -7.8896   0.7661   C.ar      2 RES2   0.0000
    64 C35      0.6549  -7.7253   0.8728   C.ar      2 RES2   0.0000
    65 H22      5.0117  -8.1571   3.9507   H         2 RES2   0.0000
    66 H23      6.0453  -7.0048   5.7458   H         2 RES2   0.0000
    67 H24      5.1780  -5.0182   6.4774   H         2 RES2   0.0000
    68 H25      3.2732  -4.0891   5.4739   H         2 RES2   0.0000
    69 H26      2.2426  -5.2415   3.6893   H         2 RES2   0.0000
    70 H27      2.1969  -5.4311   0.4807   H         2 RES2   0.0000
    71 H28      3.4159  -4.1607  -1.0230   H         2 RES2   0.0000
    72 H29      5.6330  -4.7443  -1.4571   H         2 RES2   0.0000
    73 H30      6.6841  -6.4423  -0.2899   H         2 RES2   0.0000
    74 H31      5.4610  -7.6979   1.2198   H         2 RES2   0.0000
    75 H32      3.6624  -9.3875   0.2794   H         2 RES2   0.0000
    76 H33      3.8805 -11.6564   0.2298   H         2 RES2   0.0000
    77 H34      3.4284 -12.9372   2.1857   H         2 RES2   0.0000
    78 H35      2.8506 -11.7765   4.1565   H         2 RES2   0.0000
    79 H36      2.7365  -9.5202   4.1730   H         2 RES2   0.0000
    80 H37      0.7399  -7.2681   4.0919   H         2 RES2   0.0000
    81 H38     -1.5600  -7.5104   3.8651   H         2 RES2   0.0000
    82 H39     -2.4963  -7.8875   1.7530   H         2 RES2   0.0000
    83 H40     -1.1196  -8.0708  -0.0856   H         2 RES2   0.0000
    84 H41      1.2004  -7.7821   0.0976   H         2 RES2   0.0000
@<TRIPOS>BOND
     1     1     2    1
     2     2     5    1
     3     3     8    3
     4     4     9    3
     5     5    10    1
     6     6     2    1
     7     7     2    1
     8     8     2    1
     9     9     2    1
    10    10    11    1
    11    11     6    1
    12    12     6    1
    13    13     7    1
    14    14     7    1
    15    15     5    1
    16    16     5    1
    17    17     6    1
    18    18     7    1
    19    19    10    1
    20    20    10    1
    21    21    11    1
    22    22    11    1
    23    23    12    1
    24    24    12    1
    25    25    13    1
    26    26    13    1
    27    27    14    1
    28    28    14    1
    29    29    15    1
    30    30    15    1
    31    31    16    1
    32    32    16    1
    33    33    16    1
    34    34    17    1
    35    35    17    1
    36    36    17    1
    37    37    18    1
    38    38    18    1
    39    39    18    1
    40    12    13    1
    41    14    15    1
    42    40    41    1
    43    41    42   ar
    44    42    43   ar
    45    43    44   ar
    46    44    45   ar
    47    45    46   ar
    48    46    41   ar
    49    47    40    1
    50    48    47   ar
    51    49    48   ar
    52    50    49   ar
    53    51    50   ar
    54    52    47   ar
    55    53    40    1
    56    54    53   ar
    57    55    54   ar
    58    56    55   ar
    59    57    56   ar
    60    58    53   ar
    61    59    40    1
    62    60    59   ar
    63    61    60   ar
    64    62    61   ar
    65    63    62   ar
    66    64    59   ar
    67    65    42    1
    68    66    43    1
    69    67    44    1
    70    68    45    1
    71    69    46    1
    72    70    48    1
    73    71    49    1
    74    72    50    1
    75    73    51    1
    76    74    52    1
    77    75    54    1
    78    76    55    1
    79    77    56    1
    80    78    57    1
    81    79    58    1
    82    80    60    1
    83    81    61    1
    84    82    62    1
    85    83    63    1
    86    84    64    1
    87    51    52   ar
    88    57    58   ar
    89    63    64   ar
@<TRIPOS>SUBSTRUCTURE
     1 RES1        1 GROUP             0 ****  ****    0  
     2 RES2       40 GROUP             0 ****  ****    0  
@<TRIPOS>CRYSIN
   10.3651   21.0670   15.0224   90.0000   90.5540   90.0000   231     1
