@<TRIPOS>MOLECULE
ABEXOV
   122   132     2     0     0
SMALL
NO_CHARGES
****
Generated from the CSD

@<TRIPOS>ATOM
     1 H1       2.8317   7.1717   6.7023   H         1 RES1   0.0000
     2 H2       2.9190   7.6032   8.1966   H         1 RES1   0.0000
     3 H3       5.7994   6.9525  12.5236   H         1 RES1   0.0000
     4 H4       3.1515   1.0069   9.1780   H         1 RES1   0.0000
     5 C1       3.2309   6.9360   7.5181   C.3       1 RES1   0.0000
     6 C2       4.6959   7.0450   7.5431   C.ar      1 RES1   0.0000
     7 C3       5.3473   7.9878   6.7334   C.ar      1 RES1   0.0000
     8 H5       4.8436   8.5245   6.1324   H         1 RES1   0.0000
     9 C4       6.7121   8.1378   6.8079   C.ar      1 RES1   0.0000
    10 H6       7.1635   8.7711   6.2629   H         1 RES1   0.0000
    11 C5       7.4146   7.3364   7.7046   C.ar      1 RES1   0.0000
    12 H7       8.3571   7.4183   7.7874   H         1 RES1   0.0000
    13 C6       6.7229   6.4240   8.4700   C.ar      1 RES1   0.0000
    14 H8       7.2157   5.8874   9.0787   H         1 RES1   0.0000
    15 C7       2.3706   4.3444   6.6530   C.ar      1 RES1   0.0000
    16 C8       1.3934   3.3468   6.5808   C.ar      1 RES1   0.0000
    17 H9       0.8378   3.1749   7.3324   H         1 RES1   0.0000
    18 C9       1.2297   2.6032   5.4198   C.ar      1 RES1   0.0000
    19 H10      0.5628   1.9282   5.3819   H         1 RES1   0.0000
    20 C10      2.0313   2.8413   4.3188   C.ar      1 RES1   0.0000
    21 H11      1.9131   2.3358   3.5229   H         1 RES1   0.0000
    22 C11      3.0069   3.8208   4.3825   C.ar      1 RES1   0.0000
    23 H12      3.5596   3.9900   3.6288   H         1 RES1   0.0000
    24 C12      3.1793   4.5564   5.5438   C.ar      1 RES1   0.0000
    25 H13      3.8611   5.2161   5.5826   H         1 RES1   0.0000
    26 C13      0.9347   5.7438   8.6711   C.ar      1 RES1   0.0000
    27 C14      0.3383   6.9819   8.4363   C.ar      1 RES1   0.0000
    28 H14      0.8177   7.6580   7.9714   H         1 RES1   0.0000
    29 C15     -0.9559   7.2333   8.8802   C.ar      1 RES1   0.0000
    30 H15     -1.3547   8.0793   8.7174   H         1 RES1   0.0000
    31 C16     -1.6650   6.2600   9.5538   C.ar      1 RES1   0.0000
    32 H16     -2.5405   6.4422   9.8728   H         1 RES1   0.0000
    33 C17     -1.0979   5.0188   9.7629   C.ar      1 RES1   0.0000
    34 H17     -1.5913   4.3393  10.2062   H         1 RES1   0.0000
    35 C18      0.1931   4.7674   9.3246   C.ar      1 RES1   0.0000
    36 H18      0.5784   3.9112   9.4735   H         1 RES1   0.0000
    37 C19      5.5845   6.3559  11.8672   C.2       1 RES1   0.0000
    38 C20      6.4594   5.3390  11.5182   C.2       1 RES1   0.0000
    39 C21      7.7310   5.1818  12.1669   C.2       1 RES1   0.0000
    40 H19      8.0109   5.8257  12.8079   H         1 RES1   0.0000
    41 C22      8.5414   4.1307  11.8799   C.2       1 RES1   0.0000
    42 H20      9.3704   4.0276  12.3317   H         1 RES1   0.0000
    43 C23      8.1404   3.1981  10.9049   C.2       1 RES1   0.0000
    44 H21      8.6811   2.4454  10.6958   H         1 RES1   0.0000
    45 C24      6.9427   3.4077  10.2652   C.2       1 RES1   0.0000
    46 H22      6.6816   2.7810   9.5995   H         1 RES1   0.0000
    47 C25      3.7466   8.1200  10.6412   C.ar      1 RES1   0.0000
    48 C26      4.8449   8.8255  10.1379   C.ar      1 RES1   0.0000
    49 H23      5.6780   8.3807  10.0345   H         1 RES1   0.0000
    50 C27      4.7380  10.1612   9.7876   C.ar      1 RES1   0.0000
    51 H24      5.4900  10.6171   9.4267   H         1 RES1   0.0000
    52 C28      3.5440  10.8356   9.9609   C.ar      1 RES1   0.0000
    53 H25      3.4759  11.7576   9.7378   H         1 RES1   0.0000
    54 C29      2.4530  10.1571  10.4616   C.ar      1 RES1   0.0000
    55 H26      1.6305  10.6171  10.5865   H         1 RES1   0.0000
    56 C30      2.5454   8.8081  10.7829   C.ar      1 RES1   0.0000
    57 H27      1.7781   8.3498  11.1039   H         1 RES1   0.0000
    58 C31      2.7543   6.2168  12.4477   C.ar      1 RES1   0.0000
    59 C32      1.3839   6.1857  12.1834   C.ar      1 RES1   0.0000
    60 H28      1.0802   6.1887  11.2835   H         1 RES1   0.0000
    61 C33      0.4599   6.1500  13.2205   C.ar      1 RES1   0.0000
    62 H29     -0.4703   6.1374  13.0254   H         1 RES1   0.0000
    63 C34      0.8855   6.1312  14.5353   C.ar      1 RES1   0.0000
    64 H30      0.2528   6.1168  15.2435   H         1 RES1   0.0000
    65 C35      2.2425   6.1333  14.8108   C.ar      1 RES1   0.0000
    66 H31      2.5406   6.1031  15.7130   H         1 RES1   0.0000
    67 C36      3.1719   6.1802  13.7784   C.ar      1 RES1   0.0000
    68 H32      4.0998   6.1887  13.9811   H         1 RES1   0.0000
    69 C37      3.4354   1.8357   9.1287   C.2       1 RES1   0.0000
    70 C38      4.2870   2.1508   8.0670   C.2       1 RES1   0.0000
    71 C39      4.5114   1.2350   6.9952   C.2       1 RES1   0.0000
    72 H33      4.0428   0.4076   6.9811   H         1 RES1   0.0000
    73 C40      5.3821   1.5251   5.9975   C.2       1 RES1   0.0000
    74 H34      5.5182   0.9144   5.2815   H         1 RES1   0.0000
    75 C41      6.0804   2.7416   6.0373   C.2       1 RES1   0.0000
    76 H35      6.7296   2.9557   5.3763   H         1 RES1   0.0000
    77 C42      5.7992   3.6122   7.0569   C.2       1 RES1   0.0000
    78 H36      6.2626   4.4421   7.0647   H         1 RES1   0.0000
    79 C43      1.8636   2.5847  11.3528   C.ar      1 RES1   0.0000
    80 C44      0.8812   1.8124  10.7281   C.ar      1 RES1   0.0000
    81 H37      1.0187   1.5035   9.8404   H         1 RES1   0.0000
    82 C45     -0.3029   1.4891  11.3961   C.ar      1 RES1   0.0000
    83 H38     -0.9644   0.9658  10.9589   H         1 RES1   0.0000
    84 C46     -0.5168   1.9234  12.6819   C.ar      1 RES1   0.0000
    85 H39     -1.3267   1.7056  13.1313   H         1 RES1   0.0000
    86 C47      0.4452   2.6765  13.3187   C.ar      1 RES1   0.0000
    87 H40      0.3021   2.9728  14.2097   H         1 RES1   0.0000
    88 C48      1.6263   3.0026  12.6621   C.ar      1 RES1   0.0000
    89 H41      2.2831   3.5208  13.1135   H         1 RES1   0.0000
    90 C49      4.5712   2.1775  11.7925   C.ar      1 RES1   0.0000
    91 C50      5.1102   0.9062  11.6169   C.ar      1 RES1   0.0000
    92 H42      4.8929   0.4041  10.8396   H         1 RES1   0.0000
    93 C51      5.9652   0.3630  12.5737   C.ar      1 RES1   0.0000
    94 H43      6.3314  -0.5035  12.4410   H         1 RES1   0.0000
    95 C52      6.2836   1.0751  13.7146   C.ar      1 RES1   0.0000
    96 H44      6.8604   0.6987  14.3692   H         1 RES1   0.0000
    97 C53      5.7553   2.3412  13.8963   C.ar      1 RES1   0.0000
    98 H45      5.9691   2.8358  14.6781   H         1 RES1   0.0000
    99 C54      4.9129   2.8868  12.9399   C.ar      1 RES1   0.0000
   100 H46      4.5631   3.7605  13.0700   H         1 RES1   0.0000
   101 Fe1      4.3751   4.7736   9.4973   Fe        1 RES1   0.0000
   102 N1       5.3757   6.2459   8.4072   N.ar      1 RES1   0.0000
   103 N2       6.1066   4.4462  10.5188   N.2       1 RES1   0.0000
   104 N3       4.9129   3.3841   8.0538   N.2       1 RES1   0.0000
   105 P1       2.6546   5.3462   8.1722   P.3       1 RES1   0.0000
   106 P2       4.0144   6.3459  11.1004   P.3       1 RES1   0.0000
   107 P3       3.4750   2.9285  10.5043   P.3       1 RES1   0.0000
   108 O1       7.1237  15.0753   1.4865   O.3       2 RES2   0.0000
   109 C55      6.0574  14.1516   1.6639   C.3       2 RES2   0.0000
   110 H47      5.1912  14.5968   1.4910   H         2 RES2   0.0000
   111 H48      6.0548  13.8125   2.5939   H         2 RES2   0.0000
   112 C56      6.9640  16.1287   2.3452   C.3       2 RES2   0.0000
   113 H49      7.0998  15.8229   3.2775   H         2 RES2   0.0000
   114 H50      6.0456  16.4907   2.2672   H         2 RES2   0.0000
   115 C57      6.2474  13.0111   0.7048   C.3       2 RES2   0.0000
   116 H51      5.5562  12.3364   0.8598   H         2 RES2   0.0000
   117 H52      7.1317  12.6138   0.8420   H         2 RES2   0.0000
   118 H53      6.1780  13.3433  -0.2152   H         2 RES2   0.0000
   119 C58      7.9713  17.2100   2.0085   C.3       2 RES2   0.0000
   120 H54      7.9883  17.8778   2.7266   H         2 RES2   0.0000
   121 H55      7.7163  17.6449   1.1676   H         2 RES2   0.0000
   122 H56      8.8608  16.8093   1.9125   H         2 RES2   0.0000
@<TRIPOS>BOND
     1     1     5    1
     2     2     5    1
     3     3    37    1
     4     4    69    1
     5     5     6    1
     6     6     7   ar
     7     7     8    1
     8     9     7   ar
     9    10     9    1
    10    11     9   ar
    11    12    11    1
    12    13    11   ar
    13    14    13    1
    14    15    16   ar
    15    16    17    1
    16    18    16   ar
    17    19    18    1
    18    20    18   ar
    19    21    20    1
    20    22    20   ar
    21    23    22    1
    22    24    15   ar
    23    25    24    1
    24    26    27   ar
    25    27    28    1
    26    29    27   ar
    27    30    29    1
    28    31    29   ar
    29    32    31    1
    30    33    31   ar
    31    34    33    1
    32    35    26   ar
    33    36    35    1
    34    37    38    2
    35    38    39    1
    36    39    40    1
    37    41    39    2
    38    42    41    1
    39    43    41    1
    40    44    43    1
    41    45    43    2
    42    46    45    1
    43    47    48   ar
    44    48    49    1
    45    50    48   ar
    46    51    50    1
    47    52    50   ar
    48    53    52    1
    49    54    52   ar
    50    55    54    1
    51    56    47   ar
    52    57    56    1
    53    58    59   ar
    54    59    60    1
    55    61    59   ar
    56    62    61    1
    57    63    61   ar
    58    64    63    1
    59    65    63   ar
    60    66    65    1
    61    67    58   ar
    62    68    67    1
    63    69    70    2
    64    70    71    1
    65    71    72    1
    66    73    71    2
    67    74    73    1
    68    75    73    1
    69    76    75    1
    70    77    75    2
    71    78    77    1
    72    79    80   ar
    73    80    81    1
    74    82    80   ar
    75    83    82    1
    76    84    82   ar
    77    85    84    1
    78    86    84   ar
    79    87    86    1
    80    88    79   ar
    81    89    88    1
    82    90    91   ar
    83    91    92    1
    84    93    91   ar
    85    94    93    1
    86    95    93   ar
    87    96    95    1
    88    97    95   ar
    89    98    97    1
    90    99    90   ar
    91   100    99    1
    92   101   102    1
    93   102     6   ar
    94   103    38    1
    95   104    70    1
    96   105     5    1
    97   106    37    1
    98   107    69    1
    99    13   102   ar
   100    15   105    1
   101    22    24   ar
   102    26   105    1
   103    33    35   ar
   104    45   103    1
   105    47   106    1
   106    54    56   ar
   107    58   106    1
   108    65    67   ar
   109    77   104    1
   110    79   107    1
   111    86    88   ar
   112    90   107    1
   113    97    99   ar
   114   101   103    1
   115   101   104    1
   116   101   105    1
   117   101   106    1
   118   101   107    1
   119   108   109    1
   120   109   110    1
   121   111   109    1
   122   112   108    1
   123   113   112    1
   124   114   112    1
   125   115   109    1
   126   116   115    1
   127   117   115    1
   128   118   115    1
   129   119   112    1
   130   120   119    1
   131   121   119    1
   132   122   119    1
@<TRIPOS>SUBSTRUCTURE
     1 RES1        1 GROUP             0 ****  ****    0  
     2 RES2      108 GROUP             0 ****  ****    0  
@<TRIPOS>CRYSIN
   12.2328   34.2487   12.3396   90.0000  115.3450   90.0000   231     1
