@<TRIPOS>MOLECULE
ABITUC
    59    63     2     0     0
SMALL
NO_CHARGES
****
Generated from the CSD

@<TRIPOS>ATOM
     1 Fe1     10.2530   7.7400   4.1771   Fe        1 RES1   0.0000
     2 S1       9.2671  11.5207   1.4780   S.2       1 RES1   0.0000
     3 S2      14.7647   7.7736   2.6807   S.2       1 RES1   0.0000
     4 N1      10.6770   8.8098   5.8010   N.ar      1 RES1   0.0000
     5 N2       8.3194   7.6020   4.5614   N.ar      1 RES1   0.0000
     6 N3       9.9082   6.2945   2.8709   N.ar      1 RES1   0.0000
     7 N4      10.4234   6.2146   5.4575   N.3       1 RES1   0.0000
     8 N5      10.0089   9.2678   2.9966   N.2       1 RES1   0.0000
     9 N6      12.1529   7.6723   3.7028   N.2       1 RES1   0.0000
    10 C1      10.5126  10.1319   6.0111   C.ar      1 RES1   0.0000
    11 H1      10.1226  10.6438   5.3387   H         1 RES1   0.0000
    12 C2      10.8970  10.7580   7.1753   C.ar      1 RES1   0.0000
    13 H2      10.7948  11.6773   7.2756   H         1 RES1   0.0000
    14 C3      11.4396   9.9937   8.1945   C.ar      1 RES1   0.0000
    15 H3      11.6993  10.3890   8.9952   H         1 RES1   0.0000
    16 C4      11.5872   8.6393   8.0006   C.ar      1 RES1   0.0000
    17 H4      11.9360   8.1057   8.6777   H         1 RES1   0.0000
    18 C5      11.2152   8.0757   6.7972   C.ar      1 RES1   0.0000
    19 C6      11.4132   6.6216   6.4754   C.3       1 RES1   0.0000
    20 H5      12.3105   6.4774   6.1382   H         1 RES1   0.0000
    21 H6      11.2991   6.0880   7.2773   H         1 RES1   0.0000
    22 C7       7.3302   8.2704   3.9444   C.ar      1 RES1   0.0000
    23 H7       7.5489   8.9998   3.4120   H         1 RES1   0.0000
    24 C8       6.0036   7.9147   4.0690   C.ar      1 RES1   0.0000
    25 H8       5.3423   8.4098   3.6412   H         1 RES1   0.0000
    26 C9       5.6685   6.8211   4.8346   C.ar      1 RES1   0.0000
    27 H9       4.7825   6.5531   4.9143   H         1 RES1   0.0000
    28 C10      6.6731   6.1289   5.4818   C.ar      1 RES1   0.0000
    29 H10      6.4726   5.3862   6.0041   H         1 RES1   0.0000
    30 C11      7.9792   6.5555   5.3426   C.ar      1 RES1   0.0000
    31 C12      9.1040   5.9498   6.1051   C.3       1 RES1   0.0000
    32 H11      8.9669   4.9920   6.1705   H         1 RES1   0.0000
    33 H12      9.1115   6.3127   7.0040   H         1 RES1   0.0000
    34 C13      9.3347   6.3860   1.6610   C.ar      1 RES1   0.0000
    35 H13      9.1058   7.2273   1.3376   H         1 RES1   0.0000
    36 C14      9.0736   5.2841   0.8814   C.ar      1 RES1   0.0000
    37 H14      8.6920   5.3850   0.0390   H         1 RES1   0.0000
    38 C15      9.3838   4.0282   1.3584   C.ar      1 RES1   0.0000
    39 H15      9.2190   3.2735   0.8420   H         1 RES1   0.0000
    40 C16      9.9394   3.9093   2.6122   C.ar      1 RES1   0.0000
    41 H16     10.1319   3.0716   2.9673   H         1 RES1   0.0000
    42 C17     10.2057   5.0533   3.3304   C.ar      1 RES1   0.0000
    43 C18     10.8939   5.0461   4.6582   C.3       1 RES1   0.0000
    44 H17     10.6925   4.2217   5.1282   H         1 RES1   0.0000
    45 H18     11.8539   5.0978   4.5324   H         1 RES1   0.0000
    46 C19      9.7306  10.2088   2.3641   C.1       1 RES1   0.0000
    47 C20     13.2326   7.6875   3.2723   C.1       1 RES1   0.0000
    48 C21      5.6978   9.7028  -0.2699   C.3       2 RES2   0.0000
    49 H19      6.0364  10.5116   0.1222   H         2 RES2   0.0000
    50 H20      5.1928   9.2161   0.3853   H         2 RES2   0.0000
    51 H21      5.1305   9.9204  -1.0134   H         2 RES2   0.0000
    52 C22      6.8900   8.8268  -0.7656   C.3       2 RES2   0.0000
    53 H22      7.1238   9.3495  -1.5600   H         2 RES2   0.0000
    54 O1       8.0982   8.8472  -0.1667   O.3       2 RES2   0.0000
    55 H23      8.2542   9.5923   0.2105   H         2 RES2   0.0000
    56 C23      6.6355   7.5313  -1.4381   C.3       2 RES2   0.0000
    57 H24      7.4355   7.2369  -1.8792   H         2 RES2   0.0000
    58 H25      5.9345   7.6395  -2.0846   H         2 RES2   0.0000
    59 H26      6.3713   6.8788  -0.7860   H         2 RES2   0.0000
@<TRIPOS>BOND
     1     1     4    1
     2     2    46    2
     3     3    47    2
     4     4    10   ar
     5     5     1    1
     6     6     1    1
     7     7     1    1
     8     8     1    1
     9     9     1    1
    10    10    11    1
    11    12    10   ar
    12    13    12    1
    13    14    12   ar
    14    15    14    1
    15    16    14   ar
    16    17    16    1
    17    18     4   ar
    18    19     7    1
    19    20    19    1
    20    21    19    1
    21    22     5   ar
    22    23    22    1
    23    24    22   ar
    24    25    24    1
    25    26    24   ar
    26    27    26    1
    27    28    26   ar
    28    29    28    1
    29    30     5   ar
    30    31     7    1
    31    32    31    1
    32    33    31    1
    33    34     6   ar
    34    35    34    1
    35    36    34   ar
    36    37    36    1
    37    38    36   ar
    38    39    38    1
    39    40    38   ar
    40    41    40    1
    41    42     6   ar
    42    43     7    1
    43    44    43    1
    44    45    43    1
    45    46     8    2
    46    47     9    2
    47    16    18   ar
    48    18    19    1
    49    28    30   ar
    50    30    31    1
    51    40    42   ar
    52    42    43    1
    53    48    49    1
    54    50    48    1
    55    51    48    1
    56    52    48    1
    57    53    52    1
    58    54    52    1
    59    55    54    1
    60    56    52    1
    61    57    56    1
    62    58    56    1
    63    59    56    1
@<TRIPOS>SUBSTRUCTURE
     1 RES1        1 GROUP             0 ****  ****    0  
     2 RES2       48 GROUP             0 ****  ****    0  
@<TRIPOS>CRYSIN
   12.0961   12.0174   16.9756   90.0000   90.3700   90.0000    14     1
