@<TRIPOS>MOLECULE
ABITEM
    59    63     2     0     0
SMALL
NO_CHARGES
****
Generated from the CSD

@<TRIPOS>ATOM
     1 Fe1      7.3058  -1.9676  12.9984   Fe        1 RES1   0.0000
     2 S1       8.4172  -5.7983  10.2776   S.2       1 RES1   0.0000
     3 S2       2.7276  -1.6761  11.4116   S.2       1 RES1   0.0000
     4 N1       6.7401  -2.8595  14.9154   N.ar      1 RES1   0.0000
     5 N2       9.4325  -1.7971  13.5439   N.ar      1 RES1   0.0000
     6 N3       7.8406  -0.2176  11.7727   N.ar      1 RES1   0.0000
     7 N4       7.2792  -0.2609  14.4452   N.3       1 RES1   0.0000
     8 N5       7.6252  -3.6349  11.8266   N.2       1 RES1   0.0000
     9 N6       5.2878  -1.6695  12.4555   N.2       1 RES1   0.0000
    10 C1       6.7753  -4.1711  15.2353   C.ar      1 RES1   0.0000
    11 H1       7.1220  -4.7696  14.6147   H         1 RES1   0.0000
    12 C2       6.3243  -4.6587  16.4257   C.ar      1 RES1   0.0000
    13 H2       6.3575  -5.5709  16.6063   H         1 RES1   0.0000
    14 C3       5.8150  -3.7692  17.3628   C.ar      1 RES1   0.0000
    15 H3       5.4863  -4.0733  18.1773   H         1 RES1   0.0000
    16 C4       5.8073  -2.4361  17.0582   C.ar      1 RES1   0.0000
    17 H4       5.4939  -1.8184  17.6772   H         1 RES1   0.0000
    18 C5       6.2649  -2.0128  15.8328   C.ar      1 RES1   0.0000
    19 C6       6.2083  -0.5580  15.4179   C.3       1 RES1   0.0000
    20 H5       5.3451  -0.3661  15.0193   H         1 RES1   0.0000
    21 H6       6.3128   0.0083  16.1998   H         1 RES1   0.0000
    22 C7      10.4432  -2.4039  12.8957   C.ar      1 RES1   0.0000
    23 H7      10.2467  -3.1456  12.3686   H         1 RES1   0.0000
    24 C8      11.7385  -1.9877  12.9729   C.ar      1 RES1   0.0000
    25 H8      12.4078  -2.4313  12.5029   H         1 RES1   0.0000
    26 C9      12.0338  -0.9062  13.7540   C.ar      1 RES1   0.0000
    27 H9      12.9111  -0.6034  13.8265   H         1 RES1   0.0000
    28 C10     11.0176  -0.2671  14.4344   C.ar      1 RES1   0.0000
    29 H10     11.2015   0.4734  14.9681   H         1 RES1   0.0000
    30 C11      9.7256  -0.7393  14.3130   C.ar      1 RES1   0.0000
    31 C12      8.5870  -0.1622  15.1091   C.3       1 RES1   0.0000
    32 H11      8.5394  -0.6224  15.9613   H         1 RES1   0.0000
    33 H12      8.7753   0.7715  15.2897   H         1 RES1   0.0000
    34 C13      8.4069  -0.2492  10.5627   C.ar      1 RES1   0.0000
    35 H13      8.5635  -1.0756  10.1649   H         1 RES1   0.0000
    36 C14      8.7674   0.8907   9.8839   C.ar      1 RES1   0.0000
    37 H14      9.1397   0.8359   9.0339   H         1 RES1   0.0000
    38 C15      8.5707   2.1106  10.4807   C.ar      1 RES1   0.0000
    39 H15      8.8128   2.8940  10.0429   H         1 RES1   0.0000
    40 C16      8.0109   2.1559  11.7326   C.ar      1 RES1   0.0000
    41 H16      7.8776   2.9715  12.1600   H         1 RES1   0.0000
    42 C17      7.6497   0.9790  12.3482   C.ar      1 RES1   0.0000
    43 C18      6.9473   0.9623  13.6781   C.3       1 RES1   0.0000
    44 H17      7.2085   1.7433  14.1888   H         1 RES1   0.0000
    45 H18      5.9884   1.0028  13.5367   H         1 RES1   0.0000
    46 C19      7.9618  -4.5419  11.1849   C.1       1 RES1   0.0000
    47 C20      4.2276  -1.6634  12.0118   C.1       1 RES1   0.0000
    48 C21     11.1663  -1.4738   7.3268   C.3       2 RES2   0.0000
    49 H19     10.3657  -1.1197   6.9327   H         2 RES2   0.0000
    50 H20     11.7563  -1.7767   6.6323   H         2 RES2   0.0000
    51 H21     11.6009  -0.7882   7.8393   H         2 RES2   0.0000
    52 C22     10.8078  -2.6555   8.2492   C.3       2 RES2   0.0000
    53 H22     10.1948  -2.3526   8.9367   H         2 RES2   0.0000
    54 H23     10.3612  -3.3447   7.7315   H         2 RES2   0.0000
    55 C23     11.8606  -3.1480   8.7988   C.3       2 RES2   0.0000
    56 H24     12.4068  -2.4480   9.1894   H         2 RES2   0.0000
    57 H25     12.3918  -3.6380   8.1520   H         2 RES2   0.0000
    58 O1      11.3583  -4.0137   9.7991   O.3       2 RES2   0.0000
    59 H26     10.5503  -4.2664   9.7178   H         2 RES2   0.0000
@<TRIPOS>BOND
     1     1     4    1
     2     2    46    2
     3     3    47    2
     4     4    10   ar
     5     5     1    1
     6     6     1    1
     7     7     1    1
     8     8     1    1
     9     9     1    1
    10    10    11    1
    11    12    10   ar
    12    13    12    1
    13    14    12   ar
    14    15    14    1
    15    16    14   ar
    16    17    16    1
    17    18     4   ar
    18    19     7    1
    19    20    19    1
    20    21    19    1
    21    22     5   ar
    22    23    22    1
    23    24    22   ar
    24    25    24    1
    25    26    24   ar
    26    27    26    1
    27    28    26   ar
    28    29    28    1
    29    30     5   ar
    30    31     7    1
    31    32    31    1
    32    33    31    1
    33    34     6   ar
    34    35    34    1
    35    36    34   ar
    36    37    36    1
    37    38    36   ar
    38    39    38    1
    39    40    38   ar
    40    41    40    1
    41    42     6   ar
    42    43     7    1
    43    44    43    1
    44    45    43    1
    45    46     8    2
    46    47     9    2
    47    16    18   ar
    48    18    19    1
    49    28    30   ar
    50    30    31    1
    51    40    42   ar
    52    42    43    1
    53    48    49    1
    54    50    48    1
    55    51    48    1
    56    52    48    1
    57    53    52    1
    58    54    52    1
    59    55    52    1
    60    56    55    1
    61    57    55    1
    62    58    55    1
    63    59    58    1
@<TRIPOS>SUBSTRUCTURE
     1 RES1        1 GROUP             0 ****  ****    0  
     2 RES2       48 GROUP             0 ****  ****    0  
@<TRIPOS>CRYSIN
   12.3008   11.9241   17.6916   90.0000   92.7040   90.0000    14     1
