@<TRIPOS>MOLECULE
ABITEM01
    59    63     2     0     0
SMALL
NO_CHARGES
****
Generated from the CSD

@<TRIPOS>ATOM
     1 Fe1      7.9246   4.2784  -4.1449   Fe        1 RES1   0.0000
     2 S1       3.3896   4.2478  -2.6938   S.2       1 RES1   0.0000
     3 S2       8.7966   0.4845  -1.4276   S.2       1 RES1   0.0000
     4 N1       9.8649   4.3920  -4.5376   N.ar      1 RES1   0.0000
     5 N2       8.2664   5.7274  -2.8451   N.ar      1 RES1   0.0000
     6 N3       7.4919   3.1993  -5.7562   N.ar      1 RES1   0.0000
     7 N4       7.7690   5.7945  -5.4312   N.3       1 RES1   0.0000
     8 N5       8.1635   2.7522  -2.9432   N.2       1 RES1   0.0000
     9 N6       6.0200   4.3609  -3.6761   N.2       1 RES1   0.0000
    10 C1       8.8581   5.6255  -1.6333   C.ar      1 RES1   0.0000
    11 H1       9.0806   4.7804  -1.3151   H         1 RES1   0.0000
    12 C2       9.1426   6.7175  -0.8581   C.ar      1 RES1   0.0000
    13 H2       9.5216   6.6096  -0.0169   H         1 RES1   0.0000
    14 C3       8.8622   7.9785  -1.3405   C.ar      1 RES1   0.0000
    15 H3       9.0503   8.7313  -0.8293   H         1 RES1   0.0000
    16 C4       8.2925   8.1056  -2.6014   C.ar      1 RES1   0.0000
    17 H4       8.1053   8.9435  -2.9568   H         1 RES1   0.0000
    18 C5       8.0115   6.9620  -3.3122   C.ar      1 RES1   0.0000
    19 C6       7.3049   6.9609  -4.6493   C.3       1 RES1   0.0000
    20 H5       6.3460   6.9081  -4.5156   H         1 RES1   0.0000
    21 H6       7.5026   7.7808  -5.1283   H         1 RES1   0.0000
    22 C7      10.8499   3.7328  -3.9097   C.ar      1 RES1   0.0000
    23 H7      10.6253   3.0291  -3.3461   H         1 RES1   0.0000
    24 C8      12.1753   4.0540  -4.0654   C.ar      1 RES1   0.0000
    25 H8      12.8319   3.5637  -3.6253   H         1 RES1   0.0000
    26 C9      12.5230   5.1089  -4.8778   C.ar      1 RES1   0.0000
    27 H9      13.4127   5.3546  -4.9844   H         1 RES1   0.0000
    28 C10     11.5175   5.7945  -5.5311   C.ar      1 RES1   0.0000
    29 H10     11.7275   6.5053  -6.0913   H         1 RES1   0.0000
    30 C11     10.2138   5.4229  -5.3500   C.ar      1 RES1   0.0000
    31 C12      9.0750   6.0355  -6.0981   C.3       1 RES1   0.0000
    32 H11      9.2220   6.9908  -6.1742   H         1 RES1   0.0000
    33 H12      9.0481   5.6663  -6.9951   H         1 RES1   0.0000
    34 C13      7.6465   1.8939  -5.9593   C.ar      1 RES1   0.0000
    35 H13      8.0417   1.3833  -5.2890   H         1 RES1   0.0000
    36 C14      7.2441   1.2538  -7.1339   C.ar      1 RES1   0.0000
    37 H14      7.3499   0.3356  -7.2371   H         1 RES1   0.0000
    38 C15      6.6847   2.0174  -8.1375   C.ar      1 RES1   0.0000
    39 H15      6.4099   1.6218  -8.9330   H         1 RES1   0.0000
    40 C16      6.5410   3.3624  -7.9496   C.ar      1 RES1   0.0000
    41 H16      6.1689   3.8886  -8.6216   H         1 RES1   0.0000
    42 C17      6.9495   3.9413  -6.7632   C.ar      1 RES1   0.0000
    43 C18      6.7522   5.3953  -6.4450   C.3       1 RES1   0.0000
    44 H17      6.8561   5.9288  -7.2490   H         1 RES1   0.0000
    45 H18      5.8583   5.5404  -6.0947   H         1 RES1   0.0000
    46 C19      8.3962   1.8220  -2.3187   C.1       1 RES1   0.0000
    47 C20      4.9354   4.3333  -3.2648   C.1       1 RES1   0.0000
    48 C21     11.4806   4.7169   1.7568   C.3       2 RES2   0.0000
    49 H19     10.7535   4.8439   2.3712   H         2 RES2   0.0000
    50 H20     11.6335   5.5296   1.2694   H         2 RES2   0.0000
    51 H21     12.2730   4.4807   2.2426   H         2 RES2   0.0000
    52 C22     11.1479   3.6560   0.8293   C.3       2 RES2   0.0000
    53 H22     10.8676   2.8997   1.3709   H         2 RES2   0.0000
    54 H23     10.3616   3.9533   0.3470   H         2 RES2   0.0000
    55 C23     11.9995   3.1658  -0.0948   C.3       2 RES2   0.0000
    56 H24     12.7628   2.8038   0.3825   H         2 RES2   0.0000
    57 H25     12.3248   3.9209  -0.6110   H         2 RES2   0.0000
    58 O1      11.5964   2.2152  -0.9867   O.3       2 RES2   0.0000
    59 H26     10.8001   1.9491  -0.8496   H         2 RES2   0.0000
@<TRIPOS>BOND
     1     1     4    1
     2     2    47    2
     3     3    46    2
     4     4    22   ar
     5     5     1    1
     6     6     1    1
     7     7     1    1
     8     8     1    1
     9     9     1    1
    10    10     5   ar
    11    11    10    1
    12    12    10   ar
    13    13    12    1
    14    14    12   ar
    15    15    14    1
    16    16    14   ar
    17    17    16    1
    18    18     5   ar
    19    19     7    1
    20    20    19    1
    21    21    19    1
    22    22    23    1
    23    24    22   ar
    24    25    24    1
    25    26    24   ar
    26    27    26    1
    27    28    26   ar
    28    29    28    1
    29    30     4   ar
    30    31     7    1
    31    32    31    1
    32    33    31    1
    33    34     6   ar
    34    35    34    1
    35    36    34   ar
    36    37    36    1
    37    38    36   ar
    38    39    38    1
    39    40    38   ar
    40    41    40    1
    41    42     6   ar
    42    43     7    1
    43    44    43    1
    44    45    43    1
    45    46     8    2
    46    47     9    2
    47    16    18   ar
    48    18    19    1
    49    28    30   ar
    50    30    31    1
    51    40    42   ar
    52    42    43    1
    53    48    49    1
    54    50    48    1
    55    51    48    1
    56    52    48    1
    57    53    52    1
    58    54    52    1
    59    55    52    1
    60    56    55    1
    61    57    55    1
    62    58    55    1
    63    59    58    1
@<TRIPOS>SUBSTRUCTURE
     1 RES1        1 GROUP             0 ****  ****    0  
     2 RES2       48 GROUP             0 ****  ****    0  
@<TRIPOS>CRYSIN
   12.1340   11.9870   16.9250   90.0000   90.1370   90.0000    14     1
