@<TRIPOS>MOLECULE
DBCCo--HSnBu3_0_3_tpss_xtb_d4_lanl2dz_631gpol_RC-HSn.opt.xyz bimetal.xyz
 167 173 0 0 0
SMALL
GASTEIGER

@<TRIPOS>ATOM
      1 C          -0.1143    6.2968    8.8856 C.3     1  UNL1        0.0000
      2 C          -0.5539    5.3881    7.8672 C.3     1  UNL1        0.0000
      3 C          -0.0733    5.5468    6.4486 C.3     1  UNL1        0.0000
      4 H          -0.5526    4.8179    5.7994 H       1  UNL1        0.0000
      5 H           1.0052    5.4169    6.3857 H       1  UNL1        0.0000
      6 H          -0.3050    6.5512    6.0906 H       1  UNL1        0.0000
      7 C          -1.4379    4.3235    8.1963 C.3     1  UNL1        0.0000
      8 H          -1.6946    3.5959    7.4333 H       1  UNL1        0.0000
      9 C          -1.9877    4.1877    9.5000 C.3     1  UNL1        0.0000
     10 C          -2.9780    3.1037    9.8268 C.3     1  UNL1        0.0000
     11 H          -3.0092    2.3628    9.0319 H       1  UNL1        0.0000
     12 H          -3.9753    3.5339    9.9417 H       1  UNL1        0.0000
     13 H          -2.7124    2.6096   10.7613 H       1  UNL1        0.0000
     14 C          -1.6319    5.1582   10.4762 C.2     1  UNL1        0.0000
     15 H          -2.0730    5.0939   11.4682 H       1  UNL1        0.0000
     16 C          -0.7018    6.1936   10.1948 C.2     1  UNL1        0.0000
     17 C          -0.4249    7.2410   11.2393 C.3     1  UNL1        0.0000
     18 H           0.5552    7.6894   11.0878 H       1  UNL1        0.0000
     19 H          -0.4886    6.8231   12.2418 H       1  UNL1        0.0000
     20 H          -1.1746    8.0328   11.1608 H       1  UNL1        0.0000
     21 C           1.1241    8.2933    7.4617 C.ar    1  UNL1        0.0000
     22 C           0.0201    9.1753    7.2665 C.ar    1  UNL1        0.0000
     23 C          -1.1802    9.1254    8.1819 C.3     1  UNL1        0.0000
     24 H          -1.9554    9.8048    7.8330 H       1  UNL1        0.0000
     25 H          -0.8935    9.4176    9.1917 H       1  UNL1        0.0000
     26 H          -1.5884    8.1170    8.2253 H       1  UNL1        0.0000
     27 C           0.0420   10.1379    6.2464 C.ar    1  UNL1        0.0000
     28 H          -0.8045   10.8153    6.1309 H       1  UNL1        0.0000
     29 C           1.1311   10.2419    5.3644 C.ar    1  UNL1        0.0000
     30 C           1.1462   11.2855    4.2768 C.3     1  UNL1        0.0000
     31 H           1.7336   10.9475    3.4251 H       1  UNL1        0.0000
     32 H           1.5939   12.2072    4.6537 H       1  UNL1        0.0000
     33 H           0.1348   11.5119    3.9437 H       1  UNL1        0.0000
     34 C           2.2070    9.3568    5.5289 C.ar    1  UNL1        0.0000
     35 H           3.0527    9.4107    4.8428 H       1  UNL1        0.0000
     36 C           2.2238    8.4012    6.5591 C.ar    1  UNL1        0.0000
     37 C           3.4201    7.4804    6.6322 C.3     1  UNL1        0.0000
     38 H           3.8156    7.3028    5.6327 H       1  UNL1        0.0000
     39 H           3.1670    6.5277    7.0886 H       1  UNL1        0.0000
     40 H           4.2080    7.9350    7.2336 H       1  UNL1        0.0000
     41 C           2.4025    7.0016    9.4650 C.ar    1  UNL1        0.0000
     42 C           3.2526    8.1121    9.7112 C.ar    1  UNL1        0.0000
     43 H           2.9085    9.0772    9.3419 H       1  UNL1        0.0000
     44 C           4.4804    8.0464   10.3979 C.ar    1  UNL1        0.0000
     45 C           5.2710    9.3314   10.6490 C.3     1  UNL1        0.0000
     46 C           4.4049   10.3004   11.4636 C.3     1  UNL1        0.0000
     47 H           4.9496   11.2230   11.6560 H       1  UNL1        0.0000
     48 H           4.1381    9.8520   12.4190 H       1  UNL1        0.0000
     49 H           3.4882   10.5500   10.9360 H       1  UNL1        0.0000
     50 C           5.6353    9.9682    9.3017 C.3     1  UNL1        0.0000
     51 H           6.2360    9.2786    8.7109 H       1  UNL1        0.0000
     52 H           6.2110   10.8787    9.4577 H       1  UNL1        0.0000
     53 H           4.7456   10.2213    8.7305 H       1  UNL1        0.0000
     54 C           6.5634    9.0782   11.4274 C.3     1  UNL1        0.0000
     55 H           7.2369    8.4315   10.8694 H       1  UNL1        0.0000
     56 H           6.3533    8.6262   12.3944 H       1  UNL1        0.0000
     57 H           7.0747   10.0235   11.6014 H       1  UNL1        0.0000
     58 C           4.9429    6.7749   10.7886 C.ar    1  UNL1        0.0000
     59 H           5.9057    6.6536   11.2807 H       1  UNL1        0.0000
     60 C           4.1682    5.6402   10.5374 C.ar    1  UNL1        0.0000
     61 C           2.8705    5.7380    9.9396 C.ar    1  UNL1        0.0000
     62 C           4.3826    4.2361   10.7826 C.ar    1  UNL1        0.0000
     63 C           5.4479    3.5209   11.3296 C.ar    1  UNL1        0.0000
     64 H           6.3279    4.0621   11.6751 H       1  UNL1        0.0000
     65 C           5.3894    2.1143   11.4118 C.ar    1  UNL1        0.0000
     66 C           6.5708    1.3274   11.9831 C.3     1  UNL1        0.0000
     67 C           7.0882    2.0015   13.2603 C.3     1  UNL1        0.0000
     68 H           7.5490    2.9622   13.0486 H       1  UNL1        0.0000
     69 H           7.8383    1.3736   13.7377 H       1  UNL1        0.0000
     70 H           6.2717    2.1600   13.9616 H       1  UNL1        0.0000
     71 C           7.6844    1.3068   10.9282 C.3     1  UNL1        0.0000
     72 H           7.3338    0.8177   10.0214 H       1  UNL1        0.0000
     73 H           8.5523    0.7662   11.3012 H       1  UNL1        0.0000
     74 H           7.9902    2.3184   10.6704 H       1  UNL1        0.0000
     75 C           6.1879   -0.1143   12.3280 C.3     1  UNL1        0.0000
     76 H           5.9566   -0.6897   11.4351 H       1  UNL1        0.0000
     77 H           5.3260   -0.1367   12.9911 H       1  UNL1        0.0000
     78 H           7.0202   -0.6044   12.8304 H       1  UNL1        0.0000
     79 C           4.2566    1.4751   10.8785 C.ar    1  UNL1        0.0000
     80 H           4.2276    0.3909   10.8622 H       1  UNL1        0.0000
     81 C           3.1402    2.1408   10.2902 C.ar    1  UNL1        0.0000
     82 C           3.2052    3.5700   10.3059 C.ar    1  UNL1        0.0000
     83 C           2.2244   -0.3349    9.6674 C.ar    1  UNL1        0.0000
     84 C           2.5551   -1.1345    8.5320 C.ar    1  UNL1        0.0000
     85 C           2.8304   -0.5174    7.1814 C.3     1  UNL1        0.0000
     86 H           1.9007   -0.1899    6.7173 H       1  UNL1        0.0000
     87 H           3.3058   -1.2435    6.5240 H       1  UNL1        0.0000
     88 H           3.4824    0.3472    7.2773 H       1  UNL1        0.0000
     89 C           2.6635   -2.5289    8.6450 C.ar    1  UNL1        0.0000
     90 H           2.9329   -3.1135    7.7647 H       1  UNL1        0.0000
     91 C           2.4310   -3.1950    9.8610 C.ar    1  UNL1        0.0000
     92 C           2.5364   -4.6972    9.9442 C.3     1  UNL1        0.0000
     93 H           1.8141   -5.1641    9.2736 H       1  UNL1        0.0000
     94 H           2.3453   -5.0431   10.9578 H       1  UNL1        0.0000
     95 H           3.5323   -5.0245    9.6444 H       1  UNL1        0.0000
     96 C           2.1016   -2.4196   10.9786 C.ar    1  UNL1        0.0000
     97 H           1.9138   -2.9029   11.9381 H       1  UNL1        0.0000
     98 C           2.0089   -1.0176   10.8936 C.ar    1  UNL1        0.0000
     99 C           1.6294   -0.2724   12.1460 C.3     1  UNL1        0.0000
    100 H           0.6177   -0.5451   12.4512 H       1  UNL1        0.0000
    101 H           1.6731    0.7996   11.9747 H       1  UNL1        0.0000
    102 H           2.3077   -0.5346   12.9571 H       1  UNL1        0.0000
    103 C           1.0920    1.7370    8.4203 C.ar    1  UNL1        0.0000
    104 C          -0.1929    1.1078    8.3464 C.ar    1  UNL1        0.0000
    105 C          -0.7314    0.3232    9.5175 C.3     1  UNL1        0.0000
    106 H          -1.8104    0.2014    9.4380 H       1  UNL1        0.0000
    107 H          -0.4949    0.8196   10.4569 H       1  UNL1        0.0000
    108 H          -0.2782   -0.6681    9.5345 H       1  UNL1        0.0000
    109 C          -0.9552    1.1507    7.1724 C.ar    1  UNL1        0.0000
    110 H          -1.9189    0.6404    7.1382 H       1  UNL1        0.0000
    111 C          -0.4791    1.7990    6.0163 C.ar    1  UNL1        0.0000
    112 C          -1.2890    1.7846    4.7435 C.3     1  UNL1        0.0000
    113 H          -0.7812    2.3351    3.9540 H       1  UNL1        0.0000
    114 H          -2.2702    2.2337    4.9061 H       1  UNL1        0.0000
    115 H          -1.4453    0.7590    4.4074 H       1  UNL1        0.0000
    116 C           0.7635    2.4425    6.0836 C.ar    1  UNL1        0.0000
    117 H           1.1589    2.9328    5.1938 H       1  UNL1        0.0000
    118 C           1.5413    2.4395    7.2593 C.ar    1  UNL1        0.0000
    119 C           2.8917    3.1107    7.1886 C.3     1  UNL1        0.0000
    120 H           3.2558    3.1272    6.1618 H       1  UNL1        0.0000
    121 H           3.6221    2.6121    7.8204 H       1  UNL1        0.0000
    122 H           2.8080    4.1393    7.5420 H       1  UNL1        0.0000
    123 B           1.1307    7.2264    8.6161 B       1  UNL1        0.0000
    124 B           2.1224    1.2561    9.5347 B       1  UNL1        0.0000
    125 CO          0.3352    4.1511    9.6970 Co.oh   1  UNL1        0.0000
    126 N           2.2771    4.4851    9.8445 N.ar    1  UNL1        0.0000
    127 SN          0.6289    3.6943   12.9764 Sn      2  UNL2        0.0000
    128 C          -1.3728    4.0843   13.7898 C.3     2  UNL2        0.0000
    129 H          -2.1127    3.4881   13.2300 H       2  UNL2        0.0000
    130 C          -1.5045    3.7577   15.2809 C.3     2  UNL2        0.0000
    131 H          -1.6411    5.1439   13.6402 H       2  UNL2        0.0000
    132 C           1.9341    5.4223   13.0330 C.3     2  UNL2        0.0000
    133 C           1.8569    6.2362   14.3259 C.3     2  UNL2        0.0000
    134 H           2.9557    5.0345   12.9021 H       2  UNL2        0.0000
    135 H           1.7403    6.0705   12.1719 H       2  UNL2        0.0000
    136 C           1.5096    2.2643   14.3695 C.3     2  UNL2        0.0000
    137 H           1.1988    2.6452   15.3583 H       2  UNL2        0.0000
    138 C           3.0361    2.1644   14.3270 C.3     2  UNL2        0.0000
    139 H           1.0632    1.2639   14.2639 H       2  UNL2        0.0000
    140 H           0.3637    3.0890   11.3220 H       2  UNL2        0.0000
    141 H          -1.2929    2.7002   15.4405 H       2  UNL2        0.0000
    142 C          -2.9056    4.0736   15.7947 C.3     2  UNL2        0.0000
    143 H          -0.7756    4.3358   15.8511 H       2  UNL2        0.0000
    144 H          -3.6356    3.5034   15.2158 H       2  UNL2        0.0000
    145 H          -3.1158    5.1344   15.6389 H       2  UNL2        0.0000
    146 C          -3.0550    3.7382   17.2731 C.3     2  UNL2        0.0000
    147 H          -2.8680    2.6802   17.4434 H       2  UNL2        0.0000
    148 H          -4.0595    3.9700   17.6196 H       2  UNL2        0.0000
    149 H          -2.3458    4.3105   17.8671 H       2  UNL2        0.0000
    150 H           2.1141    5.6067   15.1816 H       2  UNL2        0.0000
    151 H           0.8415    6.6122   14.4771 H       2  UNL2        0.0000
    152 C           2.8217    7.4168   14.2585 C.3     2  UNL2        0.0000
    153 H           3.8358    7.0393   14.1101 H       2  UNL2        0.0000
    154 C           2.7690    8.2697   15.5199 C.3     2  UNL2        0.0000
    155 H           2.5724    8.0286   13.3882 H       2  UNL2        0.0000
    156 H           3.0321    7.6771   16.3937 H       2  UNL2        0.0000
    157 H           1.7687    8.6716   15.6681 H       2  UNL2        0.0000
    158 H           3.4649    9.1027   15.4494 H       2  UNL2        0.0000
    159 H           3.4725    3.1479   14.5088 H       2  UNL2        0.0000
    160 H           3.3552    1.8417   13.3352 H       2  UNL2        0.0000
    161 C           3.5709    1.1827   15.3702 C.3     2  UNL2        0.0000
    162 C           3.4148    1.6815   16.8019 C.3     2  UNL2        0.0000
    163 H           4.6315    1.0083   15.1748 H       2  UNL2        0.0000
    164 H           3.0539    0.2265   15.2630 H       2  UNL2        0.0000
    165 H           3.8950    2.6506   16.9201 H       2  UNL2        0.0000
    166 H           3.8745    0.9839   17.4984 H       2  UNL2        0.0000
    167 H           2.3657    1.7822   17.0678 H       2  UNL2        0.0000
@<TRIPOS>BOND
     1    31    30    1
     2    33    30    1
     3   113   112    1
     4    30    32    1
     5    30    29    1
     6   115   112    1
     7   112   114    1
     8   112   111    1
     9    35    34    1
    10   117   116    1
    11    29    34   ar
    12    29    27   ar
    13    34    36   ar
    14    38    37    1
    15     4     3    1
    16   111   116   ar
    17   111   109   ar
    18   116   118   ar
    19     6     3    1
    20    28    27    1
    21   120   119    1
    22    27    22   ar
    23     5     3    1
    24     3     2    1
    25    87    85    1
    26    36    37    1
    27    36    21   ar
    28    37    39    1
    29    37    40    1
    30    86    85    1
    31   110   109    1
    32   109   104   ar
    33    85    88    1
    34    85    84    1
    35   119   118    1
    36   119   122    1
    37   119   121    1
    38   118   103   ar
    39    22    21   ar
    40    22    23    1
    41     8     7    1
    42    21   123    1
    43    90    89    1
    44    24    23    1
    45     2     7    1
    46     2     1    1
    47    23    26    1
    48    23    25    1
    49     7     9    1
    50     7   125    1
    51   104   103   ar
    52   104   105    1
    53   103   124    1
    54    84    89   ar
    55    84    83   ar
    56   123     1    1
    57   123    41    1
    58    89    91   ar
    59    51    50    1
    60    53    50    1
    61     1    16    1
    62    11    10    1
    63    93    92    1
    64    50    52    1
    65    50    45    1
    66    43    42    1
    67   106   105    1
    68    41    42   ar
    69    41    61   ar
    70     9    10    1
    71     9    14    1
    72   105   108    1
    73   105   107    1
    74   124    83    1
    75   124    81    1
    76    95    92    1
    77    83    98   ar
    78   125   126    1
    79    42    44   ar
    80    10    12    1
    81    10    13    1
    82   126    61   ar
    83   126    82   ar
    84    91    92    1
    85    91    96   ar
    86    61    60   ar
    87    92    94    1
    88    72    71    1
    89    16    14    2
    90    16    17    1
    91    81    82   ar
    92    81    79   ar
    93    82    62   ar
    94    44    45    1
    95    44    58   ar
    96    14    15    1
    97    60    62   ar
    98    60    58   ar
    99    45    54    1
   100    45    46    1
   101    74    71    1
   102    62    63   ar
   103    58    59    1
   104    80    79    1
   105    55    54    1
   106    79    65   ar
   107    98    96   ar
   108    98    99    1
   109    71    73    1
   110    71    66    1
   111    49    46    1
   112    96    97    1
   113    18    17    1
   114    20    17    1
   115    17    19    1
   116   140   127    1
   117    63    65   ar
   118    63    64    1
   119    65    66    1
   120    54    57    1
   121    54    56    1
   122    76    75    1
   123    46    47    1
   124    46    48    1
   125   101    99    1
   126    66    75    1
   127    66    67    1
   128    99   100    1
   129    99   102    1
   130   135   132    1
   131    75    78    1
   132    75    77    1
   133   134   132    1
   134   127   132    1
   135   127   128    1
   136   127   136    1
   137   132   133    1
   138    68    67    1
   139   129   128    1
   140    67    69    1
   141    67    70    1
   142   160   138    1
   143   155   152    1
   144   131   128    1
   145   128   130    1
   146   153   152    1
   147   152   133    1
   148   152   154    1
   149   139   136    1
   150   133   151    1
   151   133   150    1
   152   138   136    1
   153   138   159    1
   154   138   161    1
   155   136   137    1
   156   163   161    1
   157   144   142    1
   158   164   161    1
   159   130   141    1
   160   130   142    1
   161   130   143    1
   162   161   162    1
   163   158   154    1
   164   154   157    1
   165   154   156    1
   166   145   142    1
   167   142   146    1
   168   162   165    1
   169   162   167    1
   170   162   166    1
   171   146   147    1
   172   146   148    1
   173   146   149    1
