@<TRIPOS>MOLECULE
sq
 162 182 0 0 0
SMALL
GASTEIGER

@<TRIPOS>ATOM
      1 FE         31.7386    4.4638   16.5057 Fe      1  UNL1        0.0000
      2 N          30.2299    4.2221   15.1501 N.ar    1  UNL1        0.0000
      3 N          31.7896    2.4321   16.7792 N.2     1  UNL1        0.0000
      4 N          33.2293    4.7078   17.8851 N.ar    1  UNL1        0.0000
      5 N          31.6516    6.5263   16.2550 N.2     1  UNL1        0.0000
      6 C          29.6461    3.0201   14.7688 C.ar    1  UNL1        0.0000
      7 C          30.0229    1.7531   15.1793 C.2     1  UNL1        0.0000
      8 C          31.0320    1.4837   16.1186 C.2     1  UNL1        0.0000
      9 C          31.4590    0.1762   16.5242 C.2     1  UNL1        0.0000
     10 H          31.0827   -0.6504   16.2434 H       1  UNL1        0.0000
     11 C          32.4968    0.3239   17.3757 C.2     1  UNL1        0.0000
     12 H          32.9984   -0.3736   17.7851 H       1  UNL1        0.0000
     13 C          32.7000    1.7395   17.5445 C.2     1  UNL1        0.0000
     14 C          33.6673    2.3152   18.3770 C.2     1  UNL1        0.0000
     15 C          33.8731    3.6991   18.5607 C.ar    1  UNL1        0.0000
     16 C          34.8809    4.2801   19.4245 C.ar    1  UNL1        0.0000
     17 H          35.4546    3.8103   20.0163 H       1  UNL1        0.0000
     18 C          34.8499    5.6047   19.2326 C.ar    1  UNL1        0.0000
     19 H          35.3988    6.2451   19.6673 H       1  UNL1        0.0000
     20 C          33.8337    5.8935   18.2504 C.ar    1  UNL1        0.0000
     21 C          33.5668    7.1504   17.7027 C.2     1  UNL1        0.0000
     22 C          32.5699    7.4268   16.7648 C.2     1  UNL1        0.0000
     23 C          32.4047    8.6745   16.0891 C.2     1  UNL1        0.0000
     24 H          32.8792    9.4753   16.2713 H       1  UNL1        0.0000
     25 C          31.4547    8.5119   15.1446 C.2     1  UNL1        0.0000
     26 H          31.1538    9.1764   14.5347 H       1  UNL1        0.0000
     27 C          30.9820    7.1640   15.2261 C.2     1  UNL1        0.0000
     28 C          30.0827    6.5611   14.3345 C.2     1  UNL1        0.0000
     29 C          29.6867    5.2114   14.3508 C.ar    1  UNL1        0.0000
     30 C          28.6819    4.6304   13.4881 C.ar    1  UNL1        0.0000
     31 H          28.1470    5.0936   12.8539 H       1  UNL1        0.0000
     32 C          28.6517    3.3062   13.7532 C.ar    1  UNL1        0.0000
     33 H          28.0734    2.6721   13.3442 H       1  UNL1        0.0000
     34 C          29.4121    0.5775   14.4615 C.ar    1  UNL1        0.0000
     35 C          28.5880   -0.3182   15.1268 C.ar    1  UNL1        0.0000
     36 H          28.4109   -0.2066   16.0529 H       1  UNL1        0.0000
     37 C          28.0222   -1.3888   14.4213 C.ar    1  UNL1        0.0000
     38 H          27.4695   -2.0128   14.8731 H       1  UNL1        0.0000
     39 C          28.2670   -1.5386   13.0808 C.ar    1  UNL1        0.0000
     40 H          27.8628   -2.2546   12.6055 H       1  UNL1        0.0000
     41 C          29.0787   -0.6742   12.4265 C.ar    1  UNL1        0.0000
     42 H          29.2457   -0.7911   11.4985 H       1  UNL1        0.0000
     43 C          29.6722    0.3863   13.1059 C.ar    1  UNL1        0.0000
     44 N          30.5608    1.2749   12.4400 N.am    1  UNL1        0.0000
     45 H          31.3314    1.4327   12.8389 H       1  UNL1        0.0000
     46 C          30.3568    1.8999   11.2681 C.2     1  UNL1        0.0000
     47 O          29.3954    1.6428   10.5632 O.2     1  UNL1        0.0000
     48 C          31.3324    2.9779   10.8989 C.ar    1  UNL1        0.0000
     49 C          31.4212    3.3559    9.5651 C.ar    1  UNL1        0.0000
     50 H          30.9026    2.9050    8.9097 H       1  UNL1        0.0000
     51 C          32.2578    4.3821    9.1900 C.ar    1  UNL1        0.0000
     52 H          32.3083    4.6366    8.2759 H       1  UNL1        0.0000
     53 C          33.0119    5.0387   10.1184 C.ar    1  UNL1        0.0000
     54 H          33.5922    5.7353    9.8369 H       1  UNL1        0.0000
     55 C          32.9492    4.7139   11.4584 C.ar    1  UNL1        0.0000
     56 C          32.0913    3.6798   11.8421 C.ar    1  UNL1        0.0000
     57 H          32.0241    3.4500   12.7618 H       1  UNL1        0.0000
     58 C          33.7383    5.5243   12.4624 C.3     1  UNL1        0.0000
     59 H          33.0949    5.9902   13.0530 H       1  UNL1        0.0000
     60 H          34.2417    6.2187   11.9695 H       1  UNL1        0.0000
     61 C          34.7307    4.7521   13.3526 C.3     1  UNL1        0.0000
     62 C          35.7393    3.9685   12.4342 C.2     1  UNL1        0.0000
     63 O          35.9938    2.7296   12.7804 O.co2   1  UNL1        0.0000
     64 O          36.2516    4.5333   11.5092 O.co2   1  UNL1        0.0000
     65 C          34.5792    1.3853   19.1187 C.ar    1  UNL1        0.0000
     66 C          34.0738    0.5713   20.1337 C.ar    1  UNL1        0.0000
     67 H          33.1557    0.6109   20.3675 H       1  UNL1        0.0000
     68 C          34.9271   -0.2967   20.7957 C.ar    1  UNL1        0.0000
     69 H          34.5894   -0.8614   21.4809 H       1  UNL1        0.0000
     70 C          36.2622   -0.3503   20.4724 C.ar    1  UNL1        0.0000
     71 H          36.8375   -0.9405   20.9478 H       1  UNL1        0.0000
     72 C          36.7631    0.4153   19.4938 C.ar    1  UNL1        0.0000
     73 H          37.6849    0.3604   19.2754 H       1  UNL1        0.0000
     74 C          35.9281    1.3009   18.7909 C.ar    1  UNL1        0.0000
     75 N          36.4170    2.1100   17.7271 N.am    1  UNL1        0.0000
     76 H          35.8936    2.1798   17.0229 H       1  UNL1        0.0000
     77 C          37.6048    2.7951   17.6674 C.2     1  UNL1        0.0000
     78 O          38.5065    2.5894   18.4703 O.2     1  UNL1        0.0000
     79 C          37.7329    3.7703   16.5713 C.ar    1  UNL1        0.0000
     80 C          39.0069    4.1285   16.1625 C.ar    1  UNL1        0.0000
     81 H          39.7656    3.7532   16.5968 H       1  UNL1        0.0000
     82 C          39.1840    5.0242   15.1279 C.ar    1  UNL1        0.0000
     83 H          40.0574    5.2782   14.8602 H       1  UNL1        0.0000
     84 C          38.0833    5.5524   14.4793 C.ar    1  UNL1        0.0000
     85 H          38.2153    6.1396   13.7446 H       1  UNL1        0.0000
     86 C          36.7730    5.2413   14.8825 C.ar    1  UNL1        0.0000
     87 C          36.6304    4.3685   15.9589 C.ar    1  UNL1        0.0000
     88 H          35.7616    4.1751   16.2841 H       1  UNL1        0.0000
     89 C          35.5723    5.8021   14.1422 C.3     1  UNL1        0.0000
     90 H          35.8910    6.4912   13.5069 H       1  UNL1        0.0000
     91 H          34.9801    6.2495   14.7981 H       1  UNL1        0.0000
     92 C          33.9700    3.8793   14.3778 C.2     1  UNL1        0.0000
     93 O          34.2697    2.6879   14.5598 O.2     1  UNL1        0.0000
     94 O          33.0875    4.5201   15.0071 O.3     1  UNL1        0.0000
     95 C          29.6166    7.3526   13.1451 C.ar    1  UNL1        0.0000
     96 C          30.1048    6.9984   11.8978 C.ar    1  UNL1        0.0000
     97 H          30.7097    6.2714   11.8239 H       1  UNL1        0.0000
     98 C          29.7235    7.6844   10.7554 C.ar    1  UNL1        0.0000
     99 H          30.0652    7.4317    9.9054 H       1  UNL1        0.0000
    100 C          28.8387    8.7475   10.8668 C.ar    1  UNL1        0.0000
    101 H          28.5758    9.2292   10.0938 H       1  UNL1        0.0000
    102 C          28.3495    9.0965   12.0873 C.ar    1  UNL1        0.0000
    103 H          27.7410    9.8225   12.1580 H       1  UNL1        0.0000
    104 C          28.7278    8.4060   13.2273 C.ar    1  UNL1        0.0000
    105 N          28.1330    8.7216   14.4784 N.am    1  UNL1        0.0000
    106 H          28.0074    8.0601   15.0422 H       1  UNL1        0.0000
    107 C          27.7349    9.9684   14.8838 C.2     1  UNL1        0.0000
    108 O          28.0115   10.9748   14.2446 O.2     1  UNL1        0.0000
    109 C          26.9336   10.0167   16.1449 C.ar    1  UNL1        0.0000
    110 C          27.3160    9.3676   17.3183 C.ar    1  UNL1        0.0000
    111 H          28.0861    8.8117   17.3291 H       1  UNL1        0.0000
    112 C          26.5530    9.5386   18.4853 C.ar    1  UNL1        0.0000
    113 C          25.4099   10.2993   18.4468 C.ar    1  UNL1        0.0000
    114 H          24.8738   10.3762   19.2262 H       1  UNL1        0.0000
    115 C          25.0407   10.9432   17.3098 C.ar    1  UNL1        0.0000
    116 H          24.2572   11.4793   17.3098 H       1  UNL1        0.0000
    117 C          25.7954   10.8315   16.1407 C.ar    1  UNL1        0.0000
    118 H          25.5437   11.2991   15.3548 H       1  UNL1        0.0000
    119 C          27.0265    9.0674   19.8472 C.3     1  UNL1        0.0000
    120 H          27.4289    9.8357   20.3247 H       1  UNL1        0.0000
    121 H          26.2389    8.7677   20.3675 H       1  UNL1        0.0000
    122 N          28.0026    7.9806   19.8108 N.3     1  UNL1        0.0000
    123 C          34.5977    8.2232   17.9712 C.ar    1  UNL1        0.0000
    124 C          35.8715    8.0412   17.4059 C.ar    1  UNL1        0.0000
    125 H          36.0331    7.2735   16.8730 H       1  UNL1        0.0000
    126 C          36.8930    8.9439   17.6018 C.ar    1  UNL1        0.0000
    127 H          37.7484    8.7941   17.2156 H       1  UNL1        0.0000
    128 C          36.6637   10.0708   18.3654 C.ar    1  UNL1        0.0000
    129 H          37.3627   10.7014   18.5003 H       1  UNL1        0.0000
    130 C          35.4282   10.2875   18.9343 C.ar    1  UNL1        0.0000
    131 H          35.2719   11.0706   19.4489 H       1  UNL1        0.0000
    132 C          34.4011    9.3531   18.7517 C.ar    1  UNL1        0.0000
    133 N          33.1629    9.4753   19.4294 N.am    1  UNL1        0.0000
    134 H          32.6457    8.7633   19.4103 H       1  UNL1        0.0000
    135 C          32.6671   10.5555   20.1090 C.2     1  UNL1        0.0000
    136 O          33.1664   11.6674   20.0519 O.2     1  UNL1        0.0000
    137 C          31.4803   10.2492   20.9645 C.ar    1  UNL1        0.0000
    138 C          30.5235    9.2960   20.6431 C.ar    1  UNL1        0.0000
    139 H          30.5829    8.8556   19.8022 H       1  UNL1        0.0000
    140 C          29.4852    8.9576   21.4980 C.ar    1  UNL1        0.0000
    141 C          29.3736    9.6766   22.6950 C.ar    1  UNL1        0.0000
    142 H          28.6621    9.4841   23.2945 H       1  UNL1        0.0000
    143 C          30.2880   10.6663   23.0183 C.ar    1  UNL1        0.0000
    144 H          30.1820   11.1673   23.8192 H       1  UNL1        0.0000
    145 C          31.3613   10.9273   22.1743 C.ar    1  UNL1        0.0000
    146 H          32.0139   11.5716   22.4231 H       1  UNL1        0.0000
    147 C          28.5583    7.7670   21.1375 C.3     1  UNL1        0.0000
    148 H          29.0757    6.9219   21.1533 H       1  UNL1        0.0000
    149 H          27.8273    7.6954   21.8021 H       1  UNL1        0.0000
    150 C          27.3338    6.7377   19.3232 C.3     1  UNL1        0.0000
    151 H          26.9494    6.8955   18.4232 H       1  UNL1        0.0000
    152 H          26.5916    6.4956   19.9349 H       1  UNL1        0.0000
    153 C          28.3523    5.5933   19.2613 C.2     1  UNL1        0.0000
    154 C          28.3236    4.5451   20.1692 C.2     1  UNL1        0.0000
    155 H          27.6827    4.5443   20.8707 H       1  UNL1        0.0000
    156 C          29.2173    3.5080   20.0572 C.2     1  UNL1        0.0000
    157 H          29.1924    2.7731   20.6587 H       1  UNL1        0.0000
    158 C          30.1459    3.5730   19.0442 C.3     1  UNL1        0.0000
    159 H          30.7732    2.8654   18.9692 H       1  UNL1        0.0000
    160 N          30.2187    4.5702   18.1611 N.pl3   1  UNL1        0.0000
    161 C          29.3279    5.5472   18.2725 C.2     1  UNL1        0.0000
    162 H          29.3599    6.2539   17.6395 H       1  UNL1        0.0000
@<TRIPOS>BOND
     1    52    51    1
     2    50    49    1
     3    51    49   ar
     4    51    53   ar
     5    49    48   ar
     6    54    53    1
     7    99    98    1
     8   101   100    1
     9    53    55   ar
    10    47    46    2
    11    98   100   ar
    12    98    96   ar
    13   100   102   ar
    14    48    46    1
    15    48    56   ar
    16    46    44   am
    17    55    56   ar
    18    55    58    1
    19    42    41    1
    20    64    62   ar
    21    97    96    1
    22    56    57    1
    23    96    95   ar
    24    60    58    1
    25   102   103    1
    26   102   104   ar
    27    41    39   ar
    28    41    43   ar
    29    62    63   ar
    30    62    61    1
    31    44    45    1
    32    44    43    1
    33    58    59    1
    34    58    61    1
    35    40    39    1
    36    31    30    1
    37    39    37   ar
    38    43    34   ar
    39    95   104   ar
    40    95    28    1
    41   104   105    1
    42    33    32    1
    43    61    89    1
    44    61    92    1
    45    30    32   ar
    46    30    29   ar
    47    90    89    1
    48    85    84    1
    49    32     6   ar
    50    89    91    1
    51    89    86    1
    52   108   107    2
    53    28    29    2
    54    28    27    1
    55    29     2   ar
    56    92    93    2
    57    92    94    1
    58    37    38    1
    59    37    35   ar
    60    34    35   ar
    61    34     7    1
    62   105   107   am
    63   105   106    1
    64    84    86   ar
    65    84    82   ar
    66    26    25    1
    67     6     2   ar
    68     6     7    2
    69    83    82    1
    70    86    87   ar
    71   107   109    1
    72    94     1    1
    73    35    36    1
    74    82    80   ar
    75    25    27    1
    76    25    23    2
    77     2     1    1
    78     7     8    1
    79    27     5    2
    80   118   117    1
    81    87    88    1
    82    87    79   ar
    83    23    24    1
    84    23    22    1
    85     8     9    1
    86     8     3    2
    87   117   109   ar
    88   117   115   ar
    89   109   110   ar
    90    80    79   ar
    91    80    81    1
    92    10     9    1
    93     5     1    1
    94     5    22    1
    95     1     3    1
    96     1     4    1
    97     1   160    1
    98     9    11    2
    99    79    77    1
   100    22    21    2
   101     3    13    1
   102   125   124    1
   103    76    75    1
   104   127   126    1
   105   116   115    1
   106   115   113   ar
   107   110   111    1
   108   110   112   ar
   109    11    13    1
   110    11    12    1
   111   124   126   ar
   112   124   123   ar
   113    13    14    2
   114   126   128   ar
   115   162   161    1
   116    77    75   am
   117    77    78    2
   118    21   123    1
   119    21    20    1
   120    75    74    1
   121     4    20   ar
   122     4    15   ar
   123   123   132   ar
   124   160   161    1
   125   160   158    1
   126    20    18   ar
   127   161   153    2
   128   128   129    1
   129   128   130   ar
   130    14    15    1
   131    14    65    1
   132   151   150    1
   133   113   112   ar
   134   113   114    1
   135   112   119    1
   136    15    16   ar
   137   132   130   ar
   138   132   133    1
   139    74    65   ar
   140    74    72   ar
   141   130   131    1
   142   159   158    1
   143   158   156    1
   144    65    66   ar
   145    18    16   ar
   146    18    19    1
   147   153   150    1
   148   153   154    1
   149    73    72    1
   150   150   122    1
   151   150   152    1
   152   134   133    1
   153    16    17    1
   154   133   135   am
   155    72    70   ar
   156   139   138    1
   157   122   119    1
   158   122   147    1
   159   119   120    1
   160   119   121    1
   161   136   135    2
   162   156   154    2
   163   156   157    1
   164   135   137    1
   165    66    67    1
   166    66    68   ar
   167   154   155    1
   168    70    68   ar
   169    70    71    1
   170   138   137   ar
   171   138   140   ar
   172    68    69    1
   173   137   145   ar
   174   147   148    1
   175   147   140    1
   176   147   149    1
   177   140   141   ar
   178   145   146    1
   179   145   143   ar
   180   141   143   ar
   181   141   142    1
   182   143   144    1
