@<TRIPOS>MOLECULE
Test ring growth
 47 54 0 0 0
SMALL
GASTEIGER

@<TRIPOS>ATOM
      1 C          -0.0000    2.7071   -1.6245 C.ar    1  UNL1        0.0000
      2 C          -0.0000    0.6994   -0.4141 C.ar    1  UNL1        0.0000
      3 C          -0.0000    1.3983    0.8012 C.ar    1  UNL1        0.0000
      4 C          -0.0000    2.7938    0.7888 C.2     1  UNL1        0.0000
      5 C          -0.0000    3.4557   -0.4397 C.ar    1  UNL1        0.0000
      6 C           0.0000   -0.6994   -0.4141 C.ar    1  UNL1        0.0000
      7 C          -0.0000    0.7017    2.0168 C.ar    1  UNL1        0.0000
      8 C           0.0000   -0.7017    2.0168 C.ar    1  UNL1        0.0000
      9 C           0.0000   -1.3983    0.8012 C.ar    1  UNL1        0.0000
     10 C          -0.0000   -1.3985    3.2327 C.ar    1  UNL1        0.0000
     11 H          -0.0000   -2.4685    3.2339 H       1  UNL1        0.0000
     12 C          -0.0000   -0.6963    4.4456 C.ar    1  UNL1        0.0000
     13 C          -0.0000    0.6963    4.4456 C.ar    1  UNL1        0.0000
     14 C          -0.0000    1.3985    3.2327 C.ar    1  UNL1        0.0000
     15 H          -0.0000    3.3465    1.7051 H       1  UNL1        0.0000
     16 H          -0.0000    2.4685    3.2339 H       1  UNL1        0.0000
     17 C           0.0000   -2.7938    0.7888 C.2     1  UNL1        0.0000
     18 C           0.0000   -3.4557   -0.4397 C.ar    1  UNL1        0.0000
     19 C           0.0000   -2.7071   -1.6245 C.ar    1  UNL1        0.0000
     20 H           0.0000   -3.3465    1.7051 H       1  UNL1        0.0000
     21 C          -0.0000   -4.8593   -0.4772 C.ar    1  UNL1        0.0000
     22 C          -0.0000   -5.5175   -1.7140 C.ar    1  UNL1        0.0000
     23 H          -0.0000   -6.5868   -1.7513 H       1  UNL1        0.0000
     24 C          -0.0000   -4.7746   -2.9024 C.ar    1  UNL1        0.0000
     25 H          -0.0000   -5.2771   -3.8471 H       1  UNL1        0.0000
     26 C          -0.0000   -3.3735   -2.8542 C.ar    1  UNL1        0.0000
     27 H          -0.0000   -2.8075   -3.7622 H       1  UNL1        0.0000
     28 H          -0.0000   -5.4252    0.4309 H       1  UNL1        0.0000
     29 C          -0.0000   -1.3954    5.6601 C.ar    1  UNL1        0.0000
     30 C          -0.0000   -0.6931    6.8729 C.ar    1  UNL1        0.0000
     31 H          -0.0000   -1.2269    7.8002 H       1  UNL1        0.0000
     32 C          -0.0000    0.6931    6.8729 C.ar    1  UNL1        0.0000
     33 H          -0.0000    1.2269    7.8002 H       1  UNL1        0.0000
     34 C          -0.0000    1.3954    5.6601 C.ar    1  UNL1        0.0000
     35 H          -0.0000    2.4775    5.6552 H       1  UNL1        0.0000
     36 H           0.0000   -2.4775    5.6552 H       1  UNL1        0.0000
     37 C          -0.0000    4.8593   -0.4772 C.ar    1  UNL1        0.0000
     38 C          -0.0000    5.5175   -1.7140 C.ar    1  UNL1        0.0000
     39 H          -0.0000    6.5868   -1.7513 H       1  UNL1        0.0000
     40 C          -0.0000    4.7746   -2.9024 C.ar    1  UNL1        0.0000
     41 H          -0.0000    5.2771   -3.8471 H       1  UNL1        0.0000
     42 C          -0.0000    3.3735   -2.8542 C.ar    1  UNL1        0.0000
     43 H          -0.0000    2.8075   -3.7622 H       1  UNL1        0.0000
     44 H          -0.0000    5.4252    0.4309 H       1  UNL1        0.0000
     45 N          -0.0000    1.3642   -1.5818 N.pl3   1  UNL1        0.0000
     46 N           0.0000   -1.3642   -1.5818 N.pl3   1  UNL1        0.0000
     47 FE          0.0000    0.0000   -3.1253 Fe      1  UNL1        0.0000
@<TRIPOS>BOND
     1    41    40    1
     2    25    24    1
     3    43    42    1
     4    27    26    1
     5    47    46    1
     6    47    45    1
     7    24    26   ar
     8    24    22   ar
     9    40    42   ar
    10    40    38   ar
    11    26    19   ar
    12    42     1   ar
    13    23    22    1
    14    39    38    1
    15    38    37   ar
    16    22    21   ar
    17     1    45    1
    18     1     5   ar
    19    19    46    1
    20    19    18   ar
    21    46     6    1
    22    45     2    1
    23    37     5   ar
    24    37    44    1
    25    21    18   ar
    26    21    28    1
    27    18    17    1
    28     5     4    1
    29     6     2   ar
    30     6     9   ar
    31     2     3   ar
    32     4     3    2
    33     4    15    1
    34    17     9    2
    35    17    20    1
    36     9     8   ar
    37     3     7   ar
    38     7     8   ar
    39     7    14   ar
    40     8    10   ar
    41    14    16    1
    42    14    13   ar
    43    10    11    1
    44    10    12   ar
    45    13    12   ar
    46    13    34   ar
    47    12    29   ar
    48    35    34    1
    49    36    29    1
    50    34    32   ar
    51    29    30   ar
    52    32    30   ar
    53    32    33    1
    54    30    31    1
