@<TRIPOS>MOLECULE
CIMHIT
   190   227     3     0     0
SMALL
USER_CHARGES
****
Generated from the CSD

@<TRIPOS>ATOM
     1 P1      14.9498  12.8629  14.1558   P.3       1 RES1  -1.0000
     2 F1      15.2403  11.2978  14.1264   F         1 RES1   0.0000
     3 F2      13.7653  12.5166  13.0552   F         1 RES1   0.0000
     4 F3      15.9011  13.1718  13.0626   F         1 RES1   0.0000
     5 F4      15.9456  13.1042  15.3043   F         1 RES1   0.0000
     6 F5      13.8065  12.4645  15.2856   F         1 RES1   0.0000
     7 F6      14.3644  14.3007  14.2274   F         1 RES1   0.0000
     8 N5       9.3612   4.6671  10.9033   N.1       2 RES2   0.0000
     9 C51      9.5971   3.7272  10.2963   C.1       2 RES2   0.0000
    10 C52      9.9410   2.5648   9.5305   C.ar      2 RES2   0.0000
    11 C53     10.7589   1.5934  10.0863   C.ar      2 RES2   0.0000
    12 H32     11.0508   1.6684  10.9875   H         2 RES2   0.0000
    13 C54     11.1473   0.5146   9.3142   C.ar      2 RES2   0.0000
    14 H33     11.7034  -0.1595   9.6859   H         2 RES2   0.0000
    15 C55     10.7318   0.4160   8.0130   C.ar      2 RES2   0.0000
    16 H34     11.0106  -0.3244   7.4867   H         2 RES2   0.0000
    17 C56      9.9174   1.3688   7.4577   C.ar      2 RES2   0.0000
    18 H35      9.6348   1.2887   6.5535   H         2 RES2   0.0000
    19 C57      9.5098   2.4461   8.2205   C.ar      2 RES2   0.0000
    20 H36      8.9363   3.1044   7.8460   H         2 RES2   0.0000
    21 Fe1      9.1701   8.3751  14.0217   Fe        3 RES3   0.0000
    22 Cl1     10.7350  16.1807  14.1096   Cl        3 RES3   0.0000
    23 N1      10.2536  10.9959  14.0531   N.3       3 RES3   0.0000
    24 N2      10.6002   8.4667  15.4465   N.2       3 RES3   0.0000
    25 N3      10.7744   8.4182  12.7880   N.2       3 RES3   0.0000
    26 N4       9.1701   6.4179  14.0217   N.1       3 RES3   0.0000
    27 C1       9.1701  10.1886  14.0217   C.3       3 RES3   0.0000
    28 C2       9.8687  12.3365  14.0490   C.2       3 RES3   0.0000
    29 C3      10.5997  13.5111  14.0844   C.2       3 RES3   0.0000
    30 H1      11.5492  13.5117  14.1246   H         3 RES3   0.0000
    31 C4       9.8699  14.6784  14.0573   C.3       3 RES3   0.0000
    32 C5      11.5349  10.2971  14.1285   C.3       3 RES3   0.0000
    33 H2      12.2830  10.9598  14.1643   H         3 RES3   0.0000
    34 C6      11.5540   9.4333  15.3648   C.2       3 RES3   0.0000
    35 C7      12.5495   9.5649  16.3086   C.2       3 RES3   0.0000
    36 H3      13.1885  10.2641  16.2358   H         3 RES3   0.0000
    37 C8      12.6121   8.6789  17.3533   C.2       3 RES3   0.0000
    38 H4      13.2861   8.7666  18.0166   H         3 RES3   0.0000
    39 C9      11.6878   7.6624  17.4350   C.2       3 RES3   0.0000
    40 C10     10.6971   7.6046  16.4666   C.2       3 RES3   0.0000
    41 H5      10.0492   6.9126  16.5303   H         3 RES3   0.0000
    42 C11     11.7205   9.3781  12.9533   C.2       3 RES3   0.0000
    43 C12     12.8764   9.4034  12.1877   C.2       3 RES3   0.0000
    44 H6      13.5025  10.1093  12.2989   H         3 RES3   0.0000
    45 C13     13.1193   8.4072  11.2679   C.2       3 RES3   0.0000
    46 H7      13.9097   8.4164  10.7403   H         3 RES3   0.0000
    47 C14     12.1914   7.3969  11.1282   C.2       3 RES3   0.0000
    48 C15     11.0269   7.4558  11.8794   C.2       3 RES3   0.0000
    49 H8      10.3717   6.7811  11.7459   H         3 RES3   0.0000
    50 C16     11.7599   6.6175  18.5049   C.2       3 RES3   0.0000
    51 C17     11.5866   6.9889  19.8379   C.2       3 RES3   0.0000
    52 C18     11.3751   8.3106  20.2549   C.2       3 RES3   0.0000
    53 H9      11.2822   8.9920  19.5997   H         3 RES3   0.0000
    54 C19     11.2942   8.6459  21.5935   C.2       3 RES3   0.0000
    55 H10     11.1799   9.5518  21.8565   H         3 RES3   0.0000
    56 C20     11.3869   7.6314  22.5619   C.2       3 RES3   0.0000
    57 H11     11.3352   7.8597  23.4832   H         3 RES3   0.0000
    58 C21     11.5477   6.3464  22.2142   C.2       3 RES3   0.0000
    59 H12     11.5911   5.6835  22.8948   H         3 RES3   0.0000
    60 C22     11.6506   5.9518  20.8699   C.2       3 RES3   0.0000
    61 C23     11.8137   4.6470  20.4755   C.2       3 RES3   0.0000
    62 H13     11.7779   3.9706  21.1431   H         3 RES3   0.0000
    63 C24     12.0247   4.2610  19.1780   C.2       3 RES3   0.0000
    64 C25     12.3010   2.9308  18.8041   C.2       3 RES3   0.0000
    65 H14     12.2806   2.2533  19.4682   H         3 RES3   0.0000
    66 C26     12.5890   2.5955  17.5440   C.2       3 RES3   0.0000
    67 H15     12.7652   1.6875  17.3249   H         3 RES3   0.0000
    68 C27     12.6320   3.5818  16.5400   C.2       3 RES3   0.0000
    69 H16     12.8527   3.3396  15.6488   H         3 RES3   0.0000
    70 C28     12.3570   4.8840  16.8448   C.2       3 RES3   0.0000
    71 H17     12.3917   5.5340  16.1527   H         3 RES3   0.0000
    72 C29     12.0257   5.2955  18.1441   C.2       3 RES3   0.0000
    73 C30     12.4344   6.2052  10.2413   C.2       3 RES3   0.0000
    74 C31     13.1515   5.1312  10.7556   C.2       3 RES3   0.0000
    75 C32     13.6985   5.1163  12.0793   C.2       3 RES3   0.0000
    76 H18     13.6158   5.8887  12.6261   H         3 RES3   0.0000
    77 C33     14.3368   4.0214  12.5691   C.2       3 RES3   0.0000
    78 H19     14.6901   4.0375  13.4512   H         3 RES3   0.0000
    79 C34     14.4777   2.8519  11.7801   C.2       3 RES3   0.0000
    80 H20     14.8966   2.0810  12.1411   H         3 RES3   0.0000
    81 C35     14.0097   2.8423  10.5051   C.2       3 RES3   0.0000
    82 H21     14.1433   2.0695   9.9693   H         3 RES3   0.0000
    83 C36     13.3289   3.9513   9.9573   C.2       3 RES3   0.0000
    84 C37     12.7861   3.9081   8.6804   C.2       3 RES3   0.0000
    85 H22     12.9254   3.1368   8.1443   H         3 RES3   0.0000
    86 C38     12.0368   4.9697   8.1644   C.2       3 RES3   0.0000
    87 C39     11.4001   4.8781   6.9155   C.2       3 RES3   0.0000
    88 H23     11.5254   4.1072   6.3746   H         3 RES3   0.0000
    89 C40     10.6229   5.8701   6.4855   C.2       3 RES3   0.0000
    90 H24     10.1689   5.7747   5.6571   H         3 RES3   0.0000
    91 C41     10.4508   7.0650   7.2277   C.2       3 RES3   0.0000
    92 H25      9.9163   7.7689   6.8764   H         3 RES3   0.0000
    93 C42     11.0569   7.2115   8.4598   C.2       3 RES3   0.0000
    94 H26     10.9492   8.0137   8.9564   H         3 RES3   0.0000
    95 C43     11.8524   6.1409   8.9769   C.2       3 RES3   0.0000
    96 C44      9.1701   5.2727  14.0217   C.2       3 RES3   0.0000
    97 C45      8.9155   3.8721  14.0703   C.3       3 RES3   0.0000
    98 C46      7.6451   3.3592  14.3003   C.3       3 RES3   0.0000
    99 H27      6.9154   3.9484  14.4513   H         3 RES3   0.0000
   100 C47      7.4418   1.9839  14.3078   C.3       3 RES3   0.0000
   101 H28      6.5723   1.6337  14.4647   H         3 RES3   0.0000
   102 C48      8.5088   1.1222  14.0853   C.3       3 RES3   0.0000
   103 H29      8.3694   0.1823  14.0915   H         3 RES3   0.0000
   104 C49      9.7792   1.6348  13.8572   C.3       3 RES3   0.0000
   105 H30     10.5097   1.0456  13.7050   H         3 RES3   0.0000
   106 C50      9.9846   3.0097  13.8479   C.3       3 RES3   0.0000
   107 H31     10.8529   3.3603  13.6917   H         3 RES3   0.0000
   108 Cl1A     7.6052  16.1807  13.9339   Cl        3 RES3   0.0000
   109 N1A      8.0866  10.9959  13.9903   N.3       3 RES3   0.0000
   110 N2A      7.7401   8.4667  12.5969   N.2       3 RES3   0.0000
   111 N3A      7.5659   8.4182  15.2555   N.2       3 RES3   0.0000
   112 C2A      8.4715  12.3365  13.9944   C.2       3 RES3   0.0000
   113 C3A      7.7405  13.5111  13.9591   C.2       3 RES3   0.0000
   114 H1A      6.7911  13.5117  13.9189   H         3 RES3   0.0000
   115 C4A      8.4703  14.6784  13.9862   C.3       3 RES3   0.0000
   116 C5A      6.8053  10.2971  13.9150   C.3       3 RES3   0.0000
   117 H2A      6.0572  10.9598  13.8792   H         3 RES3   0.0000
   118 C6A      6.7863   9.4333  12.6786   C.2       3 RES3   0.0000
   119 C7A      5.7908   9.5649  11.7349   C.2       3 RES3   0.0000
   120 H3A      5.1518  10.2641  11.8076   H         3 RES3   0.0000
   121 C8A      5.7281   8.6789  10.6902   C.2       3 RES3   0.0000
   122 H4A      5.0541   8.7666  10.0269   H         3 RES3   0.0000
   123 C9A      6.6524   7.6624  10.6085   C.2       3 RES3   0.0000
   124 C10A     7.6431   7.6046  11.5769   C.2       3 RES3   0.0000
   125 H5A      8.2910   6.9126  11.5132   H         3 RES3   0.0000
   126 C11A     6.6198   9.3781  15.0902   C.2       3 RES3   0.0000
   127 C12A     5.4638   9.4034  15.8558   C.2       3 RES3   0.0000
   128 H6A      4.8377  10.1093  15.7445   H         3 RES3   0.0000
   129 C13A     5.2209   8.4072  16.7756   C.2       3 RES3   0.0000
   130 H7A      4.4305   8.4164  17.3032   H         3 RES3   0.0000
   131 C14A     6.1488   7.3969  16.9153   C.2       3 RES3   0.0000
   132 C15A     7.3133   7.4558  16.1641   C.2       3 RES3   0.0000
   133 H8A      7.9685   6.7811  16.2976   H         3 RES3   0.0000
   134 C16A     6.5804   6.6175   9.5385   C.2       3 RES3   0.0000
   135 C17A     6.7536   6.9889   8.2055   C.2       3 RES3   0.0000
   136 C18A     6.9651   8.3106   7.7886   C.2       3 RES3   0.0000
   137 H9A      7.0581   8.9920   8.4437   H         3 RES3   0.0000
   138 C19A     7.0461   8.6459   6.4500   C.2       3 RES3   0.0000
   139 H10A     7.1603   9.5518   6.1869   H         3 RES3   0.0000
   140 C20A     6.9533   7.6314   5.4816   C.2       3 RES3   0.0000
   141 H11A     7.0050   7.8597   4.5602   H         3 RES3   0.0000
   142 C21A     6.7925   6.3464   5.8293   C.2       3 RES3   0.0000
   143 H12A     6.7491   5.6835   5.1486   H         3 RES3   0.0000
   144 C22A     6.6896   5.9518   7.1735   C.2       3 RES3   0.0000
   145 C23A     6.5265   4.6470   7.5680   C.2       3 RES3   0.0000
   146 H13A     6.5623   3.9706   6.9003   H         3 RES3   0.0000
   147 C24A     6.3156   4.2610   8.8655   C.2       3 RES3   0.0000
   148 C25A     6.0392   2.9308   9.2394   C.2       3 RES3   0.0000
   149 H14A     6.0596   2.2533   8.5753   H         3 RES3   0.0000
   150 C26A     5.7512   2.5955  10.4995   C.2       3 RES3   0.0000
   151 H15A     5.5750   1.6875  10.7185   H         3 RES3   0.0000
   152 C27A     5.7083   3.5818  11.5034   C.2       3 RES3   0.0000
   153 H16A     5.4875   3.3396  12.3947   H         3 RES3   0.0000
   154 C28A     5.9832   4.8840  11.1987   C.2       3 RES3   0.0000
   155 H17A     5.9486   5.5340  11.8907   H         3 RES3   0.0000
   156 C29A     6.3145   5.2955   9.8993   C.2       3 RES3   0.0000
   157 C30A     5.9058   6.2052  17.8022   C.2       3 RES3   0.0000
   158 C31A     5.1887   5.1312  17.2879   C.2       3 RES3   0.0000
   159 C32A     4.6417   5.1163  15.9642   C.2       3 RES3   0.0000
   160 H18A     4.7244   5.8887  15.4174   H         3 RES3   0.0000
   161 C33A     4.0034   4.0214  15.4744   C.2       3 RES3   0.0000
   162 H19A     3.6501   4.0375  14.5922   H         3 RES3   0.0000
   163 C34A     3.8625   2.8519  16.2633   C.2       3 RES3   0.0000
   164 H20A     3.4437   2.0810  15.9023   H         3 RES3   0.0000
   165 C35A     4.3305   2.8423  17.5384   C.2       3 RES3   0.0000
   166 H21A     4.1969   2.0695  18.0741   H         3 RES3   0.0000
   167 C36A     5.0113   3.9513  18.0862   C.2       3 RES3   0.0000
   168 C37A     5.5541   3.9081  19.3631   C.2       3 RES3   0.0000
   169 H22A     5.4148   3.1368  19.8992   H         3 RES3   0.0000
   170 C38A     6.3034   4.9697  19.8791   C.2       3 RES3   0.0000
   171 C39A     6.9402   4.8781  21.1279   C.2       3 RES3   0.0000
   172 H23A     6.8148   4.1072  21.6689   H         3 RES3   0.0000
   173 C40A     7.7173   5.8701  21.5579   C.2       3 RES3   0.0000
   174 H24A     8.1713   5.7747  22.3864   H         3 RES3   0.0000
   175 C41A     7.8894   7.0650  20.8157   C.2       3 RES3   0.0000
   176 H25A     8.4240   7.7689  21.1671   H         3 RES3   0.0000
   177 C42A     7.2834   7.2115  19.5837   C.2       3 RES3   0.0000
   178 H26A     7.3910   8.0137  19.0871   H         3 RES3   0.0000
   179 C43A     6.4878   6.1409  19.0666   C.2       3 RES3   0.0000
   180 C45A     9.4247   3.8721  13.9731   C.3       3 RES3   0.0000
   181 C46A    10.6951   3.3592  13.7432   C.3       3 RES3   0.0000
   182 H27A    11.4249   3.9484  13.5921   H         3 RES3   0.0000
   183 C47A    10.8985   1.9839  13.7357   C.3       3 RES3   0.0000
   184 H28A    11.7680   1.6337  13.5788   H         3 RES3   0.0000
   185 C48A     9.8314   1.1222  13.9582   C.3       3 RES3   0.0000
   186 H29A     9.9708   0.1823  13.9520   H         3 RES3   0.0000
   187 C49A     8.5611   1.6348  14.1863   C.3       3 RES3   0.0000
   188 H30A     7.8305   1.0456  14.3385   H         3 RES3   0.0000
   189 C50A     8.3557   3.0097  14.1956   C.3       3 RES3   0.0000
   190 H31A     7.4873   3.3603  14.3517   H         3 RES3   0.0000
@<TRIPOS>BOND
     1     1     2    1
     2     3     1    1
     3     4     1    1
     4     5     1    1
     5     6     1    1
     6     7     1    1
     7     8     9    3
     8     9    10    1
     9    10    11   ar
    10    11    12    1
    11    13    11   ar
    12    14    13    1
    13    15    13   ar
    14    16    15    1
    15    17    15   ar
    16    18    17    1
    17    19    10   ar
    18    20    19    1
    19    17    19   ar
    20    21    24   un
    21    22    31    1
    22    23    27    1
    23    24    34   un
    24    25    21   un
    25    26    21   un
    26    27    21    1
    27    28    23    1
    28    29    28   un
    29    30    29    1
    30    31    29    1
    31    32    23    1
    32    33    32    1
    33    34    32    1
    34    35    34   un
    35    36    35    1
    36    37    35   un
    37    38    37    1
    38    39    37   un
    39    40    24   un
    40    41    40    1
    41    42    25   un
    42    43    42   un
    43    44    43    1
    44    45    43   un
    45    46    45    1
    46    47    45   un
    47    48    25   un
    48    49    48    1
    49    50    39   un
    50    51    50   un
    51    52    51   un
    52    53    52    1
    53    54    52   un
    54    55    54    1
    55    56    54   un
    56    57    56    1
    57    58    56   un
    58    59    58    1
    59    60    51   un
    60    61    60   un
    61    62    61    1
    62    63    61   un
    63    64    63   un
    64    65    64    1
    65    66    64   un
    66    67    66    1
    67    68    66   un
    68    69    68    1
    69    70    68   un
    70    71    70    1
    71    72    50   un
    72    73    47   un
    73    74    73   un
    74    75    74   un
    75    76    75    1
    76    77    75   un
    77    78    77    1
    78    79    77   un
    79    80    79    1
    80    81    79   un
    81    82    81    1
    82    83    74   un
    83    84    83   un
    84    85    84    1
    85    86    84   un
    86    87    86   un
    87    88    87    1
    88    89    87   un
    89    90    89    1
    90    91    89   un
    91    92    91    1
    92    93    91   un
    93    94    93    1
    94    95    73   un
    95    96    26   un
    96    97    96    1
    97    98    97    1
    98    99    98    1
    99   100    98    1
   100   101   100    1
   101   102   100    1
   102   103   102    1
   103   104   102    1
   104   105   104    1
   105   106    97    1
   106   107   106    1
   107   108   115    1
   108   109    27    1
   109   110    21   un
   110   111    21   un
   111   112    28   un
   112   113   112   un
   113   114   113    1
   114   115    31    1
   115   116   109    1
   116   117   116    1
   117   118   110   un
   118   119   118   un
   119   120   119    1
   120   121   119   un
   121   122   121    1
   122   123   121   un
   123   124   110   un
   124   125   124    1
   125   126   111   un
   126   127   126   un
   127   128   127    1
   128   129   127   un
   129   130   129    1
   130   131   129   un
   131   132   111   un
   132   133   132    1
   133   134   123   un
   134   135   134   un
   135   136   135   un
   136   137   136    1
   137   138   136   un
   138   139   138    1
   139   140   138   un
   140   141   140    1
   141   142   140   un
   142   143   142    1
   143   144   135   un
   144   145   144   un
   145   146   145    1
   146   147   145   un
   147   148   147   un
   148   149   148    1
   149   150   148   un
   150   151   150    1
   151   152   150   un
   152   153   152    1
   153   154   152   un
   154   155   154    1
   155   156   134   un
   156   157   131   un
   157   158   157   un
   158   159   158   un
   159   160   159    1
   160   161   159   un
   161   162   161    1
   162   163   161   un
   163   164   163    1
   164   165   163   un
   165   166   165    1
   166   167   158   un
   167   168   167   un
   168   169   168    1
   169   170   168   un
   170   171   170   un
   171   172   171    1
   172   173   171   un
   173   174   173    1
   174   175   173   un
   175   176   175    1
   176   177   175   un
   177   178   177    1
   178   179   157   un
   179   180    96    1
   180   181   106    1
   181   182   181    1
   182   183   104    1
   183   184   183    1
   184   185   102    1
   185   186   185    1
   186   187   100    1
   187   188   100    1
   188   189    97    1
   189   190   189    1
   190    32    42    1
   191    39    40   un
   192    47    48   un
   193    58    60   un
   194    63    72   un
   195    70    72   un
   196    81    83   un
   197    86    95   un
   198    93    95   un
   199    98   189    1
   200   100   189    1
   201   102   188    1
   202   104   106    1
   203   104   187    1
   204   105   183    1
   205   105   185    1
   206   106   180    1
   207   106   183    1
   208   106   189    1
   209   109   112    1
   210   113   115    1
   211   116   118    1
   212   116   126    1
   213   123   124   un
   214   131   132   un
   215   142   144   un
   216   147   156   un
   217   154   156   un
   218   165   167   un
   219   170   179   un
   220   177   179   un
   221   180   181    1
   222   180   189    1
   223   181   183    1
   224   183   185    1
   225   185   187    1
   226   187   188    1
   227   187   189    1
@<TRIPOS>SUBSTRUCTURE
     1 RES1        1 GROUP             0 ****  ****    0  
     2 RES2        8 GROUP             0 ****  ****    0  
     3 RES3       21 GROUP             0 ****  ****    0  
@<TRIPOS>CRYSIN
   19.7059   28.1810   18.7178   90.0000   92.7880   90.0000    15     1
