@<TRIPOS>MOLECULE
CIMHIT
   146   167     1     0     0
SMALL
NO_CHARGES
****
Generated from the CSD

@<TRIPOS>ATOM
     1 Fe1      9.1701   8.3751  14.0217   Fe        1 RES1   0.0000
     2 Cl1     10.7350  16.1807  14.1096   Cl        1 RES1   0.0000
     3 N1      10.2536  10.9959  14.0531   N.3       1 RES1   0.0000
     4 N2      10.6002   8.4667  15.4465   N.2       1 RES1   0.0000
     5 N3      10.7744   8.4182  12.7880   N.2       1 RES1   0.0000
     6 C1       9.1701  10.1886  14.0217   C.3       1 RES1   0.0000
     7 C2       9.8687  12.3365  14.0490   C.2       1 RES1   0.0000
     8 C3      10.5997  13.5111  14.0844   C.2       1 RES1   0.0000
     9 H1      11.5492  13.5117  14.1246   H         1 RES1   0.0000
    10 C4       9.8699  14.6784  14.0573   C.3       1 RES1   0.0000
    11 C5      11.5349  10.2971  14.1285   C.3       1 RES1   0.0000
    12 H2      12.2830  10.9598  14.1643   H         1 RES1   0.0000
    13 C6      11.5540   9.4333  15.3648   C.2       1 RES1   0.0000
    14 C7      12.5495   9.5649  16.3086   C.2       1 RES1   0.0000
    15 H3      13.1885  10.2641  16.2358   H         1 RES1   0.0000
    16 C8      12.6121   8.6789  17.3533   C.2       1 RES1   0.0000
    17 H4      13.2861   8.7666  18.0166   H         1 RES1   0.0000
    18 C9      11.6878   7.6624  17.4350   C.2       1 RES1   0.0000
    19 C10     10.6971   7.6046  16.4666   C.2       1 RES1   0.0000
    20 H5      10.0492   6.9126  16.5303   H         1 RES1   0.0000
    21 C11     11.7205   9.3781  12.9533   C.2       1 RES1   0.0000
    22 C12     12.8764   9.4034  12.1877   C.2       1 RES1   0.0000
    23 H6      13.5025  10.1093  12.2989   H         1 RES1   0.0000
    24 C13     13.1193   8.4072  11.2679   C.2       1 RES1   0.0000
    25 H7      13.9097   8.4164  10.7403   H         1 RES1   0.0000
    26 C14     12.1914   7.3969  11.1282   C.2       1 RES1   0.0000
    27 C15     11.0269   7.4558  11.8794   C.2       1 RES1   0.0000
    28 H8      10.3717   6.7811  11.7459   H         1 RES1   0.0000
    29 C16     11.7599   6.6175  18.5049   C.2       1 RES1   0.0000
    30 C17     11.5866   6.9889  19.8379   C.2       1 RES1   0.0000
    31 C18     11.3751   8.3106  20.2549   C.2       1 RES1   0.0000
    32 H9      11.2822   8.9920  19.5997   H         1 RES1   0.0000
    33 C19     11.2942   8.6459  21.5935   C.2       1 RES1   0.0000
    34 H10     11.1799   9.5518  21.8565   H         1 RES1   0.0000
    35 C20     11.3869   7.6314  22.5619   C.2       1 RES1   0.0000
    36 H11     11.3352   7.8597  23.4832   H         1 RES1   0.0000
    37 C21     11.5477   6.3464  22.2142   C.2       1 RES1   0.0000
    38 H12     11.5911   5.6835  22.8948   H         1 RES1   0.0000
    39 C22     11.6506   5.9518  20.8699   C.2       1 RES1   0.0000
    40 C23     11.8137   4.6470  20.4755   C.2       1 RES1   0.0000
    41 H13     11.7779   3.9706  21.1431   H         1 RES1   0.0000
    42 C24     12.0247   4.2610  19.1780   C.2       1 RES1   0.0000
    43 C25     12.3010   2.9308  18.8041   C.2       1 RES1   0.0000
    44 H14     12.2806   2.2533  19.4682   H         1 RES1   0.0000
    45 C26     12.5890   2.5955  17.5440   C.2       1 RES1   0.0000
    46 H15     12.7652   1.6875  17.3249   H         1 RES1   0.0000
    47 C27     12.6320   3.5818  16.5400   C.2       1 RES1   0.0000
    48 H16     12.8527   3.3396  15.6488   H         1 RES1   0.0000
    49 C28     12.3570   4.8840  16.8448   C.2       1 RES1   0.0000
    50 H17     12.3917   5.5340  16.1527   H         1 RES1   0.0000
    51 C29     12.0257   5.2955  18.1441   C.2       1 RES1   0.0000
    52 C30     12.4344   6.2052  10.2413   C.2       1 RES1   0.0000
    53 C31     13.1515   5.1312  10.7556   C.2       1 RES1   0.0000
    54 C32     13.6985   5.1163  12.0793   C.2       1 RES1   0.0000
    55 H18     13.6158   5.8887  12.6261   H         1 RES1   0.0000
    56 C33     14.3368   4.0214  12.5691   C.2       1 RES1   0.0000
    57 H19     14.6901   4.0375  13.4512   H         1 RES1   0.0000
    58 C34     14.4777   2.8519  11.7801   C.2       1 RES1   0.0000
    59 H20     14.8966   2.0810  12.1411   H         1 RES1   0.0000
    60 C35     14.0097   2.8423  10.5051   C.2       1 RES1   0.0000
    61 H21     14.1433   2.0695   9.9693   H         1 RES1   0.0000
    62 C36     13.3289   3.9513   9.9573   C.2       1 RES1   0.0000
    63 C37     12.7861   3.9081   8.6804   C.2       1 RES1   0.0000
    64 H22     12.9254   3.1368   8.1443   H         1 RES1   0.0000
    65 C38     12.0368   4.9697   8.1644   C.2       1 RES1   0.0000
    66 C39     11.4001   4.8781   6.9155   C.2       1 RES1   0.0000
    67 H23     11.5254   4.1072   6.3746   H         1 RES1   0.0000
    68 C40     10.6229   5.8701   6.4855   C.2       1 RES1   0.0000
    69 H24     10.1689   5.7747   5.6571   H         1 RES1   0.0000
    70 C41     10.4508   7.0650   7.2277   C.2       1 RES1   0.0000
    71 H25      9.9163   7.7689   6.8764   H         1 RES1   0.0000
    72 C42     11.0569   7.2115   8.4598   C.2       1 RES1   0.0000
    73 H26     10.9492   8.0137   8.9564   H         1 RES1   0.0000
    74 C43     11.8524   6.1409   8.9769   C.2       1 RES1   0.0000
    75 Cl1A     7.6052  16.1807  13.9339   Cl        1 RES1   0.0000
    76 N1A      8.0866  10.9959  13.9903   N.3       1 RES1   0.0000
    77 N2A      7.7401   8.4667  12.5969   N.2       1 RES1   0.0000
    78 N3A      7.5659   8.4182  15.2555   N.2       1 RES1   0.0000
    79 C2A      8.4715  12.3365  13.9944   C.2       1 RES1   0.0000
    80 C3A      7.7405  13.5111  13.9591   C.2       1 RES1   0.0000
    81 H1A      6.7911  13.5117  13.9189   H         1 RES1   0.0000
    82 C4A      8.4703  14.6784  13.9862   C.3       1 RES1   0.0000
    83 C5A      6.8053  10.2971  13.9150   C.3       1 RES1   0.0000
    84 H2A      6.0572  10.9598  13.8792   H         1 RES1   0.0000
    85 C6A      6.7863   9.4333  12.6786   C.2       1 RES1   0.0000
    86 C7A      5.7908   9.5649  11.7349   C.2       1 RES1   0.0000
    87 H3A      5.1518  10.2641  11.8076   H         1 RES1   0.0000
    88 C8A      5.7281   8.6789  10.6902   C.2       1 RES1   0.0000
    89 H4A      5.0541   8.7666  10.0269   H         1 RES1   0.0000
    90 C9A      6.6524   7.6624  10.6085   C.2       1 RES1   0.0000
    91 C10A     7.6431   7.6046  11.5769   C.2       1 RES1   0.0000
    92 H5A      8.2910   6.9126  11.5132   H         1 RES1   0.0000
    93 C11A     6.6198   9.3781  15.0902   C.2       1 RES1   0.0000
    94 C12A     5.4638   9.4034  15.8558   C.2       1 RES1   0.0000
    95 H6A      4.8377  10.1093  15.7445   H         1 RES1   0.0000
    96 C13A     5.2209   8.4072  16.7756   C.2       1 RES1   0.0000
    97 H7A      4.4305   8.4164  17.3032   H         1 RES1   0.0000
    98 C14A     6.1488   7.3969  16.9153   C.2       1 RES1   0.0000
    99 C15A     7.3133   7.4558  16.1641   C.2       1 RES1   0.0000
   100 H8A      7.9685   6.7811  16.2976   H         1 RES1   0.0000
   101 C16A     6.5804   6.6175   9.5385   C.2       1 RES1   0.0000
   102 C17A     6.7536   6.9889   8.2055   C.2       1 RES1   0.0000
   103 C18A     6.9651   8.3106   7.7886   C.2       1 RES1   0.0000
   104 H9A      7.0581   8.9920   8.4437   H         1 RES1   0.0000
   105 C19A     7.0461   8.6459   6.4500   C.2       1 RES1   0.0000
   106 H10A     7.1603   9.5518   6.1869   H         1 RES1   0.0000
   107 C20A     6.9533   7.6314   5.4816   C.2       1 RES1   0.0000
   108 H11A     7.0050   7.8597   4.5602   H         1 RES1   0.0000
   109 C21A     6.7925   6.3464   5.8293   C.2       1 RES1   0.0000
   110 H12A     6.7491   5.6835   5.1486   H         1 RES1   0.0000
   111 C22A     6.6896   5.9518   7.1735   C.2       1 RES1   0.0000
   112 C23A     6.5265   4.6470   7.5680   C.2       1 RES1   0.0000
   113 H13A     6.5623   3.9706   6.9003   H         1 RES1   0.0000
   114 C24A     6.3156   4.2610   8.8655   C.2       1 RES1   0.0000
   115 C25A     6.0392   2.9308   9.2394   C.2       1 RES1   0.0000
   116 H14A     6.0596   2.2533   8.5753   H         1 RES1   0.0000
   117 C26A     5.7512   2.5955  10.4995   C.2       1 RES1   0.0000
   118 H15A     5.5750   1.6875  10.7185   H         1 RES1   0.0000
   119 C27A     5.7083   3.5818  11.5034   C.2       1 RES1   0.0000
   120 H16A     5.4875   3.3396  12.3947   H         1 RES1   0.0000
   121 C28A     5.9832   4.8840  11.1987   C.2       1 RES1   0.0000
   122 H17A     5.9486   5.5340  11.8907   H         1 RES1   0.0000
   123 C29A     6.3145   5.2955   9.8993   C.2       1 RES1   0.0000
   124 C30A     5.9058   6.2052  17.8022   C.2       1 RES1   0.0000
   125 C31A     5.1887   5.1312  17.2879   C.2       1 RES1   0.0000
   126 C32A     4.6417   5.1163  15.9642   C.2       1 RES1   0.0000
   127 H18A     4.7244   5.8887  15.4174   H         1 RES1   0.0000
   128 C33A     4.0034   4.0214  15.4744   C.2       1 RES1   0.0000
   129 H19A     3.6501   4.0375  14.5922   H         1 RES1   0.0000
   130 C34A     3.8625   2.8519  16.2633   C.2       1 RES1   0.0000
   131 H20A     3.4437   2.0810  15.9023   H         1 RES1   0.0000
   132 C35A     4.3305   2.8423  17.5384   C.2       1 RES1   0.0000
   133 H21A     4.1969   2.0695  18.0741   H         1 RES1   0.0000
   134 C36A     5.0113   3.9513  18.0862   C.2       1 RES1   0.0000
   135 C37A     5.5541   3.9081  19.3631   C.2       1 RES1   0.0000
   136 H22A     5.4148   3.1368  19.8992   H         1 RES1   0.0000
   137 C38A     6.3034   4.9697  19.8791   C.2       1 RES1   0.0000
   138 C39A     6.9402   4.8781  21.1279   C.2       1 RES1   0.0000
   139 H23A     6.8148   4.1072  21.6689   H         1 RES1   0.0000
   140 C40A     7.7173   5.8701  21.5579   C.2       1 RES1   0.0000
   141 H24A     8.1713   5.7747  22.3864   H         1 RES1   0.0000
   142 C41A     7.8894   7.0650  20.8157   C.2       1 RES1   0.0000
   143 H25A     8.4240   7.7689  21.1671   H         1 RES1   0.0000
   144 C42A     7.2834   7.2115  19.5837   C.2       1 RES1   0.0000
   145 H26A     7.3910   8.0137  19.0871   H         1 RES1   0.0000
   146 C43A     6.4878   6.1409  19.0666   C.2       1 RES1   0.0000
@<TRIPOS>BOND
     1     1     4   un
     2     2    10    1
     3     3     6    1
     4     4    13   un
     5     5     1   un
     6     6     1    1
     7     7     3    1
     8     8     7   un
     9     9     8    1
    10    10     8    1
    11    11     3    1
    12    12    11    1
    13    13    11    1
    14    14    13   un
    15    15    14    1
    16    16    14   un
    17    17    16    1
    18    18    16   un
    19    19     4   un
    20    20    19    1
    21    21     5   un
    22    22    21   un
    23    23    22    1
    24    24    22   un
    25    25    24    1
    26    26    24   un
    27    27     5   un
    28    28    27    1
    29    29    18   un
    30    30    29   un
    31    31    30   un
    32    32    31    1
    33    33    31   un
    34    34    33    1
    35    35    33   un
    36    36    35    1
    37    37    35   un
    38    38    37    1
    39    39    30   un
    40    40    39   un
    41    41    40    1
    42    42    40   un
    43    43    42   un
    44    44    43    1
    45    45    43   un
    46    46    45    1
    47    47    45   un
    48    48    47    1
    49    49    47   un
    50    50    49    1
    51    51    29   un
    52    52    26   un
    53    53    52   un
    54    54    53   un
    55    55    54    1
    56    56    54   un
    57    57    56    1
    58    58    56   un
    59    59    58    1
    60    60    58   un
    61    61    60    1
    62    62    53   un
    63    63    62   un
    64    64    63    1
    65    65    63   un
    66    66    65   un
    67    67    66    1
    68    68    66   un
    69    69    68    1
    70    70    68   un
    71    71    70    1
    72    72    70   un
    73    73    72    1
    74    74    52   un
    75    75    82    1
    76    76     6    1
    77    77     1   un
    78    78     1   un
    79    79     7   un
    80    80    79   un
    81    81    80    1
    82    82    10    1
    83    83    76    1
    84    84    83    1
    85    85    77   un
    86    86    85   un
    87    87    86    1
    88    88    86   un
    89    89    88    1
    90    90    88   un
    91    91    77   un
    92    92    91    1
    93    93    78   un
    94    94    93   un
    95    95    94    1
    96    96    94   un
    97    97    96    1
    98    98    96   un
    99    99    78   un
   100   100    99    1
   101   101    90   un
   102   102   101   un
   103   103   102   un
   104   104   103    1
   105   105   103   un
   106   106   105    1
   107   107   105   un
   108   108   107    1
   109   109   107   un
   110   110   109    1
   111   111   102   un
   112   112   111   un
   113   113   112    1
   114   114   112   un
   115   115   114   un
   116   116   115    1
   117   117   115   un
   118   118   117    1
   119   119   117   un
   120   120   119    1
   121   121   119   un
   122   122   121    1
   123   123   101   un
   124   124    98   un
   125   125   124   un
   126   126   125   un
   127   127   126    1
   128   128   126   un
   129   129   128    1
   130   130   128   un
   131   131   130    1
   132   132   130   un
   133   133   132    1
   134   134   125   un
   135   135   134   un
   136   136   135    1
   137   137   135   un
   138   138   137   un
   139   139   138    1
   140   140   138   un
   141   141   140    1
   142   142   140   un
   143   143   142    1
   144   144   142   un
   145   145   144    1
   146   146   124   un
   147    11    21    1
   148    18    19   un
   149    26    27   un
   150    37    39   un
   151    42    51   un
   152    49    51   un
   153    60    62   un
   154    65    74   un
   155    72    74   un
   156    76    79    1
   157    80    82    1
   158    83    85    1
   159    83    93    1
   160    90    91   un
   161    98    99   un
   162   109   111   un
   163   114   123   un
   164   121   123   un
   165   132   134   un
   166   137   146   un
   167   144   146   un
@<TRIPOS>SUBSTRUCTURE
     1 RES1        1 GROUP             0 ****  ****    0  
@<TRIPOS>CRYSIN
   19.7059   28.1810   18.7178   90.0000   92.7880   90.0000    15     1
