@<TRIPOS>MOLECULE
Coordinates from ORCA-job ABASEE_1_1_tpss_d4_lanl2dz_631gpol_Co3.opt
 43 46 0 0 0
SMALL
GASTEIGER

@<TRIPOS>ATOM
      1 CO          2.1714   10.2524    3.2921 Co.oh   1  UNL1        0.0000
      2 O          -2.1305   10.3069    5.2467 O.3     1  UNL1        0.0000
      3 N           3.7726   10.5136    2.2161 N.pl3   1  UNL1        0.0000
      4 N           2.2816    8.5190    2.5656 N.3     1  UNL1        0.0000
      5 N           0.4906    9.6475    4.1846 N.4     1  UNL1        0.0000
      6 N           1.8709   12.0806    3.2432 N.2     1  UNL1        0.0000
      7 N           1.0297   12.7905    3.7881 N.2     1  UNL1        0.0000
      8 N           0.2603   13.5279    4.2527 N.2     1  UNL1        0.0000
      9 N           3.1482    9.7362    4.8613 N.2     1  UNL1        0.0000
     10 N           4.2017    9.1290    4.6714 N.2     1  UNL1        0.0000
     11 N           5.2024    8.5460    4.5446 N.2     1  UNL1        0.0000
     12 C           4.5047   11.6374    2.1356 C.3     1  UNL1        0.0000
     13 H           4.1062   12.4928    2.6735 H       1  UNL1        0.0000
     14 C           5.6899   11.6830    1.3915 C.2     1  UNL1        0.0000
     15 H           6.2589   12.6078    1.3508 H       1  UNL1        0.0000
     16 C           6.1200   10.5347    0.7183 C.2     1  UNL1        0.0000
     17 H           7.0395   10.5451    0.1381 H       1  UNL1        0.0000
     18 C           5.3545    9.3654    0.8030 C.2     1  UNL1        0.0000
     19 H           5.6650    8.4571    0.2938 H       1  UNL1        0.0000
     20 C           4.1833    9.3798    1.5668 C.2     1  UNL1        0.0000
     21 C           3.2889    8.2355    1.7806 C.3     1  UNL1        0.0000
     22 C           3.5544    6.9008    1.1483 C.3     1  UNL1        0.0000
     23 H           2.7492    6.1863    1.3371 H       1  UNL1        0.0000
     24 H           4.4928    6.4831    1.5400 H       1  UNL1        0.0000
     25 H           3.6671    7.0123    0.0615 H       1  UNL1        0.0000
     26 C           1.2259    7.5905    2.9919 C.3     1  UNL1        0.0000
     27 H           1.6131    6.5775    3.1541 H       1  UNL1        0.0000
     28 H           0.4592    7.5422    2.2061 H       1  UNL1        0.0000
     29 C           0.6757    8.1529    4.3013 C.3     1  UNL1        0.0000
     30 H          -0.2625    7.6579    4.5763 H       1  UNL1        0.0000
     31 H           1.4074    8.0040    5.1008 H       1  UNL1        0.0000
     32 C          -0.6856   10.0104    3.3113 C.3     1  UNL1        0.0000
     33 H          -0.5772    9.5072    2.3428 H       1  UNL1        0.0000
     34 H          -0.6448   11.0911    3.1499 H       1  UNL1        0.0000
     35 C          -2.0260    9.6623    3.9840 C.3     1  UNL1        0.0000
     36 H          -2.8457   10.0435    3.3665 H       1  UNL1        0.0000
     37 H          -2.1520    8.5698    4.0922 H       1  UNL1        0.0000
     38 C          -1.0938    9.8650    6.1257 C.3     1  UNL1        0.0000
     39 H          -1.1815    8.7796    6.3082 H       1  UNL1        0.0000
     40 H          -1.2471   10.3890    7.0741 H       1  UNL1        0.0000
     41 C           0.2814   10.2397    5.5565 C.3     1  UNL1        0.0000
     42 H           0.3262   11.3264    5.4584 H       1  UNL1        0.0000
     43 H           1.1090    9.9041    6.1891 H       1  UNL1        0.0000
@<TRIPOS>BOND
     1    25    22    1
     2    17    16    1
     3    19    18    1
     4    16    18    1
     5    16    14    2
     6    18    20    2
     7    22    23    1
     8    22    24    1
     9    22    21    1
    10    15    14    1
    11    14    12    1
    12    20    21    1
    13    20     3    1
    14    21     4    1
    15    12     3    1
    16    12    13    1
    17    28    26    1
    18     3     1    1
    19    33    32    1
    20     4    26    1
    21     4     1    1
    22    26    27    1
    23    26    29    1
    24    34    32    1
    25     6     1    1
    26     6     7    2
    27     1     5    1
    28     1     9    1
    29    32    35    1
    30    32     5    1
    31    36    35    1
    32     7     8    2
    33    35    37    1
    34    35     2    1
    35     5    29    1
    36     5    41    1
    37    29    30    1
    38    29    31    1
    39    11    10    2
    40    10     9    2
    41     2    38    1
    42    42    41    1
    43    41    38    1
    44    41    43    1
    45    38    39    1
    46    38    40    1
