@<TRIPOS>MOLECULE
Variation of chain03
 46 45 0 0 0
SMALL
GASTEIGER

@<TRIPOS>ATOM
      1 C           0.8491    0.7957   -0.1576 C.2     1  UNL1        0.0000
      2 C          -0.0298   -0.1971   -0.8486 C.2     1  UNL1        0.0000
      3 O           1.0282    1.0415    1.1350 O.2     1  UNL1        0.0000
      4 C          -1.0112   -1.2548   -0.4512 C.2     1  UNL1        0.0000
      5 O          -1.3977   -1.6862    0.7443 O.2     1  UNL1        0.0000
      6 C          -1.6934   -1.9935   -1.6245 C.2     1  UNL1        0.0000
      7 H          -1.5040   -1.7184   -2.6349 H       1  UNL1        0.0000
      8 C           1.6870    1.6911   -1.0889 C.2     1  UNL1        0.0000
      9 H           1.6513    1.5599   -2.1507 H       1  UNL1        0.0000
     10 C           2.4845    2.6570   -0.5626 C.2     1  UNL1        0.0000
     11 H           2.5316    2.8034    0.4953 H       1  UNL1        0.0000
     12 H           3.0666    3.2708   -1.2130 H       1  UNL1        0.0000
     13 C          -2.5461   -3.0044   -1.3653 C.3     1  UNL1        0.0000
     14 H          -3.0307   -3.5105   -2.1756 H       1  UNL1        0.0000
     15 H          -2.7339   -3.2957   -0.3549 H       1  UNL1        0.0000
     16 FE         -0.3280   -0.4782    2.8765 Fe      1  UNL1        0.0000
     17 C           0.1052   -0.1144   -2.3733 C.ar    1  UNL1        0.0000
     18 C           1.0546   -0.8838   -3.0570 C.ar    1  UNL1        0.0000
     19 C          -0.7620    0.7471   -3.0897 C.ar    1  UNL1        0.0000
     20 C           1.1289   -0.8242   -4.4560 C.ar    1  UNL1        0.0000
     21 C          -0.6111    0.8711   -4.4790 C.ar    1  UNL1        0.0000
     22 H          -1.5128    1.3012   -2.5663 H       1  UNL1        0.0000
     23 C           0.2865    0.0468   -5.1651 C.ar    1  UNL1        0.0000
     24 CL         -1.7115    0.5166    4.2073 Cl      1  UNL1        0.0000
     25 CL          0.8593   -1.6808    4.2406 Cl      1  UNL1        0.0000
     26 C          -1.4193    1.9227   -5.2632 C.3     1  UNL1        0.0000
     27 H          -0.8739    2.1829   -6.1510 H       1  UNL1        0.0000
     28 H          -1.5596    2.7930   -4.6622 H       1  UNL1        0.0000
     29 C           0.3422    0.1073   -6.6989 C.2     1  UNL1        0.0000
     30 C           1.1975   -0.7436   -7.3995 C.2     1  UNL1        0.0000
     31 H           1.8188   -1.4295   -6.8660 H       1  UNL1        0.0000
     32 H           1.2276   -0.7087   -8.4658 H       1  UNL1        0.0000
     33 H          -0.2748    0.7978   -7.2266 H       1  UNL1        0.0000
     34 C          -2.7924    1.3549   -5.6582 C.3     1  UNL1        0.0000
     35 H          -2.6661    0.4471   -6.2203 H       1  UNL1        0.0000
     36 H          -3.3617    1.1479   -4.7746 H       1  UNL1        0.0000
     37 C          -3.5226    2.3993   -6.5277 C.2     1  UNL1        0.0000
     38 C          -4.9168    2.5003   -6.4846 C.2     1  UNL1        0.0000
     39 H          -5.4041    3.2134   -7.1088 H       1  UNL1        0.0000
     40 H          -5.4913    1.8705   -5.8249 H       1  UNL1        0.0000
     41 H          -2.9610    3.0454   -7.1729 H       1  UNL1        0.0000
     42 H           1.8265   -1.4416   -4.9823 H       1  UNL1        0.0000
     43 C           2.0053   -1.8031   -2.2680 C.3     1  UNL1        0.0000
     44 H           2.5766   -1.2177   -1.5783 H       1  UNL1        0.0000
     45 H           1.4336   -2.5305   -1.7304 H       1  UNL1        0.0000
     46 H           2.6662   -2.3000   -2.9471 H       1  UNL1        0.0000
@<TRIPOS>BOND
     1    32    30    1
     2    30    31    1
     3    30    29    2
     4    33    29    1
     5    41    37    1
     6    39    38    1
     7    29    23    1
     8    37    38    2
     9    37    34    1
    10    38    40    1
    11    35    34    1
    12    27    26    1
    13    34    26    1
    14    34    36    1
    15    26    28    1
    16    26    21    1
    17    23    21   ar
    18    23    20   ar
    19    42    20    1
    20    21    19   ar
    21    20    18   ar
    22    19    22    1
    23    19    17   ar
    24    18    17   ar
    25    18    43    1
    26    46    43    1
    27     7     6    1
    28    17     2    1
    29    43    45    1
    30    43    44    1
    31    14    13    1
    32     9     8    1
    33     6    13    1
    34     6     4    2
    35    13    15    1
    36    12    10    1
    37     8    10    2
    38     8     1    1
    39     2     4    1
    40     2     1    2
    41    10    11    1
    42     4     5    1
    43     1     3    1
    44    16    24    1
    45    16    25    1
