@<TRIPOS>MOLECULE
Variation of chain02
 52 53 0 0 0
SMALL
GASTEIGER

@<TRIPOS>ATOM
      1 C           0.2899    1.4957   -0.0000 C.ar    1  UNL1        0.0000
      2 C           1.5324    2.1439   -0.0000 C.ar    1  UNL1        0.0000
      3 H           2.4353    1.5698   -0.0000 H       1  UNL1        0.0000
      4 C           1.5923    3.5440    0.0000 C.ar    1  UNL1        0.0000
      5 C           2.9576    4.2563    0.0000 C.2     1  UNL1        0.0000
      6 C           4.1012    3.5292   -0.0000 C.2     1  UNL1        0.0000
      7 O          -0.9817   -0.7010   -0.0000 O.co2   1  UNL1        0.0000
      8 O           1.5279   -0.9064   -0.0000 O.co2   1  UNL1        0.0000
      9 FE          0.0610   -3.1383   -0.0000 Fe      1  UNL1        0.0000
     10 C           0.2241   -0.0429   -0.0000 C.2     1  UNL1        0.0000
     11 CL         -0.0552   -4.5971    1.5751 Cl      1  UNL1        0.0000
     12 CL         -0.0552   -4.5971   -1.5752 Cl      1  UNL1        0.0000
     13 C          -0.8927    2.2476    0.0000 C.ar    1  UNL1        0.0000
     14 C          -2.1352    1.5994    0.0000 C.ar    1  UNL1        0.0000
     15 C          -0.8328    3.6477    0.0000 C.ar    1  UNL1        0.0000
     16 C          -3.3178    2.3513    0.0000 C.ar    1  UNL1        0.0000
     17 H          -2.1809    0.5303   -0.0000 H       1  UNL1        0.0000
     18 C          -2.0154    4.3996    0.0000 C.ar    1  UNL1        0.0000
     19 C          -3.2579    3.7514    0.0000 C.ar    1  UNL1        0.0000
     20 H          -4.2664    1.8563    0.0000 H       1  UNL1        0.0000
     21 H          -1.9697    5.4686    0.0000 H       1  UNL1        0.0000
     22 C           0.4097    4.2959    0.0000 C.ar    1  UNL1        0.0000
     23 H           0.4554    5.3649    0.0000 H       1  UNL1        0.0000
     24 H           4.0555    2.4602   -0.0000 H       1  UNL1        0.0000
     25 H           3.0033    5.3253    0.0000 H       1  UNL1        0.0000
     26 C          -4.5575    4.5777    0.0000 C.3     1  UNL1        0.0000
     27 H          -4.5878    5.1947   -0.8736 H       1  UNL1        0.0000
     28 H          -5.3997    3.9177   -0.0000 H       1  UNL1        0.0000
     29 C          -4.6012    5.4656    1.2575 C.3     1  UNL1        0.0000
     30 H          -3.9330    6.2922    1.1338 H       1  UNL1        0.0000
     31 H          -4.3042    4.8914    2.1101 H       1  UNL1        0.0000
     32 C          -6.0339    5.9904    1.4658 C.3     1  UNL1        0.0000
     33 H          -6.3703    6.4734    0.5722 H       1  UNL1        0.0000
     34 H          -6.6838    5.1719    1.6950 H       1  UNL1        0.0000
     35 C          -6.0473    6.9982    2.6302 C.3     1  UNL1        0.0000
     36 H          -5.4015    7.8193    2.3987 H       1  UNL1        0.0000
     37 H          -7.0437    7.3589    2.7783 H       1  UNL1        0.0000
     38 H          -5.7060    6.5166    3.5226 H       1  UNL1        0.0000
     39 C           5.4666    4.2415   -0.0000 C.3     1  UNL1        0.0000
     40 H           5.5465    4.8594   -0.8699 H       1  UNL1        0.0000
     41 H           5.5525    4.8480    0.8773 H       1  UNL1        0.0000
     42 C           6.5933    3.1917   -0.0107 C.ar    1  UNL1        0.0000
     43 C           7.1113    2.7121    1.1927 C.ar    1  UNL1        0.0000
     44 C           7.0959    2.7203   -1.2234 C.ar    1  UNL1        0.0000
     45 C           8.1320    1.7618    1.1832 C.ar    1  UNL1        0.0000
     46 H           6.7154    3.0846    2.1486 H       1  UNL1        0.0000
     47 C           8.1163    1.7689   -1.2330 C.ar    1  UNL1        0.0000
     48 H           6.6876    3.0980   -2.1720 H       1  UNL1        0.0000
     49 C           8.6345    1.2897   -0.0300 C.ar    1  UNL1        0.0000
     50 H           8.5408    1.3842    2.1317 H       1  UNL1        0.0000
     51 H           8.5120    1.3971   -2.1894 H       1  UNL1        0.0000
     52 H           9.4393    0.5404   -0.0372 H       1  UNL1        0.0000
@<TRIPOS>BOND
     1    51    47    1
     2    48    44    1
     3    12     9    1
     4    47    44   ar
     5    47    49   ar
     6    44    42   ar
     7    27    26    1
     8    40    39    1
     9    52    49    1
    10    49    45   ar
    11    42    39    1
    12    42    43   ar
    13     9    11    1
    14     8    10   ar
    15    28    26    1
    16    24     6    1
    17     7    10   ar
    18    10     1    1
    19     3     2    1
    20     6    39    1
    21     6     5    2
    22    39    41    1
    23     2     1   ar
    24     2     4   ar
    25    17    14    1
    26     1    13   ar
    27     5     4    1
    28     5    25    1
    29    14    13   ar
    30    14    16   ar
    31     4    22   ar
    32    13    15   ar
    33    20    16    1
    34    16    19   ar
    35    22    15   ar
    36    22    23    1
    37    15    18   ar
    38    19    18   ar
    39    19    26    1
    40    18    21    1
    41    26    29    1
    42    33    32    1
    43    30    29    1
    44    45    43   ar
    45    45    50    1
    46    43    46    1
    47    29    32    1
    48    29    31    1
    49    32    34    1
    50    32    35    1
    51    36    35    1
    52    35    37    1
    53    35    38    1
