@<TRIPOS>MOLECULE
Test molecule to test the detection of conjugated chains
 22 20 0 0 0
SMALL
GASTEIGER

@<TRIPOS>ATOM
      1 C          -1.1655    0.7973    0.0000 C.2     1  UNL1        0.0000
      2 H          -2.1960    1.0853    0.0000 H       1  UNL1        0.0000
      3 C          -0.1971    1.7453    0.0000 C.2     1  UNL1        0.0000
      4 H           0.8335    1.4574    0.0000 H       1  UNL1        0.0000
      5 C          -0.5797    3.2370    0.0000 C.2     1  UNL1        0.0000
      6 H          -1.6103    3.5250    0.0000 H       1  UNL1        0.0000
      7 C           0.3887    4.1850    0.0000 C.2     1  UNL1        0.0000
      8 C           0.0060    5.6767    0.0000 C.2     1  UNL1        0.0000
      9 C           0.9745    6.6247    0.0000 C.2     1  UNL1        0.0000
     10 H           0.7086    7.6611    0.0000 H       1  UNL1        0.0000
     11 H           2.0050    6.3368    0.0000 H       1  UNL1        0.0000
     12 O          -1.7464   -1.6735    0.0000 O.co2   1  UNL1        0.0000
     13 O           0.7151   -1.1432    0.0000 O.co2   1  UNL1        0.0000
     14 FE         -0.0424   -3.7043    0.0000 Fe      1  UNL1        0.0000
     15 C          -0.7828   -0.6944    0.0000 C.2     1  UNL1        0.0000
     16 CL          0.2689   -5.1341    1.5752 Cl      1  UNL1        0.0000
     17 CL          0.2689   -5.1341   -1.5752 Cl      1  UNL1        0.0000
     18 C          -1.4772    6.0911    0.0000 C.1     1  UNL1        0.0000
     19 N          -2.5815    6.3997    0.0000 N.1     1  UNL1        0.0000
     20 C           1.8719    3.7706    0.0000 C.2     1  UNL1        0.0000
     21 H           2.1378    2.7342    0.0000 H       1  UNL1        0.0000
     22 O           2.7711    4.6509    0.0000 O.2     1  UNL1        0.0000
@<TRIPOS>BOND
     1    17    14    1
     2    12    15   ar
     3    22    20    2
     4    21    20    1
     5    20     7    1
     6    19    18    3
     7    18     8    1
     8    15    13   ar
     9    15     1    1
    10    14    16    1
    11     1     3    2
    12     1     2    1
    13    11     9    1
    14    10     9    1
    15     9     8    2
    16     8     7    1
    17     7     5    2
    18     6     5    1
    19     5     3    1
    20     4     3    1
