@<TRIPOS>MOLECULE
Test molecule to test the detection of conjugated chains
 27 27 0 0 0
SMALL
GASTEIGER

@<TRIPOS>ATOM
      1 C           0.2899    1.4957   -0.0000 C.ar    1  UNL1        0.0000
      2 C           1.5324    2.1439   -0.0000 C.ar    1  UNL1        0.0000
      3 H           2.4353    1.5698   -0.0000 H       1  UNL1        0.0000
      4 C           1.5923    3.5440    0.0000 C.ar    1  UNL1        0.0000
      5 C           2.9576    4.2563    0.0000 C.2     1  UNL1        0.0000
      6 C           4.1012    3.5292   -0.0000 C.2     1  UNL1        0.0000
      7 O          -0.9817   -0.7010   -0.0000 O.co2   1  UNL1        0.0000
      8 O           1.5279   -0.9064   -0.0000 O.co2   1  UNL1        0.0000
      9 FE          0.0610   -3.1383   -0.0000 Fe      1  UNL1        0.0000
     10 C           0.2241   -0.0429   -0.0000 C.2     1  UNL1        0.0000
     11 CL         -0.0552   -4.5971    1.5751 Cl      1  UNL1        0.0000
     12 CL         -0.0552   -4.5971   -1.5752 Cl      1  UNL1        0.0000
     13 C          -0.8927    2.2476    0.0000 C.ar    1  UNL1        0.0000
     14 C          -2.1352    1.5994    0.0000 C.ar    1  UNL1        0.0000
     15 C          -0.8328    3.6477    0.0000 C.ar    1  UNL1        0.0000
     16 C          -3.3178    2.3513    0.0000 C.ar    1  UNL1        0.0000
     17 H          -2.1809    0.5303   -0.0000 H       1  UNL1        0.0000
     18 C          -2.0154    4.3996    0.0000 C.ar    1  UNL1        0.0000
     19 C          -3.2579    3.7514    0.0000 C.ar    1  UNL1        0.0000
     20 H          -4.2664    1.8563    0.0000 H       1  UNL1        0.0000
     21 H          -1.9697    5.4686    0.0000 H       1  UNL1        0.0000
     22 H          -4.1608    4.3255    0.0000 H       1  UNL1        0.0000
     23 C           0.4097    4.2959    0.0000 C.ar    1  UNL1        0.0000
     24 H           0.4554    5.3649    0.0000 H       1  UNL1        0.0000
     25 H           5.0499    4.0241   -0.0000 H       1  UNL1        0.0000
     26 H           4.0555    2.4602   -0.0000 H       1  UNL1        0.0000
     27 H           3.0033    5.3253    0.0000 H       1  UNL1        0.0000
@<TRIPOS>BOND
     1    12     9    1
     2     9    11    1
     3     8    10   ar
     4    26     6    1
     5     7    10   ar
     6    10     1    1
     7     3     2    1
     8     6    25    1
     9     6     5    2
    10     2     1   ar
    11     2     4   ar
    12    17    14    1
    13     1    13   ar
    14     5     4    1
    15     5    27    1
    16    14    13   ar
    17    14    16   ar
    18     4    23   ar
    19    13    15   ar
    20    20    16    1
    21    16    19   ar
    22    23    15   ar
    23    23    24    1
    24    15    18   ar
    25    19    18   ar
    26    19    22    1
    27    18    21    1
