@<TRIPOS>MOLECULE
Test molecule to test the detection of conjugated chains
 29 28 0 0 0
SMALL
GASTEIGER

@<TRIPOS>ATOM
      1 C           0.0000    1.3322   -0.5188 C.3     1  UNL1        0.0000
      2 C           0.0000    0.0000   -1.0341 C.2     1  UNL1        0.0000
      3 O           0.0000    1.8045    0.7254 O.3     1  UNL1        0.0000
      4 C           0.0000   -1.3322   -0.5188 C.2     1  UNL1        0.0000
      5 O           0.0000   -1.8045    0.7254 O.2     1  UNL1        0.0000
      6 C           0.0000   -2.5597   -1.4957 C.2     1  UNL1        0.0000
      7 H           0.0000   -2.3272   -2.5401 H       1  UNL1        0.0000
      8 C          -0.0000    2.5597   -1.4957 C.2     1  UNL1        0.0000
      9 H          -0.0000    2.3272   -2.5401 H       1  UNL1        0.0000
     10 C           0.0000    3.7272   -1.2668 C.2     1  UNL1        0.0000
     11 H           0.0000    4.0083   -0.2344 H       1  UNL1        0.0000
     12 H           0.0000    4.4807   -2.0265 H       1  UNL1        0.0000
     13 C           0.0000   -3.7272   -1.2668 C.2     1  UNL1        0.0000
     14 H           0.0000   -4.4807   -2.0265 H       1  UNL1        0.0000
     15 H           0.0000   -4.0083   -0.2344 H       1  UNL1        0.0000
     16 FE          0.0000    0.0000    2.7183 Fe      1  UNL1        0.0000
     17 C           0.0000    0.0000   -2.5737 C.ar    1  UNL1        0.0000
     18 C          -1.2107    0.0000   -3.2788 C.ar    1  UNL1        0.0000
     19 C           1.2107    0.0000   -3.2788 C.ar    1  UNL1        0.0000
     20 C          -1.2115    0.0000   -4.6785 C.ar    1  UNL1        0.0000
     21 H          -2.1382    0.0000   -2.7452 H       1  UNL1        0.0000
     22 C           1.2115    0.0000   -4.6785 C.ar    1  UNL1        0.0000
     23 H           2.1382    0.0000   -2.7452 H       1  UNL1        0.0000
     24 C           0.0000    0.0000   -5.3791 C.ar    1  UNL1        0.0000
     25 H          -2.1385    0.0000   -5.2117 H       1  UNL1        0.0000
     26 H           2.1385    0.0000   -5.2117 H       1  UNL1        0.0000
     27 H           0.0000    0.0000   -6.4482 H       1  UNL1        0.0000
     28 CL         -1.6695    0.0000    4.0726 Cl      1  UNL1        0.0000
     29 CL          1.6695    0.0000    4.0726 Cl      1  UNL1        0.0000
@<TRIPOS>BOND
     1    27    24    1
     2    24    22   ar
     3    24    20   ar
     4    26    22    1
     5    25    20    1
     6    22    19   ar
     7    20    18   ar
     8    19    23    1
     9    19    17   ar
    10    18    21    1
    11    18    17   ar
    12    17     2    1
    13     7     6    1
    14     9     8    1
    15    12    10    1
    16    14    13    1
    17     8    10    2
    18     8     1    1
    19     6    13    2
    20     6     4    1
    21    13    15    1
    22    10    11    1
    23     2     1    1
    24     2     4    2
    25     1     3    1
    26     4     5    1
    27    16    28    1
    28    16    29    1
