@<TRIPOS>MOLECULE
Variation of chain01
 54 53 0 0 0
SMALL
GASTEIGER

@<TRIPOS>ATOM
      1 C          -1.1566    0.8294   -0.0361 C.2     1  UNL1        0.0000
      2 C          -0.1971    1.7454   -0.0085 C.2     1  UNL1        0.0000
      3 H           0.8335    1.4574    0.0000 H       1  UNL1        0.0000
      4 C          -0.5797    3.2370   -0.0000 C.2     1  UNL1        0.0000
      5 H          -1.6103    3.5250    0.0000 H       1  UNL1        0.0000
      6 C           0.3887    4.1850   -0.0075 C.2     1  UNL1        0.0000
      7 C           0.0060    5.6767   -0.0000 C.2     1  UNL1        0.0000
      8 C           0.9744    6.6247    0.0000 C.2     1  UNL1        0.0000
      9 H           2.0050    6.3368    0.0000 H       1  UNL1        0.0000
     10 O          -1.7464   -1.6735    0.0000 O.co2   1  UNL1        0.0000
     11 O           0.7151   -1.1432    0.0000 O.co2   1  UNL1        0.0000
     12 FE         -0.0424   -3.7043   -0.0000 Fe      1  UNL1        0.0000
     13 C          -0.7828   -0.6943    0.0224 C.2     1  UNL1        0.0000
     14 CL          0.2689   -5.1342    1.5752 Cl      1  UNL1        0.0000
     15 CL          0.2689   -5.1342   -1.5752 Cl      1  UNL1        0.0000
     16 C          -1.4772    6.0911   -0.0000 C.1     1  UNL1        0.0000
     17 N          -2.5815    6.3997    0.0000 N.1     1  UNL1        0.0000
     18 C           1.8719    3.7706   -0.0066 C.2     1  UNL1        0.0000
     19 O           2.7711    4.6509    0.0091 O.2     1  UNL1        0.0000
     20 O           2.2272    2.3853    0.0269 O.3     1  UNL1        0.0000
     21 H           3.1834    2.3000   -0.0238 H       1  UNL1        0.0000
     22 C          -2.6339    1.2106   -0.0125 C.3     1  UNL1        0.0000
     23 H          -2.9039    1.7915   -0.8638 H       1  UNL1        0.0000
     24 H          -3.2245    0.3086    0.0276 H       1  UNL1        0.0000
     25 C          -2.9566    2.0424    1.2598 C.3     1  UNL1        0.0000
     26 H          -3.1808    3.0474    0.9470 H       1  UNL1        0.0000
     27 H          -2.0998    2.0663    1.9115 H       1  UNL1        0.0000
     28 C          -4.1302    1.4237    2.0214 C.3     1  UNL1        0.0000
     29 H          -4.6067    2.1515    2.6187 H       1  UNL1        0.0000
     30 H          -4.7962    0.9585    1.3553 H       1  UNL1        0.0000
     31 H          -3.7163    0.6492    2.6945 H       1  UNL1        0.0000
     32 C           0.5928    8.1129   -0.0004 C.ar    1  UNL1        0.0000
     33 C           1.6087    9.0864    0.0016 C.ar    1  UNL1        0.0000
     34 C          -0.7664    8.4776   -0.0007 C.ar    1  UNL1        0.0000
     35 C           1.2569   10.4580    0.0208 C.ar    1  UNL1        0.0000
     36 H           2.6315    8.8006    0.0003 H       1  UNL1        0.0000
     37 C          -1.1182    9.8486   -0.0215 C.ar    1  UNL1        0.0000
     38 H          -1.5254    7.7347   -0.0001 H       1  UNL1        0.0000
     39 C          -0.1149   10.8192    0.0024 C.ar    1  UNL1        0.0000
     40 H           2.0162   11.2007    0.0013 H       1  UNL1        0.0000
     41 H          -2.1410   10.1345   -0.0011 H       1  UNL1        0.0000
     42 C          -0.4835   12.3108    0.0003 C.3     1  UNL1        0.0000
     43 C           0.7984   13.1558   -0.1210 C.3     1  UNL1        0.0000
     44 H           0.5241   14.2028   -0.1417 H       1  UNL1        0.0000
     45 H           1.4169   12.9868    0.7399 H       1  UNL1        0.0000
     46 H           1.3200   12.9075   -1.0029 H       1  UNL1        0.0000
     47 C          -1.2074   12.6622    1.3136 C.3     1  UNL1        0.0000
     48 H          -1.3075   13.7141    1.4030 H       1  UNL1        0.0000
     49 H          -2.1954   12.2129    1.2947 H       1  UNL1        0.0000
     50 H          -0.6671   12.2651    2.1404 H       1  UNL1        0.0000
     51 C          -1.4103   12.6097   -1.1925 C.3     1  UNL1        0.0000
     52 H          -1.5282   13.6632   -1.3014 H       1  UNL1        0.0000
     53 H          -0.9668   12.2085   -2.0902 H       1  UNL1        0.0000
     54 H          -2.3586   12.1489   -1.0353 H       1  UNL1        0.0000
@<TRIPOS>BOND
     1    53    51    1
     2    15    12    1
     3    52    51    1
     4    51    54    1
     5    51    42    1
     6    46    43    1
     7    23    22    1
     8    44    43    1
     9    43    42    1
    10    43    45    1
    11     1    22    1
    12     1     2    2
    13     1    13    1
    14    21    20    1
    15    37    41    1
    16    37    34   ar
    17    37    39   ar
    18    22    24    1
    19    22    25    1
    20     2     4    1
    21     2     3    1
    22     6    18    1
    23     6     4    2
    24     6     7    1
    25    18    19    2
    26    18    20    1
    27    34    32   ar
    28    34    38    1
    29    32     8    1
    30    32    33   ar
    31     4     5    1
    32     7    16    1
    33     7     8    2
    34    16    17    3
    35    12    14    1
    36     9     8    1
    37    11    13   ar
    38    10    13   ar
    39    36    33    1
    40    42    39    1
    41    42    47    1
    42    40    35    1
    43    33    35   ar
    44    39    35   ar
    45    26    25    1
    46    25    27    1
    47    25    28    1
    48    49    47    1
    49    47    48    1
    50    47    50    1
    51    30    28    1
    52    28    29    1
    53    28    31    1
