@<TRIPOS>MOLECULE
2nd pyridine molecule removed
 159 181 0 0 0
SMALL
GASTEIGER

@<TRIPOS>ATOM
      1 FE          9.1701    8.3751   14.0217 Fe      1  UNL1        0.0000
      2 CL         10.7350   16.1807   14.1096 Cl      1  UNL1        0.0000
      3 N          10.2536   10.9959   14.0531 N.pl3   1  UNL1        0.0000
      4 N          10.6002    8.4667   15.4465 N.pl3   1  UNL1        0.0000
      5 N          10.7744    8.4182   12.7880 N.pl3   1  UNL1        0.0000
      6 C           9.1701   10.1886   14.0217 C.3     1  UNL1        0.0000
      7 C           9.8687   12.3365   14.0490 C.ar    1  UNL1        0.0000
      8 C          10.5997   13.5111   14.0844 C.ar    1  UNL1        0.0000
      9 H          11.5492   13.5117   14.1246 H       1  UNL1        0.0000
     10 C           9.8699   14.6784   14.0573 C.ar    1  UNL1        0.0000
     11 C          11.5349   10.2971   14.1285 C.3     1  UNL1        0.0000
     12 H          12.2830   10.9598   14.1643 H       1  UNL1        0.0000
     13 C          11.5540    9.4333   15.3648 C.3     1  UNL1        0.0000
     14 C          12.5495    9.5649   16.3086 C.2     1  UNL1        0.0000
     15 H          13.1885   10.2641   16.2358 H       1  UNL1        0.0000
     16 C          12.6121    8.6789   17.3533 C.2     1  UNL1        0.0000
     17 H          13.2861    8.7666   18.0166 H       1  UNL1        0.0000
     18 C          11.6878    7.6624   17.4350 C.2     1  UNL1        0.0000
     19 C          10.6971    7.6046   16.4666 C.2     1  UNL1        0.0000
     20 H          10.0492    6.9126   16.5303 H       1  UNL1        0.0000
     21 C          11.7205    9.3781   12.9533 C.3     1  UNL1        0.0000
     22 C          12.8764    9.4034   12.1877 C.2     1  UNL1        0.0000
     23 H          13.5025   10.1093   12.2989 H       1  UNL1        0.0000
     24 C          13.1193    8.4072   11.2679 C.2     1  UNL1        0.0000
     25 H          13.9097    8.4164   10.7403 H       1  UNL1        0.0000
     26 C          12.1914    7.3969   11.1282 C.2     1  UNL1        0.0000
     27 C          11.0269    7.4558   11.8794 C.2     1  UNL1        0.0000
     28 H          10.3717    6.7811   11.7459 H       1  UNL1        0.0000
     29 C          11.7599    6.6175   18.5049 C.ar    1  UNL1        0.0000
     30 C          11.5866    6.9889   19.8379 C.ar    1  UNL1        0.0000
     31 C          11.3751    8.3106   20.2549 C.ar    1  UNL1        0.0000
     32 H          11.2822    8.9920   19.5997 H       1  UNL1        0.0000
     33 C          11.2942    8.6459   21.5935 C.ar    1  UNL1        0.0000
     34 H          11.1799    9.5518   21.8565 H       1  UNL1        0.0000
     35 C          11.3869    7.6314   22.5619 C.ar    1  UNL1        0.0000
     36 H          11.3352    7.8597   23.4832 H       1  UNL1        0.0000
     37 C          11.5477    6.3464   22.2142 C.ar    1  UNL1        0.0000
     38 H          11.5911    5.6835   22.8948 H       1  UNL1        0.0000
     39 C          11.6506    5.9518   20.8699 C.ar    1  UNL1        0.0000
     40 C          11.8137    4.6470   20.4755 C.ar    1  UNL1        0.0000
     41 H          11.7779    3.9706   21.1431 H       1  UNL1        0.0000
     42 C          12.0247    4.2610   19.1780 C.ar    1  UNL1        0.0000
     43 C          12.3010    2.9308   18.8041 C.ar    1  UNL1        0.0000
     44 H          12.2806    2.2533   19.4682 H       1  UNL1        0.0000
     45 C          12.5890    2.5955   17.5440 C.ar    1  UNL1        0.0000
     46 H          12.7652    1.6875   17.3249 H       1  UNL1        0.0000
     47 C          12.6320    3.5818   16.5400 C.ar    1  UNL1        0.0000
     48 H          12.8527    3.3396   15.6488 H       1  UNL1        0.0000
     49 C          12.3570    4.8840   16.8448 C.ar    1  UNL1        0.0000
     50 H          12.3917    5.5340   16.1527 H       1  UNL1        0.0000
     51 C          12.0257    5.2955   18.1441 C.ar    1  UNL1        0.0000
     52 C          12.4344    6.2052   10.2413 C.ar    1  UNL1        0.0000
     53 C          13.1515    5.1312   10.7556 C.ar    1  UNL1        0.0000
     54 C          13.6985    5.1163   12.0793 C.ar    1  UNL1        0.0000
     55 H          13.6158    5.8887   12.6261 H       1  UNL1        0.0000
     56 C          14.3368    4.0214   12.5691 C.ar    1  UNL1        0.0000
     57 H          14.6901    4.0375   13.4512 H       1  UNL1        0.0000
     58 C          14.4777    2.8519   11.7801 C.ar    1  UNL1        0.0000
     59 H          14.8966    2.0810   12.1411 H       1  UNL1        0.0000
     60 C          14.0097    2.8423   10.5051 C.ar    1  UNL1        0.0000
     61 H          14.1433    2.0695    9.9693 H       1  UNL1        0.0000
     62 C          13.3289    3.9513    9.9573 C.ar    1  UNL1        0.0000
     63 C          12.7861    3.9081    8.6804 C.ar    1  UNL1        0.0000
     64 H          12.9254    3.1368    8.1443 H       1  UNL1        0.0000
     65 C          12.0368    4.9697    8.1644 C.ar    1  UNL1        0.0000
     66 C          11.4001    4.8781    6.9155 C.ar    1  UNL1        0.0000
     67 H          11.5254    4.1072    6.3746 H       1  UNL1        0.0000
     68 C          10.6229    5.8701    6.4855 C.ar    1  UNL1        0.0000
     69 H          10.1689    5.7747    5.6571 H       1  UNL1        0.0000
     70 C          10.4508    7.0650    7.2277 C.ar    1  UNL1        0.0000
     71 H           9.9163    7.7689    6.8764 H       1  UNL1        0.0000
     72 C          11.0569    7.2115    8.4598 C.ar    1  UNL1        0.0000
     73 H          10.9492    8.0137    8.9564 H       1  UNL1        0.0000
     74 C          11.8524    6.1409    8.9769 C.ar    1  UNL1        0.0000
     75 CL          7.6052   16.1807   13.9339 Cl      1  UNL1        0.0000
     76 N           8.0866   10.9959   13.9903 N.pl3   1  UNL1        0.0000
     77 N           7.7401    8.4667   12.5969 N.pl3   1  UNL1        0.0000
     78 N           7.5659    8.4182   15.2555 N.pl3   1  UNL1        0.0000
     79 C           8.4715   12.3365   13.9944 C.ar    1  UNL1        0.0000
     80 C           7.7405   13.5111   13.9591 C.ar    1  UNL1        0.0000
     81 H           6.7911   13.5117   13.9189 H       1  UNL1        0.0000
     82 C           8.4703   14.6784   13.9862 C.ar    1  UNL1        0.0000
     83 C           6.8053   10.2971   13.9150 C.3     1  UNL1        0.0000
     84 H           6.0572   10.9598   13.8792 H       1  UNL1        0.0000
     85 C           6.7863    9.4333   12.6786 C.3     1  UNL1        0.0000
     86 C           5.7908    9.5649   11.7349 C.2     1  UNL1        0.0000
     87 H           5.1518   10.2641   11.8076 H       1  UNL1        0.0000
     88 C           5.7281    8.6789   10.6902 C.2     1  UNL1        0.0000
     89 H           5.0541    8.7666   10.0269 H       1  UNL1        0.0000
     90 C           6.6524    7.6624   10.6085 C.2     1  UNL1        0.0000
     91 C           7.6431    7.6046   11.5769 C.2     1  UNL1        0.0000
     92 H           8.2910    6.9126   11.5132 H       1  UNL1        0.0000
     93 C           6.6198    9.3781   15.0902 C.3     1  UNL1        0.0000
     94 C           5.4638    9.4034   15.8558 C.2     1  UNL1        0.0000
     95 H           4.8377   10.1093   15.7445 H       1  UNL1        0.0000
     96 C           5.2209    8.4072   16.7756 C.2     1  UNL1        0.0000
     97 H           4.4305    8.4164   17.3032 H       1  UNL1        0.0000
     98 C           6.1488    7.3969   16.9153 C.2     1  UNL1        0.0000
     99 C           7.3133    7.4558   16.1641 C.2     1  UNL1        0.0000
    100 H           7.9685    6.7811   16.2976 H       1  UNL1        0.0000
    101 C           6.5804    6.6175    9.5385 C.ar    1  UNL1        0.0000
    102 C           6.7536    6.9889    8.2055 C.ar    1  UNL1        0.0000
    103 C           6.9651    8.3106    7.7886 C.ar    1  UNL1        0.0000
    104 H           7.0581    8.9920    8.4437 H       1  UNL1        0.0000
    105 C           7.0461    8.6459    6.4500 C.ar    1  UNL1        0.0000
    106 H           7.1603    9.5518    6.1869 H       1  UNL1        0.0000
    107 C           6.9533    7.6314    5.4816 C.ar    1  UNL1        0.0000
    108 H           7.0050    7.8597    4.5602 H       1  UNL1        0.0000
    109 C           6.7925    6.3464    5.8293 C.ar    1  UNL1        0.0000
    110 H           6.7491    5.6835    5.1486 H       1  UNL1        0.0000
    111 C           6.6896    5.9518    7.1735 C.ar    1  UNL1        0.0000
    112 C           6.5265    4.6470    7.5680 C.ar    1  UNL1        0.0000
    113 H           6.5623    3.9706    6.9003 H       1  UNL1        0.0000
    114 C           6.3156    4.2610    8.8655 C.ar    1  UNL1        0.0000
    115 C           6.0392    2.9308    9.2394 C.ar    1  UNL1        0.0000
    116 H           6.0596    2.2533    8.5753 H       1  UNL1        0.0000
    117 C           5.7512    2.5955   10.4995 C.ar    1  UNL1        0.0000
    118 H           5.5750    1.6875   10.7185 H       1  UNL1        0.0000
    119 C           5.7083    3.5818   11.5034 C.ar    1  UNL1        0.0000
    120 H           5.4875    3.3396   12.3947 H       1  UNL1        0.0000
    121 C           5.9832    4.8840   11.1987 C.ar    1  UNL1        0.0000
    122 H           5.9486    5.5340   11.8907 H       1  UNL1        0.0000
    123 C           6.3145    5.2955    9.8993 C.ar    1  UNL1        0.0000
    124 C           5.9058    6.2052   17.8022 C.ar    1  UNL1        0.0000
    125 C           5.1887    5.1312   17.2879 C.ar    1  UNL1        0.0000
    126 C           4.6417    5.1163   15.9642 C.ar    1  UNL1        0.0000
    127 H           4.7244    5.8887   15.4174 H       1  UNL1        0.0000
    128 C           4.0034    4.0214   15.4744 C.ar    1  UNL1        0.0000
    129 H           3.6501    4.0375   14.5922 H       1  UNL1        0.0000
    130 C           3.8625    2.8519   16.2633 C.ar    1  UNL1        0.0000
    131 H           3.4437    2.0810   15.9023 H       1  UNL1        0.0000
    132 C           4.3305    2.8423   17.5384 C.ar    1  UNL1        0.0000
    133 H           4.1969    2.0695   18.0741 H       1  UNL1        0.0000
    134 C           5.0113    3.9513   18.0862 C.ar    1  UNL1        0.0000
    135 C           5.5541    3.9081   19.3631 C.ar    1  UNL1        0.0000
    136 H           5.4148    3.1368   19.8992 H       1  UNL1        0.0000
    137 C           6.3034    4.9697   19.8791 C.ar    1  UNL1        0.0000
    138 C           6.9402    4.8781   21.1279 C.ar    1  UNL1        0.0000
    139 H           6.8148    4.1072   21.6689 H       1  UNL1        0.0000
    140 C           7.7173    5.8701   21.5579 C.ar    1  UNL1        0.0000
    141 H           8.1713    5.7747   22.3864 H       1  UNL1        0.0000
    142 C           7.8894    7.0650   20.8157 C.ar    1  UNL1        0.0000
    143 H           8.4240    7.7689   21.1671 H       1  UNL1        0.0000
    144 C           7.2834    7.2115   19.5837 C.ar    1  UNL1        0.0000
    145 H           7.3910    8.0137   19.0871 H       1  UNL1        0.0000
    146 C           6.4878    6.1409   19.0666 C.ar    1  UNL1        0.0000
    147 N           9.1701    6.4179   14.0217 N.3     1  UNL1        0.0000
    148 C           9.1701    5.2727   14.0217 C.3     1  UNL1        0.0000
    149 C           8.8948    3.7584   14.0742 C.ar    1  UNL1        0.0000
    150 C           9.9231    2.8530   13.8107 C.ar    1  UNL1        0.0000
    151 C           9.6739    1.4815   13.8577 C.ar    1  UNL1        0.0000
    152 C           8.3963    1.0149   14.1695 C.ar    1  UNL1        0.0000
    153 C           7.3685    1.9202   14.4334 C.ar    1  UNL1        0.0000
    154 C           7.6176    3.2920   14.3854 C.ar    1  UNL1        0.0000
    155 H          10.9297    3.2210   13.5647 H       1  UNL1        0.0000
    156 H          10.4841    0.7678   13.6494 H       1  UNL1        0.0000
    157 H           8.2001   -0.0665   14.2065 H       1  UNL1        0.0000
    158 H           6.3615    1.5527   14.6791 H       1  UNL1        0.0000
    159 H           6.8072    4.0055   14.5933 H       1  UNL1        0.0000
@<TRIPOS>BOND
     1   108   107    1
     2   110   109    1
     3   107   109   ar
     4   107   105   ar
     5    69    68    1
     6   109   111   ar
     7   106   105    1
     8    67    66    1
     9   105   103   ar
    10    68    66   ar
    11    68    70   ar
    12    71    70    1
    13   113   112    1
    14    66    65   ar
    15   111   112   ar
    16   111   102   ar
    17    70    72   ar
    18   112   114   ar
    19   103   102   ar
    20   103   104    1
    21    64    63    1
    22    65    63   ar
    23    65    74   ar
    24   102   101   ar
    25    72    73    1
    26    72    74   ar
    27   116   115    1
    28    63    62   ar
    29   114   115   ar
    30   114   123   ar
    31    74    52   ar
    32   115   117   ar
    33   101   123   ar
    34   101    90    1
    35   123   121   ar
    36    62    60   ar
    37    62    53   ar
    38    61    60    1
    39    89    88    1
    40    52    53   ar
    41    52    26    1
    42   117   118    1
    43   117   119   ar
    44    60    58   ar
    45    90    88    1
    46    90    91    2
    47    88    86    2
    48    25    24    1
    49    53    54   ar
    50    26    24    1
    51    26    27    2
    52   121   119   ar
    53   121   122    1
    54    24    22    2
    55   119   120    1
    56    92    91    1
    57    91    77    1
    58    86    87    1
    59    86    85    1
    60    28    27    1
    61    58    59    1
    62    58    56   ar
    63    27     5    1
    64    54    56   ar
    65    54    55    1
    66    22    23    1
    67    22    21    1
    68    56    57    1
    69    77    85    1
    70    77     1    1
    71    85    83    1
    72     5    21    1
    73     5     1    1
    74    21    11    1
    75   155   150    1
    76   156   151    1
    77   150   151   ar
    78   150   149   ar
    79   151   152   ar
    80    84    83    1
    81    83    76    1
    82    83    93    1
    83    81    80    1
    84    75    82    1
    85    80    82   ar
    86    80    79   ar
    87    82    10   ar
    88    76    79    1
    89    76     6    1
    90    79     7   ar
    91   148   147    1
    92   148   149    1
    93     1     6    1
    94     1   147    1
    95     1    78    1
    96     1     4    1
    97     6     3    1
    98     7     3    1
    99     7     8   ar
   100     3    11    1
   101    10     8   ar
   102    10     2    1
   103   149   154   ar
   104     8     9    1
   105    11    12    1
   106    11    13    1
   107   152   157    1
   108   152   153   ar
   109   154   153   ar
   110   154   159    1
   111   153   158    1
   112   129   128    1
   113    93    78    1
   114    93    94    1
   115    78    99    1
   116    13     4    1
   117    13    14    1
   118   127   126    1
   119     4    19    1
   120   128   126   ar
   121   128   130   ar
   122    48    47    1
   123    95    94    1
   124    94    96    2
   125   131   130    1
   126   126   125   ar
   127    50    49    1
   128    99   100    1
   129    99    98    2
   130    15    14    1
   131   130   132   ar
   132    14    16    2
   133    19    20    1
   134    19    18    2
   135    47    49   ar
   136    47    45   ar
   137    96    98    1
   138    96    97    1
   139    49    51   ar
   140    98   124    1
   141   125   124   ar
   142   125   134   ar
   143    46    45    1
   144    16    18    1
   145    16    17    1
   146    18    29    1
   147   132   133    1
   148   132   134   ar
   149    45    43   ar
   150   124   146   ar
   151   134   135   ar
   152    51    29   ar
   153    51    42   ar
   154    29    30   ar
   155    43    42   ar
   156    43    44    1
   157   146   144   ar
   158   146   137   ar
   159   145   144    1
   160    42    40   ar
   161   135   137   ar
   162   135   136    1
   163   144   142   ar
   164    32    31    1
   165    30    31   ar
   166    30    39   ar
   167   137   138   ar
   168    31    33   ar
   169    40    39   ar
   170    40    41    1
   171   142   143    1
   172   142   140   ar
   173    39    37   ar
   174   138   140   ar
   175   138   139    1
   176   140   141    1
   177    33    34    1
   178    33    35   ar
   179    37    35   ar
   180    37    38    1
   181    35    36    1
