@<TRIPOS>MOLECULE
Simple test for the iterative growth of aromatic rings
 47 52 0 0 0
SMALL
GASTEIGER

@<TRIPOS>ATOM
      1 C          -1.6104    3.1425    0.0000 C.ar    1  UNL1        0.0000
      2 C          -0.6927    0.8762    0.0000 C.ar    1  UNL1        0.0000
      3 C           0.5958    1.4187    0.0000 C.ar    1  UNL1        0.0000
      4 C           0.7653    2.8212    0.0000 C.ar    1  UNL1        0.0000
      5 C          -0.3144    3.6570    0.0000 C.ar    1  UNL1        0.0000
      6 C          -0.8241   -0.7211    0.0000 C.ar    1  UNL1        0.0000
      7 C           1.7202    0.5838    0.0000 C.ar    1  UNL1        0.0000
      8 C           1.5893   -0.8141    0.0000 C.ar    1  UNL1        0.0000
      9 C           0.3304   -1.4399    0.0000 C.ar    1  UNL1        0.0000
     10 C           2.7438   -1.6074    0.0000 C.ar    1  UNL1        0.0000
     11 H           2.6589   -2.6740    0.0000 H       1  UNL1        0.0000
     12 C           3.9681   -1.0262    0.0000 C.ar    1  UNL1        0.0000
     13 C           4.1007    0.3654    0.0000 C.ar    1  UNL1        0.0000
     14 C           2.9994    1.1561    0.0000 C.ar    1  UNL1        0.0000
     15 H           1.7526    3.2338    0.0000 H       1  UNL1        0.0000
     16 H           3.1073    2.2207    0.0000 H       1  UNL1        0.0000
     17 C           0.2548   -2.9828    0.0000 C.ar    1  UNL1        0.0000
     18 C          -0.9965   -3.6165    0.0000 C.ar    1  UNL1        0.0000
     19 C          -2.1589   -2.8514    0.0000 C.ar    1  UNL1        0.0000
     20 H           1.1524   -3.5651    0.0000 H       1  UNL1        0.0000
     21 C          -1.1183   -5.1416    0.0000 C.ar    1  UNL1        0.0000
     22 C          -2.3960   -5.7089    0.0000 C.ar    1  UNL1        0.0000
     23 H          -2.5086   -6.7730    0.0000 H       1  UNL1        0.0000
     24 C          -3.5348   -4.8810    0.0000 C.ar    1  UNL1        0.0000
     25 H          -4.5075   -5.3269    0.0000 H       1  UNL1        0.0000
     26 C          -3.4185   -3.4743    0.0000 C.ar    1  UNL1        0.0000
     27 H          -4.3035   -2.8728    0.0000 H       1  UNL1        0.0000
     28 H          -0.2452   -5.7601    0.0000 H       1  UNL1        0.0000
     29 C           5.2355   -1.8846    0.0000 C.ar    1  UNL1        0.0000
     30 C           6.4782   -1.2470    0.0000 C.ar    1  UNL1        0.0000
     31 H           7.3772   -1.8273    0.0000 H       1  UNL1        0.0000
     32 C           6.5479    0.1572    0.0000 C.ar    1  UNL1        0.0000
     33 H           7.5054    0.6348    0.0000 H       1  UNL1        0.0000
     34 C           5.3804    0.9489    0.0000 C.ar    1  UNL1        0.0000
     35 H           5.4702    2.0151    0.0000 H       1  UNL1        0.0000
     36 H           5.1707   -2.9527    0.0000 H       1  UNL1        0.0000
     37 C          -0.1338    5.1768    0.0000 C.ar    1  UNL1        0.0000
     38 C          -1.2737    5.9870    0.0000 C.ar    1  UNL1        0.0000
     39 H          -1.1720    7.0521    0.0000 H       1  UNL1        0.0000
     40 C          -2.5549    5.4033    0.0000 C.ar    1  UNL1        0.0000
     41 H          -3.4190    6.0344    0.0000 H       1  UNL1        0.0000
     42 C          -2.7213    4.0022    0.0000 C.ar    1  UNL1        0.0000
     43 H          -3.7081    3.5886    0.0000 H       1  UNL1        0.0000
     44 H           0.8443    5.6105    0.0000 H       1  UNL1        0.0000
     45 N          -1.7529    1.8681    0.0000 N.ar    1  UNL1        0.0000
     46 N          -2.0487   -1.5230    0.0000 N.ar    1  UNL1        0.0000
     47 FE         -3.9359    0.3519    0.0000 Fe      2  UNL2        0.0000
@<TRIPOS>BOND
     1    36    29    1
     2    25    24    1
     3    26    27    1
     4    26    24   ar
     5    26    19   ar
     6    28    21    1
     7    29    30   ar
     8    29    12   ar
     9    30    31    1
    10    30    32   ar
    11    32    33    1
    12    32    34   ar
    13    34    35    1
    14    34    13   ar
    15    24    22   ar
    16    37    38   ar
    17    37    44    1
    18    37     5   ar
    19    38    39    1
    20    38    40   ar
    21    40    41    1
    22    40    42   ar
    23    42    43    1
    24    42     1   ar
    25    45     2   ar
    26    45     1   ar
    27    46     6   ar
    28    46    19   ar
    29    13    12   ar
    30    13    14   ar
    31     2     3   ar
    32     2     6   ar
    33     3     4   ar
    34     3     7   ar
    35     4     5   ar
    36     4    15    1
    37     5     1   ar
    38     6     9   ar
    39     7     8   ar
    40     7    14   ar
    41     8     9   ar
    42     8    10   ar
    43     9    17   ar
    44    10    11    1
    45    10    12   ar
    46    14    16    1
    47    17    18   ar
    48    17    20    1
    49    18    19   ar
    50    18    21   ar
    51    21    22   ar
    52    22    23    1
