@<TRIPOS>MOLECULE
ACSALA34
    21    21     1     0     0
SMALL
NO_CHARGES
****
Generated from the CSD

@<TRIPOS>ATOM
     1 O1       1.7852   2.7098   6.6590   O.3       1 RES1   0.0000
     2 O2       3.7111   0.9244   6.2340   O.3       1 RES1   0.0000
     3 H1       4.2070   0.2863   6.3737   H         1 RES1   0.0000
     4 O3       5.1315   1.2406   4.5693   O.2       1 RES1   0.0000
     5 O4       0.5731   1.4501   5.2748   O.2       1 RES1   0.0000
     6 C1       3.4671   2.8712   4.9011   C.ar      1 RES1   0.0000
     7 C2       4.1555   1.6023   5.2347   C.2       1 RES1   0.0000
     8 C3       2.3457   3.3746   5.5587   C.ar      1 RES1   0.0000
     9 C4       3.9837   3.6289   3.8543   C.ar      1 RES1   0.0000
    10 H2       4.7333   3.3190   3.3992   H         1 RES1   0.0000
    11 C5       0.8945   1.7248   6.3827   C.2       1 RES1   0.0000
    12 C6       1.7865   4.5737   5.1893   C.ar      1 RES1   0.0000
    13 H3       1.0436   4.8997   5.6447   H         1 RES1   0.0000
    14 C7       3.4170   4.8220   3.4739   C.ar      1 RES1   0.0000
    15 H4       3.7734   5.3068   2.7655   H         1 RES1   0.0000
    16 C8       2.3203   5.2892   4.1498   C.ar      1 RES1   0.0000
    17 H5       1.9351   6.0987   3.9018   H         1 RES1   0.0000
    18 C9       0.4156   1.0746   7.6191   C.3       1 RES1   0.0000
    19 H6      -0.0752   1.7095   8.1458   H         1 RES1   0.0000
    20 H7       1.1672   0.7537   8.1239   H         1 RES1   0.0000
    21 H8      -0.1555   0.3368   7.3928   H         1 RES1   0.0000
@<TRIPOS>BOND
     1     1     8    1
     2     2     3    1
     3     4     7    2
     4     5    11    2
     5     6     7    1
     6     7     2    1
     7     8     6   ar
     8     9     6   ar
     9    10     9    1
    10    11     1    1
    11    12     8   ar
    12    13    12    1
    13    14     9   ar
    14    15    14    1
    15    16    12   ar
    16    17    16    1
    17    18    11    1
    18    19    18    1
    19    20    18    1
    20    21    18    1
    21    14    16   ar
@<TRIPOS>SUBSTRUCTURE
     1 RES1        1 GROUP             0 ****  ****    0  
@<TRIPOS>CRYSIN
   11.4110    6.5884   11.3790   90.0000   95.6940   90.0000    14     1
