@<TRIPOS>MOLECULE
ACSALA32
    21    21     1     0     0
SMALL
NO_CHARGES
****
Generated from the CSD

@<TRIPOS>ATOM
     1 O1       6.5414   3.8600   7.7552   O.3       1 RES1   0.0000
     2 O2       5.0180   5.6404   6.4928   O.3       1 RES1   0.0000
     3 H1       4.4538   6.2291   6.4084   H         1 RES1   0.0000
     4 O3       4.5295   5.3175   4.3534   O.2       1 RES1   0.0000
     5 O4       8.2695   5.1213   7.1039   O.2       1 RES1   0.0000
     6 C1       5.0991   4.9592   5.3943   C.2       1 RES1   0.0000
     7 C2       5.8678   3.7038   5.4103   C.ar      1 RES1   0.0000
     8 C3       7.4623   4.8588   7.9337   C.2       1 RES1   0.0000
     9 C4       6.5551   3.1939   6.5163   C.ar      1 RES1   0.0000
    10 C5       5.8987   2.9491   4.2436   C.ar      1 RES1   0.0000
    11 H2       5.4483   3.2596   3.4912   H         1 RES1   0.0000
    12 C6       6.5794   1.7515   4.1721   C.ar      1 RES1   0.0000
    13 H3       6.5917   1.2608   3.3826   H         1 RES1   0.0000
    14 C7       7.2263   1.9891   6.4502   C.ar      1 RES1   0.0000
    15 H4       7.6678   1.6522   7.1962   H         1 RES1   0.0000
    16 C8       7.2337   1.3020   5.2749   C.ar      1 RES1   0.0000
    17 H5       7.6994   0.4988   5.2260   H         1 RES1   0.0000
    18 C9       7.3123   5.4776   9.2647   C.3       1 RES1   0.0000
    19 H6       7.8786   6.2502   9.3252   H         1 RES1   0.0000
    20 H7       7.5604   4.8447   9.9424   H         1 RES1   0.0000
    21 H8       6.3974   5.7414   9.3938   H         1 RES1   0.0000
@<TRIPOS>BOND
     1     1     8    1
     2     2     3    1
     3     4     6    2
     4     5     8    2
     5     6     2    1
     6     7     6    1
     7     8    18    1
     8     9     1    1
     9    10     7   ar
    10    11    10    1
    11    12    10   ar
    12    13    12    1
    13    14     9   ar
    14    15    14    1
    15    16    12   ar
    16    17    16    1
    17    18    19    1
    18    20    18    1
    19    21    18    1
    20     7     9   ar
    21    14    16   ar
@<TRIPOS>SUBSTRUCTURE
     1 RES1        1 GROUP             0 ****  ****    0  
@<TRIPOS>CRYSIN
   12.2633    6.5624   11.4726   90.0000  111.6270   90.0000    14     1
