@<TRIPOS>MOLECULE
NUWTOP01
    21    21     1     0     0
SMALL
NO_CHARGES
****
Generated from the CSD

@<TRIPOS>ATOM
     1 C1       0.6611   7.4963  -3.2864   C.ar      1 RES1   0.0000
     2 C2       1.6050   6.6211  -3.8364   C.ar      1 RES1   0.0000
     3 C3       2.5395   5.9829  -3.0478   C.ar      1 RES1   0.0000
     4 H1       3.1683   5.3919  -3.4448   H         1 RES1   0.0000
     5 C4       2.5654   6.2000  -1.6759   C.ar      1 RES1   0.0000
     6 H2       3.2005   5.7569  -1.1259   H         1 RES1   0.0000
     7 C5       1.6464   7.0767  -1.1290   C.ar      1 RES1   0.0000
     8 C6       0.6980   7.7211  -1.9060   C.ar      1 RES1   0.0000
     9 H3       0.0750   8.3142  -1.5032   H         1 RES1   0.0000
    10 C7      -0.3755   8.1742  -4.1180   C.2       1 RES1   0.0000
    11 C8       0.7993   5.5824  -5.7917   C.2       1 RES1   0.0000
    12 C9       0.8752   5.6512  -7.2732   C.3       1 RES1   0.0000
    13 H4       0.7012   4.7637  -7.6506   H         1 RES1   0.0000
    14 H5       1.7695   5.9502  -7.5410   H         1 RES1   0.0000
    15 H6       0.2056   6.2848  -7.6061   H         1 RES1   0.0000
    16 O1      -1.1149   9.0276  -3.4358   O.3       1 RES1   0.0000
    17 H7      -1.7087   9.3467  -3.9370   H         1 RES1   0.0000
    18 O2      -0.5404   7.9435  -5.3070   O.2       1 RES1   0.0000
    19 O3       1.6989   6.4412  -5.2175   O.3       1 RES1   0.0000
    20 O4       0.0729   4.8904  -5.1289   O.2       1 RES1   0.0000
    21 Cl1      1.6798   7.3874   0.5859   Cl        1 RES1   0.0000
@<TRIPOS>BOND
     1     1     2   ar
     2     2     3   ar
     3     3     4    1
     4     5     3   ar
     5     6     5    1
     6     7     5   ar
     7     8     1   ar
     8     9     8    1
     9    10     1    1
    10    11    12    1
    11    12    13    1
    12    14    12    1
    13    15    12    1
    14    16    10    1
    15    17    16    1
    16    18    10    2
    17    19     2    1
    18    20    11    2
    19    21     7    1
    20     7     8   ar
    21    11    19    1
@<TRIPOS>SUBSTRUCTURE
     1 RES1        1 GROUP             0 ****  ****    0  
@<TRIPOS>CRYSIN
    5.0853   17.8953   10.4472   90.0000   98.2670   90.0000    14     1
