@<TRIPOS>MOLECULE
HUPPOX
    41    42     2     0     0
SMALL
NO_CHARGES
****
Generated from the CSD

@<TRIPOS>ATOM
     1 O1      17.2764   8.4471   9.2320   O.2       1 RES1   0.0000
     2 O2      18.8168   7.2953  10.3532   O.3       1 RES1   0.0000
     3 H5      18.1405   7.3418  11.0767   H         1 RES1   0.0000
     4 O3      18.4683   9.9530   7.1798   O.3       1 RES1   0.0000
     5 O4      19.5722  10.8562   8.9058   O.2       1 RES1   0.0000
     6 C6      18.3653   7.9220   9.2844   C.2       1 RES1   0.0000
     7 C7      19.3300   7.8899   8.1426   C.ar      1 RES1   0.0000
     8 C8      20.2376   6.8363   8.0214   C.ar      1 RES1   0.0000
     9 H6      20.2538   6.1565   8.6853   H         1 RES1   0.0000
    10 C9      21.1127   6.7619   6.9587   C.ar      1 RES1   0.0000
    11 H7      21.7040   6.0232   6.8796   H         1 RES1   0.0000
    12 C10     21.1265   7.7690   6.0062   C.ar      1 RES1   0.0000
    13 H8      21.7357   7.7289   5.2792   H         1 RES1   0.0000
    14 C11     20.2538   8.8263   6.1156   C.ar      1 RES1   0.0000
    15 H9      20.2682   9.5222   5.4694   H         1 RES1   0.0000
    16 C12     19.3606   8.8769   7.1623   C.ar      1 RES1   0.0000
    17 C13     18.6914  10.9204   8.1140   C.2       1 RES1   0.0000
    18 C14     17.7086  12.0237   7.9777   C.3       1 RES1   0.0000
    19 H10     17.8868  12.7069   8.6567   H         1 RES1   0.0000
    20 H11     16.8027  11.6708   8.1005   H         1 RES1   0.0000
    21 H12     17.7858  12.4211   7.0849   H         1 RES1   0.0000
    22 N1      11.8446   7.2765   8.7410   N.ar      2 RES2   0.0000
    23 C1      13.0982   7.6071   9.0514   C.ar      2 RES2   0.0000
    24 H1      13.2882   7.8473   9.9509   H         2 RES2   0.0000
    25 C2      14.1306   7.6196   8.1451   C.ar      2 RES2   0.0000
    26 H2      15.0094   7.8496   8.4211   H         2 RES2   0.0000
    27 C3      13.8726   7.2929   6.8232   C.ar      2 RES2   0.0000
    28 C4      12.5666   6.9806   6.4942   C.ar      2 RES2   0.0000
    29 H3      12.3397   6.7713   5.5956   H         2 RES2   0.0000
    30 C5      11.5944   6.9732   7.4728   C.ar      2 RES2   0.0000
    31 H4      10.7050   6.7406   7.2280   H         2 RES2   0.0000
    32 C3B     14.9584   7.2929   5.7984   C.ar      2 RES2   0.0000
    33 C2B     14.7004   7.6196   4.4765   C.ar      2 RES2   0.0000
    34 C1B     15.7328   7.6071   3.5702   C.ar      2 RES2   0.0000
    35 N1B     16.9864   7.2765   3.8806   N.ar      2 RES2   0.0000
    36 C5B     17.2366   6.9732   5.1488   C.ar      2 RES2   0.0000
    37 C4B     16.2644   6.9806   6.1274   C.ar      2 RES2   0.0000
    38 H3B     16.4913   6.7713   7.0260   H         2 RES2   0.0000
    39 H4B     18.1260   6.7406   5.3936   H         2 RES2   0.0000
    40 H1B     15.5428   7.8473   2.6707   H         2 RES2   0.0000
    41 H2B     13.8216   7.8496   4.2005   H         2 RES2   0.0000
@<TRIPOS>BOND
     1     1     6    2
     2     2     3    1
     3     4    16    1
     4     5    17    2
     5     6     2    1
     6     7     6    1
     7     8     7   ar
     8     9     8    1
     9    10     8   ar
    10    11    10    1
    11    12    10   ar
    12    13    12    1
    13    14    12   ar
    14    15    14    1
    15    16     7   ar
    16    17     4    1
    17    18    17    1
    18    19    18    1
    19    20    18    1
    20    21    18    1
    21    14    16   ar
    22    22    23   ar
    23    23    24    1
    24    25    23   ar
    25    26    25    1
    26    27    25   ar
    27    28    27   ar
    28    29    28    1
    29    30    22   ar
    30    31    30    1
    31    32    27    1
    32    33    32   ar
    33    34    33   ar
    34    35    34   ar
    35    36    35   ar
    36    37    32   ar
    37    38    37    1
    38    39    36    1
    39    40    34    1
    40    41    33    1
    41    28    30   ar
    42    36    37   ar
@<TRIPOS>SUBSTRUCTURE
     1 RES1        1 GROUP             0 ****  ****    0  
     2 RES2       22 GROUP             0 ****  ****    0  
@<TRIPOS>CRYSIN
   28.8310   11.3861    8.4144   90.0000   90.0000   90.0000    60     1
