@<TRIPOS>MOLECULE
PIKYUG
    52    62     1     0     0
SMALL
NO_CHARGES
****
Generated from the CSD

@<TRIPOS>ATOM
     1 Na1      6.9564  17.7915  -0.8819   Na        1 RES1   0.0000
     2 O1       6.2711  17.4603   1.2964   O.co2     1 RES1   0.0000
     3 O2       7.6274  17.3503   3.0311   O.co2     1 RES1   0.0000
     4 O3       7.4465  15.2077   4.6671   O.2       1 RES1   0.0000
     5 O4       9.2540  14.7455   3.3950   O.2       1 RES1   0.0000
     6 C1       6.2731  15.4530   2.5411   C.ar      1 RES1   0.0000
     7 C2       6.6123  14.7073   3.6586   C.ar      1 RES1   0.0000
     8 C3       6.0969  13.4364   3.9142   C.ar      1 RES1   0.0000
     9 C4       5.2214  12.8974   2.9611   C.ar      1 RES1   0.0000
    10 C5       4.8820  13.6008   1.8101   C.ar      1 RES1   0.0000
    11 C6       5.4027  14.8363   1.6007   C.ar      1 RES1   0.0000
    12 C7       6.7642  16.8642   2.2715   C.2       1 RES1   0.0000
    13 C8       8.7830  15.2043   4.4036   C.2       1 RES1   0.0000
    14 C9       9.5539  15.8117   5.5290   C.3       1 RES1   0.0000
    15 Na2      4.5809  19.0580   0.8801   Na        1 RES1   0.0000
    16 O5       4.8081  18.2690   4.8029   O.co2     1 RES1   0.0000
    17 O6       4.0031  19.4281   3.1011   O.co2     1 RES1   0.0000
    18 O7       1.2185  19.0105   2.7882   O.3       1 RES1   0.0000
    19 O8       2.2301  18.8179   0.8065   O.2       1 RES1   0.0000
    20 C10      2.9351  17.3905   3.6756   C.ar      1 RES1   0.0000
    21 C11      1.6641  17.7207   3.0347   C.ar      1 RES1   0.0000
    22 C12      0.7169  16.7679   2.7712   C.ar      1 RES1   0.0000
    23 C13      0.9214  15.4781   3.1577   C.ar      1 RES1   0.0000
    24 C14      2.0613  15.1066   3.8193   C.ar      1 RES1   0.0000
    25 C15      3.0463  16.1110   4.1285   C.ar      1 RES1   0.0000
    26 C16      3.9874  18.4447   3.8601   C.2       1 RES1   0.0000
    27 C17      1.6641  19.4267   1.6373   C.2       1 RES1   0.0000
    28 C18      1.4953  20.9642   1.2782   C.3       1 RES1   0.0000
    29 H1       4.8474  12.0695   3.0932   H         1 RES1   0.0000
    30 H2       4.3013  13.2424   1.1917   H         1 RES1   0.0000
    31 H3       5.1771  15.2752   0.8144   H         1 RES1   0.0000
    32 H4      10.4118  15.3990   5.5978   H         1 RES1   0.0000
    33 H5       9.6691  16.7473   5.3464   H         1 RES1   0.0000
    34 H6       9.0475  15.6913   6.3421   H         1 RES1   0.0000
    35 H7      -0.0655  17.0018   2.3226   H         1 RES1   0.0000
    36 H8       0.2582  14.8315   2.9635   H         1 RES1   0.0000
    37 H9       2.1824  14.2020   4.0560   H         1 RES1   0.0000
    38 H10      3.7910  15.9012   4.6598   H         1 RES1   0.0000
    39 H11      1.7515  21.0915   0.3530   H         1 RES1   0.0000
    40 H12      2.0494  21.5042   1.8576   H         1 RES1   0.0000
    41 H13      0.5640  21.2015   1.3975   H         1 RES1   0.0000
    42 Na1      6.9564  17.7915   5.2046   Na        1 RES1   0.0000
    43 Na1O     7.9287  19.4756   2.1613   Na        1 RES1   0.0000
    44 O1O      7.8729  20.2347  -1.7468   O.2       1 RES1   0.0000
    45 O2       7.6274  17.3503  -3.0554   O.2       1 RES1   0.0000
    46 O2O      8.6463  19.1151  -0.0122   O.2       1 RES1   0.0000
    47 O3       7.4465  15.2077  -1.4194   O.2       1 RES1   0.0000
    48 Na2      4.5809  19.0580   6.9666   Na        1 RES1   0.0000
    49 Na2O     5.6442  20.8996   3.9234   Na        1 RES1   0.0000
    50 O5       4.8081  18.2690  -1.2836   O.2       1 RES1   0.0000
    51 O5O      6.4411  21.0973   1.7596   O.2       1 RES1   0.0000
    52 O6O      5.0347  21.2150   0.0578   O.2       1 RES1   0.0000
@<TRIPOS>BOND
     1     1     2    1
     2     2    12   un
     3     3    12   un
     4     4     7    1
     5     5    13    2
     6     6     7   ar
     7     7     8   ar
     8     8     9   ar
     9     9    10   ar
    10    10    11   ar
    11    11     6   ar
    12    12     6    1
    13    13     4    1
    14    14    13    1
    15    15     2    1
    16    16    26   un
    17    17    15    1
    18    18    21    1
    19    19    15    1
    20    20    21   ar
    21    21    22   ar
    22    22    23   ar
    23    23    24   ar
    24    24    25   ar
    25    25    20   ar
    26    26    17   un
    27    27    18    1
    28    28    27    1
    29    29     9    1
    30    30    10    1
    31    31    11    1
    32    32    14    1
    33    33    14    1
    34    34    14    1
    35    35    22    1
    36    36    23    1
    37    37    24    1
    38    38    25    1
    39    39    28    1
    40    40    28    1
    41    41    28    1
    42    42     3   un
    43    43     2   un
    44    44     1   un
    45    45     1   un
    46    46     1   un
    47    47     1   un
    48    48    16   un
    49    49    16   un
    50    50     1   un
    51    51    15   un
    52    52    15   un
    53     3    43   un
    54     4    42   un
    55    15    50   un
    56    16    42   un
    57    17    49   un
    58    19    27    2
    59    20    26    1
    60    43    46   un
    61    43    51   un
    62    49    51   un
@<TRIPOS>SUBSTRUCTURE
     1 RES1        1 GROUP             0 ****  ****    0  
@<TRIPOS>CRYSIN
   39.7168   39.7168    6.0865   90.0000   90.0000  120.0000   236     1
