@<TRIPOS>MOLECULE
WIHROY
    21    21     1     0     0
SMALL
NO_CHARGES
****
Generated from the CSD

@<TRIPOS>ATOM
     1 O1       8.5058   2.7100   4.6676   O.3       1 RES1   0.0000
     2 O2       6.5777   0.9186   5.0863   O.3       1 RES1   0.0000
     3 O3       5.1557   1.2383   6.7545   O.2       1 RES1   0.0000
     4 O4       9.7173   1.4492   6.0530   O.2       1 RES1   0.0000
     5 C1       6.8225   2.8688   6.4261   C.ar      1 RES1   0.0000
     6 C2       6.1339   1.5979   6.0880   C.2       1 RES1   0.0000
     7 C3       7.9449   3.3675   5.7657   C.ar      1 RES1   0.0000
     8 C4       9.3943   1.7196   4.9413   C.2       1 RES1   0.0000
     9 C5       6.3002   3.6194   7.4755   C.ar      1 RES1   0.0000
    10 H1       5.5516   3.3068   7.9304   H         1 RES1   0.0000
    11 C6       8.5088   4.5680   6.1350   C.ar      1 RES1   0.0000
    12 H2       9.2530   4.8923   5.6810   H         1 RES1   0.0000
    13 C7       6.8692   4.8147   7.8541   C.ar      1 RES1   0.0000
    14 H3       6.5126   5.2998   8.5630   H         1 RES1   0.0000
    15 C8       7.9710   5.2871   7.1745   C.ar      1 RES1   0.0000
    16 H4       8.3532   6.0978   7.4214   H         1 RES1   0.0000
    17 C9       9.8752   1.0696   3.7028   C.3       1 RES1   0.0000
    18 H5      10.4791   0.3581   3.9284   H         1 RES1   0.0000
    19 H6      10.3311   1.7155   3.1583   H         1 RES1   0.0000
    20 H7       9.1276   0.7127   3.2175   H         1 RES1   0.0000
    21 H8       5.9767   0.1447   4.9039   H         1 RES1   0.0000
@<TRIPOS>BOND
     1     1     7    1
     2     2     6    1
     3     3     6    2
     4     4     8    2
     5     5     6    1
     6     7     5   ar
     7     8     1    1
     8     9     5   ar
     9    10     9    1
    10    11     7   ar
    11    12    11    1
    12    13     9   ar
    13    14    13    1
    14    15    11   ar
    15    16    15    1
    16    17     8    1
    17    18    17    1
    18    19    17    1
    19    20    17    1
    20    21     2    1
    21    13    15   ar
@<TRIPOS>SUBSTRUCTURE
     1 RES1        1 GROUP             0 ****  ****    0  
@<TRIPOS>CRYSIN
   11.4197    6.5784   11.3812   90.0000   95.6700   90.0000    14     1
