@<TRIPOS>MOLECULE
CUASPR01
    46    48     1     0     0
SMALL
NO_CHARGES
****
Generated from the CSD

@<TRIPOS>ATOM
     1 Cu1      3.0004   0.3661   0.5919   Cu        1 RES1   0.0000
     2 O1       2.1478  -0.2645  -1.0615   O.co2     1 RES1   0.0000
     3 O2       4.0513  -0.8496  -2.0989   O.co2     1 RES1   0.0000
     4 O3       0.6241  -2.4959  -1.9370   O.3       1 RES1   0.0000
     5 O4      -1.0955  -1.1176  -1.5157   O.2       1 RES1   0.0000
     6 O5       3.3988   2.0716  -0.2983   O.co2     1 RES1   0.0000
     7 O6       5.2928   1.4544  -1.3086   O.co2     1 RES1   0.0000
     8 O7       6.4642   3.1719  -2.9965   O.3       1 RES1   0.0000
     9 O8       5.0750   2.0655  -4.3752   O.2       1 RES1   0.0000
    10 C1       2.0202  -1.0812  -3.2606   C.ar      1 RES1   0.0000
    11 C2       0.8940  -1.8842  -3.1821   C.ar      1 RES1   0.0000
    12 C3       0.1406  -2.1946  -4.2920   C.ar      1 RES1   0.0000
    13 H1      -0.6037  -2.7466  -4.2170   H         1 RES1   0.0000
    14 C4       0.5056  -1.6759  -5.5204   C.ar      1 RES1   0.0000
    15 H2      -0.0018  -1.8676  -6.2756   H         1 RES1   0.0000
    16 C5       1.6257  -0.8697  -5.6264   C.ar      1 RES1   0.0000
    17 H3       1.8670  -0.5208  -6.4546   H         1 RES1   0.0000
    18 C6       2.3874  -0.5812  -4.5136   C.ar      1 RES1   0.0000
    19 H4       3.1480  -0.0521  -4.5979   H         1 RES1   0.0000
    20 C7       2.8055  -0.7104  -2.0442   C.2       1 RES1   0.0000
    21 C8      -0.3254  -1.9519  -1.1329   C.2       1 RES1   0.0000
    22 C9      -0.2281  -2.5331   0.2402   C.3       1 RES1   0.0000
    23 H5      -0.9021  -2.1415   0.8014   H         1 RES1   0.0000
    24 H6      -0.3596  -3.4820   0.1957   H         1 RES1   0.0000
    25 H7       0.6400  -2.3467   0.6057   H         1 RES1   0.0000
    26 C10      4.4483   3.6445  -1.7022   C.ar      1 RES1   0.0000
    27 C11      5.4266   4.0299  -2.6153   C.ar      1 RES1   0.0000
    28 C12      5.4556   5.3027  -3.1401   C.ar      1 RES1   0.0000
    29 H8       6.1225   5.5381  -3.7445   H         1 RES1   0.0000
    30 C13      4.5048   6.2307  -2.7777   C.ar      1 RES1   0.0000
    31 H9       4.5351   7.0932  -3.1243   H         1 RES1   0.0000
    32 C14      3.5122   5.8693  -1.9016   C.ar      1 RES1   0.0000
    33 H10      2.8559   6.4849  -1.6631   H         1 RES1   0.0000
    34 C15      3.4836   4.5944  -1.3721   C.ar      1 RES1   0.0000
    35 H11      2.8043   4.3642  -0.7805   H         1 RES1   0.0000
    36 C16      4.3805   2.2831  -1.0645   C.2       1 RES1   0.0000
    37 C17      6.1459   2.1571  -3.8615   C.2       1 RES1   0.0000
    38 C18      7.2971   1.2343  -4.0347   C.3       1 RES1   0.0000
    39 H12      7.0567   0.5333  -4.6458   H         1 RES1   0.0000
    40 H13      7.5320   0.8531  -3.1867   H         1 RES1   0.0000
    41 H14      8.0471   1.7207  -4.3856   H         1 RES1   0.0000
    42 O2B      4.1605   0.8496   2.0989   O.2       1 RES1   0.0000
    43 O4B      1.0955   1.1176   1.5157   O.2       1 RES1   0.0000
    44 O6B      2.9190  -1.4544   1.3086   O.2       1 RES1   0.0000
    45 Cu1B     5.2114  -0.3661  -0.5919   Cu        1 RES1   0.0000
    46 Cu1B    -3.0004  -0.3661  -0.5919   Cu        1 RES1   0.0000
@<TRIPOS>BOND
     1     1     2    1
     2     2    20   un
     3     3    20   un
     4     4    11    1
     5     5    21    2
     6     6     1    1
     7     7    36   un
     8     8    27    1
     9     9    37    2
    10    10    11   ar
    11    11    12   ar
    12    12    13    1
    13    14    12   ar
    14    15    14    1
    15    16    14   ar
    16    17    16    1
    17    18    10   ar
    18    19    18    1
    19    20    10    1
    20    21     4    1
    21    22    21    1
    22    23    22    1
    23    24    22    1
    24    25    22    1
    25    26    27   ar
    26    27    28   ar
    27    28    29    1
    28    30    28   ar
    29    31    30    1
    30    32    30   ar
    31    33    32    1
    32    34    26   ar
    33    35    34    1
    34    36     6   un
    35    37     8    1
    36    38    37    1
    37    39    38    1
    38    40    38    1
    39    41    38    1
    40    42     1   un
    41    43     1   un
    42    44     1   un
    43    45     3   un
    44    46     5   un
    45     7    45   un
    46    16    18   ar
    47    26    36    1
    48    32    34   ar
@<TRIPOS>SUBSTRUCTURE
     1 RES1        1 GROUP             0 ****  ****    0  
@<TRIPOS>CRYSIN
    8.2118   10.4158   21.4840   90.0000  104.3410   90.0000    14     1
