@<TRIPOS>MOLECULE
ACSALA31
    21    21     1     0     0
SMALL
NO_CHARGES
****
Generated from the CSD

@<TRIPOS>ATOM
     1 O1       1.7626   2.7133   6.6769   O.3       1 RES1   0.0000
     2 O2       3.6827   0.9234   6.2564   O.3       1 RES1   0.0000
     3 H1       4.1768   0.2842   6.3972   H         1 RES1   0.0000
     4 O3       5.1052   1.2391   4.5847   O.2       1 RES1   0.0000
     5 O4       0.5604   1.4518   5.2874   O.2       1 RES1   0.0000
     6 C1       3.4455   2.8719   4.9120   C.ar      1 RES1   0.0000
     7 C2       4.1294   1.6000   5.2506   C.2       1 RES1   0.0000
     8 C3       2.3270   3.3719   5.5745   C.ar      1 RES1   0.0000
     9 C4       0.8770   1.7251   6.4025   C.2       1 RES1   0.0000
    10 C5       3.9685   3.6242   3.8620   C.ar      1 RES1   0.0000
    11 H2       4.7165   3.3113   3.4067   H         1 RES1   0.0000
    12 C6       1.7656   4.5747   5.2056   C.ar      1 RES1   0.0000
    13 H3       1.0234   4.9012   5.6610   H         1 RES1   0.0000
    14 C7       3.4019   4.8210   3.4842   C.ar      1 RES1   0.0000
    15 H4       3.7596   5.3054   2.7755   H         1 RES1   0.0000
    16 C8       2.3056   5.2933   4.1605   C.ar      1 RES1   0.0000
    17 H5       1.9240   6.1039   3.9121   H         1 RES1   0.0000
    18 C9       0.3952   1.0717   7.6423   C.3       1 RES1   0.0000
    19 H6      -0.2371   0.3853   7.4173   H         1 RES1   0.0000
    20 H7      -0.0279   1.7249   8.2043   H         1 RES1   0.0000
    21 H8       1.1384   0.6818   8.1082   H         1 RES1   0.0000
@<TRIPOS>BOND
     1     1     8    1
     2     2     3    1
     3     4     7    2
     4     5     9    2
     5     6     7    1
     6     7     2    1
     7     8     6   ar
     8     9     1    1
     9    10     6   ar
    10    11    10    1
    11    12     8   ar
    12    13    12    1
    13    14    10   ar
    14    15    14    1
    15    16    12   ar
    16    17    16    1
    17    18     9    1
    18    19    18    1
    19    20    18    1
    20    21    18    1
    21    14    16   ar
@<TRIPOS>SUBSTRUCTURE
     1 RES1        1 GROUP             0 ****  ****    0  
@<TRIPOS>CRYSIN
   11.3770    6.5870   11.4160   90.0000   95.8000   90.0000    14     1
