@<TRIPOS>MOLECULE
ACSALA28
    21    21     1     0     0
SMALL
NO_CHARGES
****
Generated from the CSD

@<TRIPOS>ATOM
     1 O1       1.6890   2.7439   6.6049   O.3       1 RES1   0.0000
     2 O2       3.5884   0.9319   6.1978   O.3       1 RES1   0.0000
     3 H1       4.0734   0.2920   6.3644   H         1 RES1   0.0000
     4 O3       5.0460   1.2210   4.5283   O.2       1 RES1   0.0000
     5 O4       0.5392   1.4377   5.1778   O.2       1 RES1   0.0000
     6 C1       0.8374   1.7147   6.3054   C.2       1 RES1   0.0000
     7 C2       3.3901   2.8860   4.8516   C.ar      1 RES1   0.0000
     8 C3       2.2693   3.3960   5.5092   C.ar      1 RES1   0.0000
     9 C4       4.0802   1.6008   5.1806   C.2       1 RES1   0.0000
    10 C5       3.9322   3.6369   3.7976   C.ar      1 RES1   0.0000
    11 H2       4.6809   3.3179   3.3474   H         1 RES1   0.0000
    12 C6       3.3712   4.8442   3.4160   C.ar      1 RES1   0.0000
    13 H3       3.7361   5.3261   2.7094   H         1 RES1   0.0000
    14 C7       1.7104   4.6137   5.1446   C.ar      1 RES1   0.0000
    15 H4       0.9715   4.9450   5.6018   H         1 RES1   0.0000
    16 C8       0.3471   1.0469   7.5480   C.3       1 RES1   0.0000
    17 H5       1.0931   0.6891   8.0346   H         1 RES1   0.0000
    18 H6      -0.2532   0.3355   7.3134   H         1 RES1   0.0000
    19 H7      -0.1140   1.6875   8.0948   H         1 RES1   0.0000
    20 C9       2.2613   5.3320   4.0936   C.ar      1 RES1   0.0000
    21 H8       1.8855   6.1443   3.8414   H         1 RES1   0.0000
@<TRIPOS>BOND
     1     1     6    1
     2     2     3    1
     3     4     9    2
     4     5     6    2
     5     6    16    1
     6     7     8   ar
     7     8     1    1
     8     9     2    1
     9    10     7   ar
    10    11    10    1
    11    12    10   ar
    12    13    12    1
    13    14     8   ar
    14    15    14    1
    15    16    17    1
    16    18    16    1
    17    19    16    1
    18    20    12   ar
    19    21    20    1
    20     7     9    1
    21    14    20   ar
@<TRIPOS>SUBSTRUCTURE
     1 RES1        1 GROUP             0 ****  ****    0  
@<TRIPOS>CRYSIN
   11.2582    6.5471   11.2600   90.0000   95.9490   90.0000    14     1
