@<TRIPOS>MOLECULE
BEHWOA
    24    24     1     0     0
SMALL
NO_CHARGES
****
Generated from the CSD

@<TRIPOS>ATOM
     1 O1       4.4289   1.0090   5.2254   O.2       1 RES1   0.0000
     2 O2       5.7893   0.8599   6.9675   O.3       1 RES1   0.0000
     3 O3       4.1507   3.7334   5.0081   O.3       1 RES1   0.0000
     4 O4       3.9868   3.1377   2.8595   O.2       1 RES1   0.0000
     5 C1       6.2122   2.5651   5.3925   C.ar      1 RES1   0.0000
     6 C2       5.5435   3.6943   4.9276   C.ar      1 RES1   0.0000
     7 C3       6.2130   4.8147   4.4915   C.ar      1 RES1   0.0000
     8 C4       7.5992   4.7988   4.4929   C.ar      1 RES1   0.0000
     9 C5       8.2724   3.6834   4.9289   C.ar      1 RES1   0.0000
    10 C6       7.6192   2.5557   5.3990   C.ar      1 RES1   0.0000
    11 C7       5.4077   1.4071   5.8704   C.2       1 RES1   0.0000
    12 C8       3.4514   3.3888   3.8983   C.2       1 RES1   0.0000
    13 C9       1.9914   3.3592   4.1773   C.3       1 RES1   0.0000
    14 C10      8.4182   1.3651   5.8626   C.3       1 RES1   0.0000
    15 H1       5.7729   5.6095   4.2165   H         1 RES1   0.0000
    16 H2       8.0494   5.6167   4.0463   H         1 RES1   0.0000
    17 H3       9.1638   3.6841   4.9368   H         1 RES1   0.0000
    18 H4       1.5155   3.0400   3.4309   H         1 RES1   0.0000
    19 H5       1.6794   4.1763   4.4523   H         1 RES1   0.0000
    20 H6       1.8809   2.7649   4.8975   H         1 RES1   0.0000
    21 H7       9.4784   1.3752   5.5522   H         1 RES1   0.0000
    22 H8       8.0270   0.6514   5.5260   H         1 RES1   0.0000
    23 H9       8.3946   1.2449   6.8879   H         1 RES1   0.0000
    24 H10      5.0886   0.1158   7.2546   H         1 RES1   0.0000
@<TRIPOS>BOND
     1     1    11    2
     2     2    11    1
     3     3     6    1
     4     4    12    2
     5     5     6   ar
     6     6     7   ar
     7     7     8   ar
     8     8     9   ar
     9     9    10   ar
    10    10     5   ar
    11    11     5    1
    12    12     3    1
    13    13    12    1
    14    14    10    1
    15    15     7    1
    16    16     8    1
    17    17     9    1
    18    18    13    1
    19    19    13    1
    20    20    13    1
    21    21    14    1
    22    22    14    1
    23    23    14    1
    24    24     2    1
@<TRIPOS>SUBSTRUCTURE
     1 RES1        1 GROUP             0 ****  ****    0  
@<TRIPOS>CRYSIN
   10.1640    7.2380   13.1860   90.0000   96.7400   90.0000   231     1
