@<TRIPOS>MOLECULE
ACSALA13
    21    21     1     0     0
SMALL
NO_CHARGES
****
Generated from the CSD

@<TRIPOS>ATOM
     1 O1       0.8696   0.9152   9.3578   O.3       1 RES1   0.0000
     2 H1       1.3097   0.2090   9.4715   H         1 RES1   0.0000
     3 O2       1.3932   1.2164  11.4878   O.2       1 RES1   0.0000
     4 O3      -0.6539   2.7230   8.1105   O.3       1 RES1   0.0000
     5 O4      -2.3471   1.4176   8.8131   O.2       1 RES1   0.0000
     6 C1       0.0835   2.8885  10.4502   C.ar      1 RES1   0.0000
     7 C2      -0.6499   3.3818   9.3525   C.ar      1 RES1   0.0000
     8 C3      -1.2861   4.5762   9.3925   C.ar      1 RES1   0.0000
     9 H2      -1.6926   4.9448   8.6161   H         1 RES1   0.0000
    10 C4      -1.3232   5.2577  10.6282   C.ar      1 RES1   0.0000
    11 H3      -1.8554   6.0379  10.7020   H         1 RES1   0.0000
    12 C5      -0.6308   4.8358  11.7133   C.ar      1 RES1   0.0000
    13 H4      -0.6039   5.3642  12.5044   H         1 RES1   0.0000
    14 C6       0.0376   3.6285  11.6469   C.ar      1 RES1   0.0000
    15 H5       0.4739   3.2929  12.4212   H         1 RES1   0.0000
    16 C7       0.8327   1.5838  10.4702   C.2       1 RES1   0.0000
    17 C8      -1.5648   1.6747   7.9788   C.2       1 RES1   0.0000
    18 C9      -1.3730   1.0645   6.6083   C.3       1 RES1   0.0000
    19 H6      -1.9389   0.2655   6.5250   H         1 RES1   0.0000
    20 H7      -0.4343   0.8075   6.4913   H         1 RES1   0.0000
    21 H8      -1.6228   1.7130   5.9193   H         1 RES1   0.0000
@<TRIPOS>BOND
     1     1     2    1
     2     3    16    2
     3     4     7    1
     4     5    17    2
     5     6     7   ar
     6     7     8   ar
     7     8     9    1
     8    10     8   ar
     9    11    10    1
    10    12    10   ar
    11    13    12    1
    12    14     6   ar
    13    15    14    1
    14    16     1    1
    15    17     4    1
    16    18    17    1
    17    19    18    1
    18    20    18    1
    19    21    18    1
    20     6    16    1
    21    12    14   ar
@<TRIPOS>SUBSTRUCTURE
     1 RES1        1 GROUP             0 ****  ****    0  
@<TRIPOS>CRYSIN
   12.0950    6.4910   11.3230   90.0000  111.5090   90.0000    14     1
