@<TRIPOS>MOLECULE
ACMEBZ
    24    24     1     0     0
SMALL
NO_CHARGES
****
Generated from the CSD

@<TRIPOS>ATOM
     1 C1      -0.0142   4.7557   5.5497   C.ar      1 RES1   0.0000
     2 C2       0.9724   3.7926   5.3980   C.ar      1 RES1   0.0000
     3 C3       1.3659   3.3046   4.1636   C.ar      1 RES1   0.0000
     4 C4       0.7498   3.8511   3.0468   C.ar      1 RES1   0.0000
     5 C5      -0.2038   4.8446   3.1508   C.ar      1 RES1   0.0000
     6 C6      -0.5875   5.2893   4.3920   C.ar      1 RES1   0.0000
     7 C7      -0.4947   5.2320   6.8677   C.2       1 RES1   0.0000
     8 C8       1.2789   2.2608   7.1678   C.2       1 RES1   0.0000
     9 C9       2.1462   1.9811   8.3493   C.3       1 RES1   0.0000
    10 C10      2.4079   2.2222   4.0562   C.3       1 RES1   0.0000
    11 O1      -0.2121   4.6621   7.9316   O.2       1 RES1   0.0000
    12 O2      -1.2563   6.2746   6.8285   O.3       1 RES1   0.0000
    13 O3       1.7016   3.3737   6.5165   O.3       1 RES1   0.0000
    14 O4       0.3405   1.6231   6.8080   O.2       1 RES1   0.0000
    15 H1       1.0297   3.5925   2.1142   H         1 RES1   0.0000
    16 H2      -0.5865   5.3010   2.3870   H         1 RES1   0.0000
    17 H3      -1.2605   5.8978   4.5012   H         1 RES1   0.0000
    18 H4      -1.6849   6.4829   7.7236   H         1 RES1   0.0000
    19 H5       1.8198   1.1117   8.9000   H         1 RES1   0.0000
    20 H6       2.0356   2.8553   8.9682   H         1 RES1   0.0000
    21 H7       3.1823   1.8723   8.0816   H         1 RES1   0.0000
    22 H8       2.6891   2.1181   3.0178   H         1 RES1   0.0000
    23 H9       1.9264   1.3223   4.3989   H         1 RES1   0.0000
    24 H10      3.2833   2.4106   4.6546   H         1 RES1   0.0000
@<TRIPOS>BOND
     1     1     2   ar
     2     2     3   ar
     3     3     4   ar
     4     4     5   ar
     5     5     6   ar
     6     6     1   ar
     7     7     1    1
     8     8     9    1
     9     9    19    1
    10    10     3    1
    11    11     7    2
    12    12     7    1
    13    13     2    1
    14    14     8    2
    15    15     4    1
    16    16     5    1
    17    17     6    1
    18    18    12    1
    19    20     9    1
    20    21     9    1
    21    22    10    1
    22    23    10    1
    23    24    10    1
    24     8    13    1
@<TRIPOS>SUBSTRUCTURE
     1 RES1        1 GROUP             0 ****  ****    0  
@<TRIPOS>CRYSIN
    4.9100   11.7020   17.2330   90.0000   98.3600   90.0000    14     1
