@<TRIPOS>MOLECULE
ACAKAQ
   222   209    22     0     0
SMALL
USER_CHARGES
****
Generated from the CSD

@<TRIPOS>ATOM
     1 Fe1      9.0352   6.6826   7.6390   Fe        1 RES1   2.0000
     2 N1       9.6357   5.3962   6.2625   N.ar      1 RES1   0.0000
     3 N2      10.5269   7.7493   6.8721   N.ar      1 RES1   0.0000
     4 N3       7.8274   1.8601   3.9754   N.4       1 RES1   1.0000
     5 N4      13.4888  10.8935   8.2777   N.4       1 RES1   1.0000
     6 O1       8.8240   0.2276   2.0152   O.2       1 RES1   0.0000
     7 O2       8.2554  -1.6146   3.1519   O.3       1 RES1   0.0000
     8 O3      14.9030  12.8138   7.0264   O.2       1 RES1   0.0000
     9 O4      14.0470  14.4542   8.2929   O.3       1 RES1   0.0000
    10 C1       9.1547   4.1681   6.0440   C.ar      1 RES1   0.0000
    11 C2       9.5767   3.3628   4.9761   C.ar      1 RES1   0.0000
    12 C3      10.5066   3.8852   4.0899   C.ar      1 RES1   0.0000
    13 C4      11.0436   5.1412   4.3099   C.ar      1 RES1   0.0000
    14 C5      10.6082   5.8621   5.4145   C.ar      1 RES1   0.0000
    15 C6      11.1440   7.1826   5.7950   C.ar      1 RES1   0.0000
    16 C7      12.1965   7.8111   5.1487   C.ar      1 RES1   0.0000
    17 C8      12.6356   9.0551   5.5964   C.ar      1 RES1   0.0000
    18 C9      12.0247   9.6322   6.6811   C.ar      1 RES1   0.0000
    19 C10     10.9668   8.9449   7.2861   C.ar      1 RES1   0.0000
    20 C11      9.0374   1.9484   4.8569   C.3       1 RES1   0.0000
    21 C12      7.3335   0.4339   3.8745   C.3       1 RES1   0.0000
    22 C13      8.2415  -0.3321   2.9135   C.2       1 RES1   0.0000
    23 C14      5.8493   0.3952   3.4269   C.3       1 RES1   0.0000
    24 C15      5.2632  -0.9970   3.6728   C.3       1 RES1   0.0000
    25 C16      5.6339   0.8315   1.9755   C.3       1 RES1   0.0000
    26 C17     12.4052  10.9778   7.2204   C.3       1 RES1   0.0000
    27 C18     13.7021  12.2059   8.9973   C.3       1 RES1   0.0000
    28 C19     14.2686  13.2273   7.9920   C.2       1 RES1   0.0000
    29 C20     14.6662  11.9961  10.1813   C.3       1 RES1   0.0000
    30 C21     14.6138  13.2238  11.1163   C.3       1 RES1   0.0000
    31 C22     16.0905  11.6426   9.7917   C.3       1 RES1   0.0000
    32 N5       7.8110   7.6297   6.4275   N.ar      1 RES1   0.0000
    33 N6       8.4744   8.1360   8.8552   N.ar      1 RES1   0.0000
    34 N7       4.7314   6.8433   3.1519   N.4       1 RES1   1.0000
    35 N8      10.1022  10.0336  12.6609   N.4       1 RES1   1.0000
    36 O5       2.2149   5.9319   3.1870   O.2       1 RES1   0.0000
    37 O6       1.8532   6.4730   1.0328   O.3       1 RES1   0.0000
    38 O7       9.2625  12.0786  14.2483   O.2       1 RES1   0.0000
    39 O8       9.3772  10.8137  16.0695   O.3       1 RES1   0.0000
    40 C23      7.4242   7.2336   5.1854   C.ar      1 RES1   0.0000
    41 C24      6.5642   7.9826   4.3863   C.ar      1 RES1   0.0000
    42 C25      6.1453   9.2225   4.8538   C.ar      1 RES1   0.0000
    43 C26      6.5518   9.6418   6.1066   C.ar      1 RES1   0.0000
    44 C27      7.3500   8.8272   6.8812   C.ar      1 RES1   0.0000
    45 C28      7.7197   9.1048   8.2670   C.ar      1 RES1   0.0000
    46 C29      7.3159  10.2462   8.9529   C.ar      1 RES1   0.0000
    47 C30      7.6865  10.4055  10.2699   C.ar      1 RES1   0.0000
    48 C31      8.4160   9.4066  10.9192   C.ar      1 RES1   0.0000
    49 C32      8.7882   8.2909  10.1599   C.ar      1 RES1   0.0000
    50 C33      6.1190   7.4656   3.0464   C.3       1 RES1   0.0000
    51 C34      4.0412   6.6953   1.8074   C.3       1 RES1   0.0000
    52 C35      2.6149   6.3101   2.1145   C.2       1 RES1   0.0000
    53 C36      4.7554   5.7199   0.8861   C.3       1 RES1   0.0000
    54 C37      4.4945   4.2781   1.2054   C.3       1 RES1   0.0000
    55 C38      4.4199   6.0229  -0.5760   C.3       1 RES1   0.0000
    56 C39      8.7432   9.4676  12.3752   C.3       1 RES1   0.0000
    57 C40     10.4166   9.9803  14.1353   C.3       1 RES1   0.0000
    58 C41      9.6289  11.0747  14.8167   C.2       1 RES1   0.0000
    59 C42     11.9563  10.0628  14.3553   C.3       1 RES1   0.0000
    60 C43     12.5505  11.4069  13.8939   C.3       1 RES1   0.0000
    61 C44     12.3093   9.7518  15.8097   C.3       1 RES1   0.0000
    62 N9       7.6812   5.4691   8.3770   N.ar      1 RES1   0.0000
    63 N10     10.1374   5.7778   8.9713   N.ar      1 RES1   0.0000
    64 N11      3.9206   3.2823   6.9744   N.4       1 RES1   1.0000
    65 N12     14.0007   6.5893  11.2752   N.4       1 RES1   1.0000
    66 O9       1.8486   2.2939   8.3831   O.co2     1 RES1   0.0000
    67 O10      0.3057   3.2577   7.0692   O.co2     1 RES1   0.0000
    68 O11     15.2717   5.0727  13.0429   O.co2     1 RES1   0.0000
    69 O12     17.2788   5.4480  12.1491   O.co2     1 RES1  -1.0000
    70 C45      6.3891   5.3586   7.9629   C.ar      1 RES1   0.0000
    71 C46      5.4897   4.4659   8.5313   C.ar      1 RES1   0.0000
    72 C47      5.9126   3.6837   9.5916   C.ar      1 RES1   0.0000
    73 C48      7.2272   3.8090  10.0239   C.ar      1 RES1   0.0000
    74 C49      8.0831   4.6730   9.4128   C.ar      1 RES1   0.0000
    75 C50      9.5037   4.8521   9.7505   C.ar      1 RES1   0.0000
    76 C51     10.1570   4.1305  10.7558   C.ar      1 RES1   0.0000
    77 C52     11.5263   4.3387  10.9345   C.ar      1 RES1   0.0000
    78 C53     12.1909   5.2606  10.1553   C.ar      1 RES1   0.0000
    79 C54     11.4596   5.9634   9.1791   C.ar      1 RES1   0.0000
    80 C55      4.0742   4.3817   8.0057   C.3       1 RES1   0.0000
    81 C56      2.5614   3.2846   6.3236   C.3       1 RES1   0.0000
    82 C57      1.5102   2.9206   7.3763   C.2       1 RES1   0.0000
    83 C58      2.5920   2.2753   5.1655   C.3       1 RES1   0.0000
    84 C59      2.6808   0.8249   5.5994   C.3       1 RES1   0.0000
    85 C60      1.5138   2.5715   4.1511   C.3       1 RES1   0.0000
    86 C61     13.6633   5.4961  10.2684   C.3       1 RES1   0.0000
    87 C62     15.4870   6.7800  11.3761   C.3       1 RES1   0.0000
    88 C63     15.9854   5.6443  12.2897   C.2       1 RES1   0.0000
    89 C64     15.8153   8.1955  11.8955   C.3       1 RES1   0.0000
    90 C65     17.3016   8.4982  11.7168   C.3       1 RES1   0.0000
    91 C66     15.3695   8.3983  13.3301   C.3       1 RES1   0.0000
    92 H1       8.4162   3.7663   6.7399   H         1 RES1   0.0000
    93 H2      10.8142   3.2983   3.2258   H         1 RES1   0.0000
    94 H3      11.7829   5.5577   3.6290   H         1 RES1   0.0000
    95 H4      12.6670   7.3474   4.2843   H         1 RES1   0.0000
    96 H5      13.4678   9.5543   5.0989   H         1 RES1   0.0000
    97 H6      10.4795   9.4012   8.1423   H         1 RES1   0.0000
    98 H7       9.8266   1.3161   4.4452   H         1 RES1   0.0000
    99 H8       8.7746   1.5960   5.8535   H         1 RES1   0.0000
   100 H9       7.0366   2.4865   4.3787   H         1 RES1   0.0000
   101 H10      8.0885   2.2075   2.9702   H         1 RES1   0.0000
   102 H11      7.3589  -0.0302   4.8600   H         1 RES1   0.0000
   103 H12      5.3148   1.1163   4.0342   H         1 RES1   0.0000
   104 H13      4.1923  -0.9721   3.4586   H         1 RES1   0.0000
   105 H14      5.7464  -1.7113   3.0046   H         1 RES1   0.0000
   106 H15      5.4138  -1.3103   4.7018   H         1 RES1   0.0000
   107 H16      6.1186   0.1145   1.3057   H         1 RES1   0.0000
   108 H17      4.5645   0.8538   1.7597   H         1 RES1   0.0000
   109 H18      6.0534   1.8200   1.7944   H         1 RES1   0.0000
   110 H19     12.7660  11.5925   6.3940   H         1 RES1   0.0000
   111 H20     11.5235  11.4458   7.6600   H         1 RES1   0.0000
   112 H21     13.2134  10.1349   9.0122   H         1 RES1   0.0000
   113 H22     14.4298  10.6019   7.7996   H         1 RES1   0.0000
   114 H23     12.7542  12.5874   9.3798   H         1 RES1   0.0000
   115 H24     14.3065  11.1141  10.7170   H         1 RES1   0.0000
   116 H25     15.1892  12.9916  12.0226   H         1 RES1   0.0000
   117 H26     15.0604  14.0697  10.6123   H         1 RES1   0.0000
   118 H27     13.5942  13.4632  11.4057   H         1 RES1   0.0000
   119 H28     16.5393  12.5035   9.2797   H         1 RES1   0.0000
   120 H29     16.6681  11.4254  10.6901   H         1 RES1   0.0000
   121 H30     16.1296  10.7843   9.1259   H         1 RES1   0.0000
   122 H31      7.7952   6.2828   4.8082   H         1 RES1   0.0000
   123 H32      5.5079   9.8543   4.2430   H         1 RES1   0.0000
   124 H33      6.2470  10.6192   6.4779   H         1 RES1   0.0000
   125 H34      6.7110  11.0075   8.4639   H         1 RES1   0.0000
   126 H35      7.4064  11.3062  10.8153   H         1 RES1   0.0000
   127 H36      9.3618   7.5029  10.6470   H         1 RES1   0.0000
   128 H37      6.0905   8.2803   2.3322   H         1 RES1   0.0000
   129 H38      6.8204   6.7016   2.7103   H         1 RES1   0.0000
   130 H39      4.8212   5.8581   3.6079   H         1 RES1   0.0000
   131 H40      4.1130   7.4812   3.7876   H         1 RES1   0.0000
   132 H41      4.0719   7.6263   1.2446   H         1 RES1   0.0000
   133 H42      5.8237   5.8947   1.0414   H         1 RES1   0.0000
   134 H43      3.4301   4.0634   1.0336   H         1 RES1   0.0000
   135 H44      5.0933   3.6467   0.5555   H         1 RES1   0.0000
   136 H45      4.7316   4.0678   2.2443   H         1 RES1   0.0000
   137 H46      5.0201   5.3963  -1.2241   H         1 RES1   0.0000
   138 H47      3.3570   5.8130  -0.7460   H         1 RES1   0.0000
   139 H48      4.6078   7.0746  -0.8070   H         1 RES1   0.0000
   140 H49      7.9948  10.0808  12.8761   H         1 RES1   0.0000
   141 H50      8.7033   8.4508  12.7796   H         1 RES1   0.0000
   142 H51     10.8502   9.4668  12.1166   H         1 RES1   0.0000
   143 H52     10.1237  11.0764  12.3390   H         1 RES1   0.0000
   144 H53     10.1331   9.0281  14.5768   H         1 RES1   0.0000
   145 H54     12.3979   9.2863  13.7356   H         1 RES1   0.0000
   146 H55     12.1758  12.2018  14.5325   H         1 RES1   0.0000
   147 H56     13.6400  11.3531  13.9814   H         1 RES1   0.0000
   148 H57     12.2924  11.6229  12.8596   H         1 RES1   0.0000
   149 H58     13.4017   9.7032  15.8889   H         1 RES1   0.0000
   150 H59     11.9374  10.5519  16.4400   H         1 RES1   0.0000
   151 H60     11.8908   8.8054  16.1310   H         1 RES1   0.0000
   152 H61      6.0462   6.0051   7.1512   H         1 RES1   0.0000
   153 H62      5.2311   2.9887  10.0686   H         1 RES1   0.0000
   154 H63      7.5652   3.2067  10.8733   H         1 RES1   0.0000
   155 H64      9.6067   3.4222  11.3690   H         1 RES1   0.0000
   156 H65     12.0683   3.7760  11.7016   H         1 RES1   0.0000
   157 H66     11.9798   6.6867   8.5571   H         1 RES1   0.0000
   158 H67      3.3949   4.1863   8.8345   H         1 RES1   0.0000
   159 H68      3.8110   5.3359   7.5410   H         1 RES1   0.0000
   160 H69      4.6772   3.4213   6.2014   H         1 RES1   0.0000
   161 H70      4.0802   2.3217   7.4675   H         1 RES1   0.0000
   162 H71      2.2959   4.2612   5.9363   H         1 RES1   0.0000
   163 H72      3.5400   2.4257   4.6487   H         1 RES1   0.0000
   164 H73      1.7203   0.5510   6.0286   H         1 RES1   0.0000
   165 H74      2.8677   0.2278   4.7069   H         1 RES1   0.0000
   166 H75      3.4593   0.6197   6.3230   H         1 RES1   0.0000
   167 H76      1.6994   1.9658   3.2675   H         1 RES1   0.0000
   168 H77      0.5520   2.2890   4.5892   H         1 RES1   0.0000
   169 H78      1.4477   3.6150   3.8441   H         1 RES1   0.0000
   170 H79     14.1428   4.5764  10.5836   H         1 RES1   0.0000
   171 H80     14.0450   5.8001   9.2947   H         1 RES1   0.0000
   172 H81     13.5346   7.5247  10.9593   H         1 RES1   0.0000
   173 H82     13.6032   6.3048  12.2535   H         1 RES1   0.0000
   174 H83     15.9925   6.7164  10.4126   H         1 RES1   0.0000
   175 H84     15.2671   8.9054  11.2731   H         1 RES1   0.0000
   176 H85     17.4908   9.5284  12.0064   H         1 RES1   0.0000
   177 H86     17.8745   7.8277  12.3653   H         1 RES1   0.0000
   178 H87     17.6256   8.3489  10.6873   H         1 RES1   0.0000
   179 H88     15.9394   7.7335  13.9875   H         1 RES1   0.0000
   180 H89     15.5557   9.4341  13.6287   H         1 RES1   0.0000
   181 H90     14.3065   8.1852  13.4601   H         1 RES1   0.0000
   182 H91      9.0514  -2.0841   2.5603   H         1 RES1   0.0000
   183 H92     14.7203  15.0878   7.7322   H         1 RES1   0.0000
   184 H93      0.8926   6.0817   1.2158   H         1 RES1   0.0000
   185 H94      8.9521  11.7083  16.5539   H         1 RES1   0.0000
   186 Cl1      5.8372   4.2437   4.6879   Cl        2 RES2  -1.0000
   187 Cl2     12.2582   9.1061  10.5570   Cl        3 RES3  -1.0000
   188 Cl3      6.2053   0.5773   7.7451   Cl        4 RES4   0.0000
   189 O13      6.4278   1.6202   6.7789   O.3       4 RES4  -1.0000
   190 O14      7.2789   0.5826   8.7009   O.2       4 RES4   0.0000
   191 O15      4.9524   0.8211   8.4213   O.2       4 RES4   0.0000
   192 O16      6.1574  -0.6931   7.0692   O.2       4 RES4   0.0000
   193 Cl4     11.1481   6.1420  14.0201   Cl        5 RES5   0.0000
   194 O17     10.6412   7.0155  13.0230   O.3       5 RES5  -1.0000
   195 O18     12.5601   6.0057  13.8419   O.2       5 RES5   0.0000
   196 O19     10.5473   4.8773  13.8893   O.2       5 RES5   0.0000
   197 O20     10.8817   6.6613  15.3315   O.2       5 RES5   0.0000
   198 Cl5      3.4697   8.0919   7.3732   Cl        6 RES6   0.0000
   199 O21      3.6873   7.2660   6.2228   O.3       6 RES6  -1.0000
   200 O22      3.4074   9.4610   6.9668   O.2       6 RES6   0.0000
   201 O23      2.2606   7.7442   8.0286   O.2       6 RES6   0.0000
   202 O24      4.5704   7.8985   8.2975   O.2       6 RES6   0.0000
   203 Cl6      5.5210  11.8344  14.1654   Cl        7 RES7   0.0000
   204 O25      5.8044  11.7415  12.7816   O.3       7 RES7  -1.0000
   205 O26      4.1184  11.8851  14.3553   O.2       7 RES7   0.0000
   206 O27      6.0959  13.0634  14.6425   O.2       7 RES7   0.0000
   207 O28      6.0972  10.7115  14.8396   O.2       7 RES7   0.0000
   208 Cl7      3.1194   9.5234   3.2484   Cl        8 RES8  -1.0000
   209 O29      9.7384  -2.9173   1.5095   O.3       9 RES9   0.0000
   210 O30      7.7233  12.4100  17.2337   O.3      10 RES10   0.0000
   211 O31     14.4547  12.2721   4.3818   O.3      11 RES11   0.0000
   212 O32     13.5403   2.6366  13.4371   O.3      12 RES12   0.0000
   213 O33      8.3608   3.1806   1.5599   O.3      13 RES13   0.0000
   214 O34      8.4326   2.2902  13.1697   O.3      14 RES14   0.0000
   215 O35      2.7745   2.4046  10.9788   O.3      15 RES15   0.0000
   216 O36      4.8166   1.2364  12.3034   O.3      16 RES16   0.0000
   217 O37     10.2288  12.6533  11.4906   O.3      17 RES17   0.0000
   218 O38     10.9578   2.0271  14.5936   O.3      18 RES18   0.0000
   219 O39      5.8405   3.4269  13.5685   O.3      19 RES19   0.0000
   220 O40     11.7288   5.3041   1.0267   O.3      20 RES20   0.0000
   221 O41     11.6369   1.0493   2.0350   O.3      21 RES21   0.0000
   222 O42     15.5245   3.5830  15.6784   O.3      22 RES22   0.0000
@<TRIPOS>BOND
     1     1     2    1
     2     2    10   ar
     3     3     1    1
     4     4    20    1
     5     5    26    1
     6     6    22    2
     7     7    22    1
     8     8    28    2
     9     9    28    1
    10    10    11   ar
    11    11    12   ar
    12    12    13   ar
    13    13    14   ar
    14    14     2   ar
    15    15     3   ar
    16    16    15   ar
    17    17    16   ar
    18    18    17   ar
    19    19     3   ar
    20    20    11    1
    21    21     4    1
    22    22    21    1
    23    23    21    1
    24    24    23    1
    25    25    23    1
    26    26    18    1
    27    27     5    1
    28    28    27    1
    29    29    27    1
    30    30    29    1
    31    31    29    1
    32    32     1    1
    33    33     1    1
    34    34    50    1
    35    35    56    1
    36    36    52    2
    37    37    52    1
    38    38    58    2
    39    39    58    1
    40    40    32   ar
    41    41    40   ar
    42    42    41   ar
    43    43    42   ar
    44    44    32   ar
    45    45    33   ar
    46    46    45   ar
    47    47    46   ar
    48    48    47   ar
    49    49    33   ar
    50    50    41    1
    51    51    34    1
    52    52    51    1
    53    53    51    1
    54    54    53    1
    55    55    53    1
    56    56    48    1
    57    57    35    1
    58    58    57    1
    59    59    57    1
    60    60    59    1
    61    61    59    1
    62    62     1    1
    63    63     1    1
    64    64    80    1
    65    65    86    1
    66    66    82    2
    67    67    82    1
    68    68    88    2
    69    69    88    1
    70    70    62   ar
    71    71    70   ar
    72    72    71   ar
    73    73    72   ar
    74    74    62   ar
    75    75    63   ar
    76    76    75   ar
    77    77    76   ar
    78    78    77   ar
    79    79    63   ar
    80    80    71    1
    81    81    64    1
    82    82    81    1
    83    83    81    1
    84    84    83    1
    85    85    83    1
    86    86    78    1
    87    87    65    1
    88    88    87    1
    89    89    87    1
    90    90    89    1
    91    91    89    1
    92    92    10    1
    93    93    12    1
    94    94    13    1
    95    95    16    1
    96    96    17    1
    97    97    19    1
    98    98    20    1
    99    99    20    1
   100   100     4    1
   101   101     4    1
   102   102    21    1
   103   103    23    1
   104   104    24    1
   105   105    24    1
   106   106    24    1
   107   107    25    1
   108   108    25    1
   109   109    25    1
   110   110    26    1
   111   111    26    1
   112   112     5    1
   113   113     5    1
   114   114    27    1
   115   115    29    1
   116   116    30    1
   117   117    30    1
   118   118    30    1
   119   119    31    1
   120   120    31    1
   121   121    31    1
   122   122    40    1
   123   123    42    1
   124   124    43    1
   125   125    46    1
   126   126    47    1
   127   127    49    1
   128   128    50    1
   129   129    50    1
   130   130    34    1
   131   131    34    1
   132   132    51    1
   133   133    53    1
   134   134    54    1
   135   135    54    1
   136   136    54    1
   137   137    55    1
   138   138    55    1
   139   139    55    1
   140   140    56    1
   141   141    56    1
   142   142    35    1
   143   143    35    1
   144   144    57    1
   145   145    59    1
   146   146    60    1
   147   147    60    1
   148   148    60    1
   149   149    61    1
   150   150    61    1
   151   151    61    1
   152   152    70    1
   153   153    72    1
   154   154    73    1
   155   155    76    1
   156   156    77    1
   157   157    79    1
   158   158    80    1
   159   159    80    1
   160   160    64    1
   161   161    64    1
   162   162    81    1
   163   163    83    1
   164   164    84    1
   165   165    84    1
   166   166    84    1
   167   167    85    1
   168   168    85    1
   169   169    85    1
   170   170    86    1
   171   171    86    1
   172   172    65    1
   173   173    65    1
   174   174    87    1
   175   175    89    1
   176   176    90    1
   177   177    90    1
   178   178    90    1
   179   179    91    1
   180   180    91    1
   181   181    91    1
   182   182     7    1
   183   183     9    1
   184   184    37    1
   185   185    39    1
   186    14    15    1
   187    18    19   ar
   188    43    44   ar
   189    44    45    1
   190    48    49   ar
   191    73    74   ar
   192    74    75    1
   193    78    79   ar
   194   188   189    1
   195   190   188    2
   196   191   188    2
   197   192   188    2
   198   193   194    1
   199   195   193    2
   200   196   193    2
   201   197   193    2
   202   198   199    1
   203   200   198    2
   204   201   198    2
   205   202   198    2
   206   203   204    1
   207   205   203    2
   208   206   203    2
   209   207   203    2
@<TRIPOS>SUBSTRUCTURE
     1 RES1        1 GROUP             0 ****  ****    0  
     2 RES2      186 GROUP             0 ****  ****    0  
     3 RES3      187 GROUP             0 ****  ****    0  
     4 RES4      188 GROUP             0 ****  ****    0  
     5 RES5      193 GROUP             0 ****  ****    0  
     6 RES6      198 GROUP             0 ****  ****    0  
     7 RES7      203 GROUP             0 ****  ****    0  
     8 RES8      208 GROUP             0 ****  ****    0  
     9 RES9      209 GROUP             0 ****  ****    0  
    10 RES10     210 GROUP             0 ****  ****    0  
    11 RES11     211 GROUP             0 ****  ****    0  
    12 RES12     212 GROUP             0 ****  ****    0  
    13 RES13     213 GROUP             0 ****  ****    0  
    14 RES14     214 GROUP             0 ****  ****    0  
    15 RES15     215 GROUP             0 ****  ****    0  
    16 RES16     216 GROUP             0 ****  ****    0  
    17 RES17     217 GROUP             0 ****  ****    0  
    18 RES18     218 GROUP             0 ****  ****    0  
    19 RES19     219 GROUP             0 ****  ****    0  
    20 RES20     220 GROUP             0 ****  ****    0  
    21 RES21     221 GROUP             0 ****  ****    0  
    22 RES22     222 GROUP             0 ****  ****    0  
@<TRIPOS>CRYSIN
   12.2214   13.0213   15.5397   85.0070   79.8180   76.2180     1     1
