@<TRIPOS>MOLECULE
ACAHUJ02
    89    95     3     0     0
SMALL
USER_CHARGES
****
Generated from the CSD

@<TRIPOS>ATOM
     1 Fe1      5.8157   1.4796   3.4571   Fe        1 RES1   2.0000
     2 N1       6.4893   1.6515   1.3369   N.2       1 RES1   0.0000
     3 N2       5.4074   1.6900   5.6599   N.2       1 RES1   0.0000
     4 N3       4.0549   2.9011   3.3370   N.2       1 RES1   0.0000
     5 N4       7.1150   3.0620   4.0385   N.2       1 RES1   0.0000
     6 N5       7.2765  -0.0760   3.3009   N.2       1 RES1   0.0000
     7 N6       4.1428   0.2113   3.0689   N.2       1 RES1   0.0000
     8 N7       7.4787   4.6324   5.5299   N.pl3     1 RES1   0.0000
     9 H1       7.4342   5.0815   6.2617   H         1 RES1   0.0000
    10 C1       6.9399   3.5023  -0.2287   C.ar      1 RES1   0.0000
    11 H2       7.8457   3.4701  -0.0229   H         1 RES1   0.0000
    12 C2       4.4583   0.9687   6.4417   C.ar      1 RES1   0.0000
    13 C3       4.0761   4.2873   3.6729   C.ar      1 RES1   0.0000
    14 C4       6.0604   2.6103   0.3677   C.ar      1 RES1   0.0000
    15 O1       4.7633   5.4389  -2.3461   O.3       1 RES1   0.0000
    16 C5       5.9324   2.7622   6.1305   C.2       1 RES1   0.0000
    17 H3       5.7452   3.0553   6.9928   H         1 RES1   0.0000
    18 C6       6.8293   3.4968   5.2634   C.2       1 RES1   0.0000
    19 C7       5.1198   4.4850  -1.4553   C.ar      1 RES1   0.0000
    20 C8       4.7161   2.6747   0.0587   C.ar      1 RES1   0.0000
    21 H4       4.1250   2.0877   0.4711   H         1 RES1   0.0000
    22 C9       3.0000   0.8608   3.0324   C.2       1 RES1   0.0000
    23 C10      2.9408   2.2853   3.2404   C.2       1 RES1   0.0000
    24 H5       2.1288   2.7346   3.3006   H         1 RES1   0.0000
    25 C11      7.9048  -0.0078   2.1364   C.2       1 RES1   0.0000
    26 C12      7.5024   0.9217   1.1021   C.2       1 RES1   0.0000
    27 H6       7.9656   0.9811   0.2982   H         1 RES1   0.0000
    28 N8       8.9015  -0.9006   2.0859   N.pl3     1 RES1   0.0000
    29 H7       9.4424  -1.0177   1.4270   H         1 RES1   0.0000
    30 C13      4.2348   3.5950  -0.8502   C.ar      1 RES1   0.0000
    31 H8       3.3290   3.6214  -1.0569   H         1 RES1   0.0000
    32 C14      4.3296  -0.3936   6.2215   C.ar      1 RES1   0.0000
    33 H9       4.8602  -0.8084   5.5796   H         1 RES1   0.0000
    34 C15      7.9972   3.9808   3.5330   C.2       1 RES1   0.0000
    35 H10      8.3840   3.9405   2.6888   H         1 RES1   0.0000
    36 C16      6.4672   4.4332  -1.1245   C.ar      1 RES1   0.0000
    37 H11      7.0582   5.0363  -1.5142   H         1 RES1   0.0000
    38 O2       4.5734   8.2506   4.7047   O.3       1 RES1   0.0000
    39 C17      8.2212   4.9531   4.4404   C.2       1 RES1   0.0000
    40 H12      8.7740   5.6935   4.3392   H         1 RES1   0.0000
    41 C18      3.5109   4.7449   4.8424   C.ar      1 RES1   0.0000
    42 H13      3.0243   4.1624   5.3792   H         1 RES1   0.0000
    43 C19      7.9124  -1.0594   4.0042   C.2       1 RES1   0.0000
    44 H14      7.6945  -1.3293   4.8668   H         1 RES1   0.0000
    45 O3       1.7982  -1.3965   8.5723   O.3       1 RES1   0.0000
    46 C20      3.6541   1.5646   7.4065   C.ar      1 RES1   0.0000
    47 H15      3.7231   2.4786   7.5648   H         1 RES1   0.0000
    48 C21      3.8437  -1.1065   2.8643   C.2       1 RES1   0.0000
    49 H16      4.4585  -1.8034   2.8372   H         1 RES1   0.0000
    50 N9       1.9829   0.0161   2.8071   N.pl3     1 RES1   0.0000
    51 H17      1.1509   0.2257   2.7393   H         1 RES1   0.0000
    52 C22      4.7683   5.1700   2.8586   C.ar      1 RES1   0.0000
    53 H18      5.1550   4.8725   2.0663   H         1 RES1   0.0000
    54 C23      8.9096  -1.5812   3.2486   C.2       1 RES1   0.0000
    55 H19      9.4843  -2.2734   3.4857   H         1 RES1   0.0000
    56 C24      3.6626   6.0638   5.2247   C.ar      1 RES1   0.0000
    57 H20      3.2922   6.3609   6.0246   H         1 RES1   0.0000
    58 C25      4.3563   6.9344   4.4279   C.ar      1 RES1   0.0000
    59 C26      2.7522   0.8067   8.1338   C.ar      1 RES1   0.0000
    60 H21      2.2169   1.2113   8.7777   H         1 RES1   0.0000
    61 C27      3.4226  -1.1440   6.9431   C.ar      1 RES1   0.0000
    62 H22      3.3369  -2.0553   6.7772   H         1 RES1   0.0000
    63 C28      2.6477  -0.5511   7.9022   C.ar      1 RES1   0.0000
    64 C29      2.5083  -1.2317   2.7072   C.2       1 RES1   0.0000
    65 H23      2.0390  -2.0205   2.5573   H         1 RES1   0.0000
    66 C30      4.8767   6.4817   3.2272   C.ar      1 RES1   0.0000
    67 H24      5.3083   7.0799   2.6628   H         1 RES1   0.0000
    68 C31      3.3838   5.5747  -2.6598   C.3       1 RES1   0.0000
    69 H25      3.2630   6.3196  -3.2532   H         1 RES1   0.0000
    70 H26      2.8847   5.7228  -1.8537   H         1 RES1   0.0000
    71 H27      3.0731   4.7729  -3.0865   H         1 RES1   0.0000
    72 C32      4.2456   8.7053   6.0277   C.3       1 RES1   0.0000
    73 H28      4.5411   9.6122   6.1378   H         1 RES1   0.0000
    74 H29      4.6810   8.1466   6.6747   H         1 RES1   0.0000
    75 H30      3.2950   8.6606   6.1547   H         1 RES1   0.0000
    76 C33      1.1105  -0.9058   9.6816   C.3       1 RES1   0.0000
    77 H31      0.5045  -0.2154   9.4033   H         1 RES1   0.0000
    78 H32      1.7373  -0.5462  10.3133   H         1 RES1   0.0000
    79 H33      0.6159  -1.6197  10.0915   H         1 RES1   0.0000
    80 Cl1      5.5654   5.6343   8.9562   Cl        2 RES2   0.0000
    81 O4       4.6659   4.6570   8.4672   O.3       2 RES2  -1.0000
    82 O5       4.9190   6.8344   9.2687   O.2       2 RES2   0.0000
    83 O6       6.1458   5.1366  10.1512   O.2       2 RES2   0.0000
    84 O7       6.5881   5.8792   8.0176   O.2       2 RES2   0.0000
    85 Cl2     10.9526   2.3874   0.6459   Cl        3 RES3   0.0000
    86 O8      10.6137   1.8174   1.9348   O.3       3 RES3  -1.0000
    87 O9      12.3287   2.4945   0.5551   O.2       3 RES3   0.0000
    88 O10     10.2797   3.5777   0.5307   O.2       3 RES3   0.0000
    89 O11     10.4978   1.5186  -0.3763   O.2       3 RES3   0.0000
@<TRIPOS>BOND
     1     1     2    1
     2     2    14    1
     3     3     1    1
     4     4     1    1
     5     5     1    1
     6     6     1    1
     7     7     1    1
     8     8     9    1
     9    10    11    1
    10    12     3    1
    11    13     4    1
    12    14    10   ar
    13    15    19    1
    14    16     3    2
    15    17    16    1
    16    18     5    2
    17    19    30   ar
    18    20    14   ar
    19    21    20    1
    20    22     7    2
    21    23     4    2
    22    24    23    1
    23    25     6    2
    24    26     2    2
    25    27    26    1
    26    28    25    1
    27    29    28    1
    28    30    20   ar
    29    31    30    1
    30    32    12   ar
    31    33    32    1
    32    34     5    1
    33    35    34    1
    34    36    10   ar
    35    37    36    1
    36    38    58    1
    37    39     8    1
    38    40    39    1
    39    41    13   ar
    40    42    41    1
    41    43     6    1
    42    44    43    1
    43    45    63    1
    44    46    12   ar
    45    47    46    1
    46    48     7    1
    47    49    48    1
    48    50    22    1
    49    51    50    1
    50    52    13   ar
    51    53    52    1
    52    54    28    1
    53    55    54    1
    54    56    41   ar
    55    57    56    1
    56    58    56   ar
    57    59    46   ar
    58    60    59    1
    59    61    32   ar
    60    62    61    1
    61    63    59   ar
    62    64    48    2
    63    65    64    1
    64    66    52   ar
    65    67    66    1
    66    68    15    1
    67    69    68    1
    68    70    68    1
    69    71    68    1
    70    72    38    1
    71    73    72    1
    72    74    72    1
    73    75    72    1
    74    76    45    1
    75    77    76    1
    76    78    76    1
    77    79    76    1
    78     8    18    1
    79    16    18    1
    80    19    36   ar
    81    22    23    1
    82    25    26    1
    83    34    39    2
    84    43    54    2
    85    50    64    1
    86    58    66   ar
    87    61    63   ar
    88    80    81    1
    89    82    80    2
    90    83    80    2
    91    84    80    2
    92    85    86    1
    93    87    85    2
    94    88    85    2
    95    89    85    2
@<TRIPOS>SUBSTRUCTURE
     1 RES1        1 GROUP             0 ****  ****    0  
     2 RES2       80 GROUP             0 ****  ****    0  
     3 RES3       85 GROUP             0 ****  ****    0  
@<TRIPOS>CRYSIN
   10.8735   12.2430   15.4068   83.2890   86.1750   70.1180     2     1
