@<TRIPOS>MOLECULE
ACAHUJ
    89    95     3     0     0
SMALL
USER_CHARGES
****
Generated from the CSD

@<TRIPOS>ATOM
     1 Fe1      5.7803   1.5326   3.3941   Fe        1 RES1   2.0000
     2 N1       7.0740   2.9848   3.9321   N.2       1 RES1   0.0000
     3 N2       4.1959   2.8553   3.2744   N.2       1 RES1   0.0000
     4 N3       4.2863   0.2670   2.9903   N.2       1 RES1   0.0000
     5 N4       6.4103   1.6477   1.4459   N.2       1 RES1   0.0000
     6 N5       5.4103   1.6060   5.4373   N.2       1 RES1   0.0000
     7 N6       7.1624   0.0933   3.3998   N.2       1 RES1   0.0000
     8 O1       4.7026   5.3784  -2.3324   O.3       1 RES1   0.0000
     9 O2       1.8948  -1.5300   8.4478   O.3       1 RES1   0.0000
    10 N7       7.5902   4.4889   5.4655   N.pl3     1 RES1   0.0000
    11 H1       7.5954   4.9188   6.2110   H         1 RES1   0.0000
    12 C1       5.9731   2.5868   0.4495   C.ar      1 RES1   0.0000
    13 C2       5.0501   4.4266  -1.4215   C.ar      1 RES1   0.0000
    14 C3       4.3604  -0.5287   5.9951   C.ar      1 RES1   0.0000
    15 H2       4.8760  -0.9379   5.3379   H         1 RES1   0.0000
    16 C4       4.6323   2.6253   0.0976   C.ar      1 RES1   0.0000
    17 H3       4.0353   2.0312   0.4931   H         1 RES1   0.0000
    18 C5       6.8632   3.4777  -0.1540   C.ar      1 RES1   0.0000
    19 H4       7.7668   3.4515   0.0633   H         1 RES1   0.0000
    20 C6       6.8664   3.3845   5.1907   C.2       1 RES1   0.0000
    21 C7       4.1726   3.5366  -0.8333   C.ar      1 RES1   0.0000
    22 H5       3.2725   3.5512  -1.0646   H         1 RES1   0.0000
    23 C8       4.2474   4.2557   3.6133   C.ar      1 RES1   0.0000
    24 C9       4.4675   0.8569   6.2120   C.ar      1 RES1   0.0000
    25 C10      3.0355   2.2922   3.1284   C.2       1 RES1   0.0000
    26 H6       2.2350   2.7647   3.1530   H         1 RES1   0.0000
    27 C11      5.9886   2.6237   6.0217   C.2       1 RES1   0.0000
    28 H7       5.8389   2.8364   6.9152   H         1 RES1   0.0000
    29 O3       4.7623   8.2234   4.6775   O.3       1 RES1   0.0000
    30 N8       8.7760  -0.9258   2.2789   N.pl3     1 RES1   0.0000
    31 H8       9.3214  -1.1365   1.6481   H         1 RES1   0.0000
    32 C12      6.4034   4.3958  -1.0717   C.ar      1 RES1   0.0000
    33 H9       6.9953   4.9985  -1.4611   H         1 RES1   0.0000
    34 C13      7.9900   3.8610   3.4025   C.2       1 RES1   0.0000
    35 H10      8.3328   3.8223   2.5393   H         1 RES1   0.0000
    36 N9       2.1205  -0.0235   2.6586   N.pl3     1 RES1   0.0000
    37 H11      1.2801   0.1422   2.5770   H         1 RES1   0.0000
    38 C14      4.5343   6.9023   4.3744   C.ar      1 RES1   0.0000
    39 C15      3.0999   0.8706   2.9264   C.2       1 RES1   0.0000
    40 C16      2.7293  -1.2469   2.5408   C.2       1 RES1   0.0000
    41 H12      2.3090  -2.0551   2.3553   H         1 RES1   0.0000
    42 C17      7.8257   0.0209   2.2362   C.2       1 RES1   0.0000
    43 C18      3.8610   6.0260   5.2067   C.ar      1 RES1   0.0000
    44 H13      3.5173   6.3173   6.0195   H         1 RES1   0.0000
    45 C19      3.4910  -1.2813   6.7555   C.ar      1 RES1   0.0000
    46 H14      3.4266  -2.1969   6.6091   H         1 RES1   0.0000
    47 C20      3.7076   4.7028   4.8086   C.ar      1 RES1   0.0000
    48 H15      3.2373   4.1121   5.3500   H         1 RES1   0.0000
    49 C21      7.4142   0.8885   1.1663   C.2       1 RES1   0.0000
    50 H16      7.8372   0.9008   0.3393   H         1 RES1   0.0000
    51 C22      2.7119  -0.6877   7.7367   C.ar      1 RES1   0.0000
    52 C23      3.6578   1.4445   7.1646   C.ar      1 RES1   0.0000
    53 H17      3.6965   2.3660   7.2891   H         1 RES1   0.0000
    54 C24      8.3187   4.8037   4.3478   C.2       1 RES1   0.0000
    55 H18      8.9132   5.5117   4.2492   H         1 RES1   0.0000
    56 C25      2.7841   0.6867   7.9435   C.ar      1 RES1   0.0000
    57 H19      2.2576   1.0941   8.5919   H         1 RES1   0.0000
    58 C26      4.0578  -1.0600   2.7462   C.2       1 RES1   0.0000
    59 H20      4.7067  -1.7260   2.7247   H         1 RES1   0.0000
    60 C27      4.8961   5.1512   2.7685   C.ar      1 RES1   0.0000
    61 H21      5.2469   4.8613   1.9572   H         1 RES1   0.0000
    62 C28      8.7069  -1.4891   3.5254   C.2       1 RES1   0.0000
    63 H22      9.2398  -2.1796   3.8481   H         1 RES1   0.0000
    64 C29      7.7200  -0.8571   4.2025   C.2       1 RES1   0.0000
    65 H23      7.4622  -1.0427   5.0770   H         1 RES1   0.0000
    66 C30      5.0111   6.4692   3.1470   C.ar      1 RES1   0.0000
    67 H24      5.4155   7.0782   2.5709   H         1 RES1   0.0000
    68 C31      1.2090  -1.0194   9.5826   C.3       1 RES1   0.0000
    69 H25      0.5763  -0.3558   9.3006   H         1 RES1   0.0000
    70 H26      1.8413  -0.6242  10.1873   H         1 RES1   0.0000
    71 H27      0.7473  -1.7350  10.0244   H         1 RES1   0.0000
    72 C32      3.3203   5.5191  -2.6433   C.3       1 RES1   0.0000
    73 H28      3.2069   6.2316  -3.2766   H         1 RES1   0.0000
    74 H29      2.8316   5.7220  -1.8426   H         1 RES1   0.0000
    75 H30      2.9926   4.7000  -3.0188   H         1 RES1   0.0000
    76 C33      4.4530   8.6471   6.0104   C.3       1 RES1   0.0000
    77 H31      4.7322   9.5580   6.1311   H         1 RES1   0.0000
    78 H32      4.9122   8.0862   6.6407   H         1 RES1   0.0000
    79 H33      3.5056   8.5813   6.1552   H         1 RES1   0.0000
    80 Cl1      5.6677   5.5137   8.8704   Cl        2 RES2   0.0000
    81 O4       6.2314   5.0068  10.0868   O.3       2 RES2  -1.0000
    82 O7       4.9464   6.7207   9.1241   O.2       2 RES2   0.0000
    83 O9       4.7882   4.5133   8.3101   O.2       2 RES2   0.0000
    84 O10      6.7310   5.7916   7.9363   O.2       2 RES2   0.0000
    85 Cl2     10.8599   2.2671   0.5867   Cl        3 RES3   0.0000
    86 O5      12.2644   2.3909   0.4382   O.3       3 RES3  -1.0000
    87 O6      10.5740   1.6142   1.8387   O.2       3 RES3   0.0000
    88 O8      10.2171   3.5247   0.5549   O.2       3 RES3   0.0000
    89 O11     10.3539   1.4642  -0.5059   O.2       3 RES3   0.0000
@<TRIPOS>BOND
     1     1     2    1
     2     2    20    2
     3     3     1    1
     4     4     1    1
     5     5     1    1
     6     6     1    1
     7     7     1    1
     8     8    13    1
     9     9    51    1
    10    10    11    1
    11    12     5    1
    12    13    21   ar
    13    14    15    1
    14    16    12   ar
    15    17    16    1
    16    18    12   ar
    17    19    18    1
    18    20    10    1
    19    21    16   ar
    20    22    21    1
    21    23     3    1
    22    24     6    1
    23    25     3    2
    24    26    25    1
    25    27     6    2
    26    28    27    1
    27    29    38    1
    28    30    31    1
    29    32    13   ar
    30    33    32    1
    31    34     2    1
    32    35    34    1
    33    36    37    1
    34    38    43   ar
    35    39     4    2
    36    40    36    1
    37    41    40    1
    38    42     7    2
    39    43    44    1
    40    45    14   ar
    41    46    45    1
    42    47    23   ar
    43    48    47    1
    44    49     5    2
    45    50    49    1
    46    51    45   ar
    47    52    24   ar
    48    53    52    1
    49    54    10    1
    50    55    54    1
    51    56    51   ar
    52    57    56    1
    53    58     4    1
    54    59    58    1
    55    60    23   ar
    56    61    60    1
    57    62    30    1
    58    63    62    1
    59    64     7    1
    60    65    64    1
    61    66    38   ar
    62    67    66    1
    63    68     9    1
    64    69    68    1
    65    70    68    1
    66    71    68    1
    67    72     8    1
    68    73    72    1
    69    74    72    1
    70    75    72    1
    71    76    29    1
    72    77    76    1
    73    78    76    1
    74    79    76    1
    75    14    24   ar
    76    18    32   ar
    77    20    27    1
    78    25    39    1
    79    30    42    1
    80    34    54    2
    81    36    39    1
    82    40    58    2
    83    42    49    1
    84    43    47   ar
    85    52    56   ar
    86    60    66   ar
    87    62    64    2
    88    80    81    1
    89    82    80    2
    90    83    80    2
    91    84    80    2
    92    85    86    1
    93    87    85    2
    94    88    85    2
    95    89    85    2
@<TRIPOS>SUBSTRUCTURE
     1 RES1        1 GROUP             0 ****  ****    0  
     2 RES2       80 GROUP             0 ****  ****    0  
     3 RES3       85 GROUP             0 ****  ****    0  
@<TRIPOS>CRYSIN
   10.7803   12.1101   15.1949   83.3690   85.3340   69.3300     2     1
