@<TRIPOS>MOLECULE
ACOMAG
   137   149     6     0     0
SMALL
USER_CHARGES
****
Generated from the CSD

@<TRIPOS>ATOM
     1 Fe1     -0.2102   0.4963   5.7340   Fe        1 RES1   2.0000
     2 N1      -2.1585   0.2024   5.6119   N.ar      1 RES1   0.0000
     3 N2      -0.4280  -0.6577   7.2068   N.ar      1 RES1   0.0000
     4 N3       1.6529   0.4925   6.3999   N.ar      1 RES1   0.0000
     5 N4       0.1225  -0.9071   4.3718   N.ar      1 RES1   0.0000
     6 N5       0.0479   1.5914   4.2238   N.ar      1 RES1   0.0000
     7 N6      -0.5000   2.2631   6.5910   N.ar      1 RES1   0.0000
     8 C1      -4.3697   0.5093   4.7446   C.ar      1 RES1   0.0000
     9 H2      -4.9469   0.9474   4.1301   H         1 RES1   0.0000
    10 C2      -4.8845  -0.4078   5.6429   C.ar      1 RES1   0.0000
    11 H3      -5.8094  -0.6242   5.6367   H         1 RES1   0.0000
    12 C3      -4.0197  -1.0058   6.5566   C.ar      1 RES1   0.0000
    13 H4      -4.3518  -1.6243   7.1974   H         1 RES1   0.0000
    14 C4      -2.6671  -0.6917   6.5235   C.ar      1 RES1   0.0000
    15 C5      -1.6534  -1.2107   7.4504   C.ar      1 RES1   0.0000
    16 C6       0.6408  -0.9951   7.9592   C.ar      1 RES1   0.0000
    17 C7       0.0899  -2.2459   4.5416   C.ar      1 RES1   0.0000
    18 H5      -0.0990  -2.5921   5.4054   H         1 RES1   0.0000
    19 C8       0.3246  -3.1333   3.5045   C.ar      1 RES1   0.0000
    20 H6       0.2782  -4.0681   3.6612   H         1 RES1   0.0000
    21 C9       0.3891  -0.4291   3.1053   C.ar      1 RES1   0.0000
    22 C10      0.3695   1.0367   3.0305   C.ar      1 RES1   0.0000
    23 C11     -0.0544   2.9321   4.3572   C.ar      1 RES1   0.0000
    24 C12      0.5314  -1.9154   8.9889   C.ar      1 RES1   0.0000
    25 H7       1.2887  -2.1284   9.5208   H         1 RES1   0.0000
    26 C13     -0.7123  -2.5359   9.2447   C.ar      1 RES1   0.0000
    27 C14     -1.8180  -2.1557   8.4619   C.ar      1 RES1   0.0000
    28 H8      -2.6711  -2.5424   8.6206   H         1 RES1   0.0000
    29 C15      1.8557  -0.2874   7.5196   C.ar      1 RES1   0.0000
    30 C16      2.7084   1.2008   5.9253   C.ar      1 RES1   0.0000
    31 H9       2.5862   1.7407   5.1532   H         1 RES1   0.0000
    32 C17      3.9500   1.1638   6.5206   C.ar      1 RES1   0.0000
    33 H10      4.6616   1.6874   6.1722   H         1 RES1   0.0000
    34 C18      4.1538   0.3623   7.6248   C.ar      1 RES1   0.0000
    35 H11      5.0106   0.3106   8.0309   H         1 RES1   0.0000
    36 C19      3.0925  -0.3638   8.1335   C.ar      1 RES1   0.0000
    37 H12      3.2119  -0.9112   8.8999   H         1 RES1   0.0000
    38 C20     -0.8882  -3.5162  10.3517   C.ar      1 RES1   0.0000
    39 C21      0.0581  -4.5404  10.6282   C.ar      1 RES1   0.0000
    40 C22      1.2240  -4.8054   9.8032   C.ar      1 RES1   0.0000
    41 H13      1.3487  -4.3046   9.0061   H         1 RES1   0.0000
    42 C23      2.1382  -5.7439  10.1374   C.ar      1 RES1   0.0000
    43 H14      2.9008  -5.8668   9.5834   H         1 RES1   0.0000
    44 C24      1.9831  -6.5591  11.3104   C.ar      1 RES1   0.0000
    45 C25      2.9219  -7.5450  11.6611   C.ar      1 RES1   0.0000
    46 H15      3.7067  -7.6585  11.1379   H         1 RES1   0.0000
    47 C26      2.7037  -8.3558  12.7759   C.ar      1 RES1   0.0000
    48 H16      3.3387  -9.0265  13.0008   H         1 RES1   0.0000
    49 C27      1.5688  -8.1913  13.5607   C.ar      1 RES1   0.0000
    50 H17      1.4368  -8.7548  14.3136   H         1 RES1   0.0000
    51 C28      0.6161  -7.2077  13.2612   C.ar      1 RES1   0.0000
    52 C29     -0.5641  -7.0079  14.0537   C.ar      1 RES1   0.0000
    53 H18     -0.7079  -7.5561  14.8158   H         1 RES1   0.0000
    54 C30     -1.4712  -6.0688  13.7453   C.ar      1 RES1   0.0000
    55 H19     -2.2363  -5.9631  14.2969   H         1 RES1   0.0000
    56 C31     -1.3064  -5.2074  12.5861   C.ar      1 RES1   0.0000
    57 C32     -2.2250  -4.2141  12.2627   C.ar      1 RES1   0.0000
    58 H20     -3.0022  -4.1031  12.7986   H         1 RES1   0.0000
    59 C33     -2.0236  -3.3807  11.1654   C.ar      1 RES1   0.0000
    60 H21     -2.6651  -2.7093  10.9649   H         1 RES1   0.0000
    61 C34      0.8236  -6.3831  12.1077   C.ar      1 RES1   0.0000
    62 C35     -0.1458  -5.3770  11.7643   C.ar      1 RES1   0.0000
    63 C36      0.2153   3.7812   3.2868   C.ar      1 RES1   0.0000
    64 H22      0.1532   4.7234   3.3945   H         1 RES1   0.0000
    65 C37      0.5802   3.2281   2.0379   C.ar      1 RES1   0.0000
    66 C38      0.6309   1.8351   1.9223   C.ar      1 RES1   0.0000
    67 H23      0.8449   1.4347   1.0877   H         1 RES1   0.0000
    68 C39     -0.4345   3.3148   5.7308   C.ar      1 RES1   0.0000
    69 C40     -0.7721   2.5020   7.8844   C.ar      1 RES1   0.0000
    70 H24     -0.8051   1.7709   8.4894   H         1 RES1   0.0000
    71 C41     -1.0048   3.7768   8.3641   C.ar      1 RES1   0.0000
    72 H25     -1.1573   3.9193   9.2916   H         1 RES1   0.0000
    73 C42     -1.0141   4.8536   7.4777   C.ar      1 RES1   0.0000
    74 H26     -1.2114   5.7320   7.7788   H         1 RES1   0.0000
    75 C43     -0.7256   4.6054   6.1428   C.ar      1 RES1   0.0000
    76 H27     -0.7288   5.3182   5.5137   H         1 RES1   0.0000
    77 C44      0.8075   4.1473   0.8725   C.ar      1 RES1   0.0000
    78 C45      1.7783   3.9132  -0.1223   C.ar      1 RES1   0.0000
    79 C46      2.7687   2.8616  -0.0575   C.ar      1 RES1   0.0000
    80 H28      2.8170   2.3263   0.7252   H         1 RES1   0.0000
    81 C47      3.6274   2.6125  -1.0744   C.ar      1 RES1   0.0000
    82 H29      4.2631   1.9113  -0.9919   H         1 RES1   0.0000
    83 C48      3.5911   3.3983  -2.2765   C.ar      1 RES1   0.0000
    84 C49      4.4488   3.1183  -3.3716   C.ar      1 RES1   0.0000
    85 H30      5.0587   2.3909  -3.3257   H         1 RES1   0.0000
    86 C50      4.3904   3.9204  -4.5220   C.ar      1 RES1   0.0000
    87 H31      4.9506   3.7193  -5.2616   H         1 RES1   0.0000
    88 C51      3.5323   4.9970  -4.5912   C.ar      1 RES1   0.0000
    89 H32      3.5103   5.5260  -5.3803   H         1 RES1   0.0000
    90 C52      2.6858   5.3258  -3.5156   C.ar      1 RES1   0.0000
    91 C53      1.8103   6.4673  -3.5499   C.ar      1 RES1   0.0000
    92 H33      1.8077   7.0310  -4.3155   H         1 RES1   0.0000
    93 C54      0.9986   6.7499  -2.5191   C.ar      1 RES1   0.0000
    94 H34      0.4507   7.5242  -2.5568   H         1 RES1   0.0000
    95 C55      0.9417   5.8979  -1.3509   C.ar      1 RES1   0.0000
    96 C56      0.0400   6.1351  -0.3005   C.ar      1 RES1   0.0000
    97 H35     -0.5248   6.8989  -0.3272   H         1 RES1   0.0000
    98 C57     -0.0320   5.2647   0.7729   C.ar      1 RES1   0.0000
    99 H36     -0.6673   5.4285   1.4607   H         1 RES1   0.0000
   100 C58      2.7010   4.4985  -2.3480   C.ar      1 RES1   0.0000
   101 C59      1.8092   4.7734  -1.2705   C.ar      1 RES1   0.0000
   102 C60      0.6263  -2.6563   2.2363   C.ar      1 RES1   0.0000
   103 H37      0.8140  -3.2534   1.5212   H         1 RES1   0.0000
   104 C61      0.6453  -1.2796   2.0413   C.ar      1 RES1   0.0000
   105 H38      0.8345  -0.9223   1.1815   H         1 RES1   0.0000
   106 C62     -3.0186   0.7876   4.7394   C.ar      1 RES1   0.0000
   107 Cl1     -0.5084   0.9417  11.5586   Cl        2 RES2   0.0000
   108 O1      -1.4523   0.2008  10.8607   O.3       2 RES2  -1.0000
   109 O2      -0.4444   2.2604  11.0445   O.2       2 RES2   0.0000
   110 O3      -0.7903   1.1113  12.9120   O.2       2 RES2   0.0000
   111 O4       0.7666   0.4452  11.2170   O.2       2 RES2   0.0000
   112 Cl2      4.3590   0.0729   2.6133   Cl        3 RES3   0.0000
   113 O5       3.7588  -0.6612   3.6823   O.3       3 RES3  -1.0000
   114 O6       5.5807  -0.5630   2.2359   O.2       3 RES3   0.0000
   115 O7       4.6226   1.4094   3.0465   O.2       3 RES3   0.0000
   116 O8       3.4683   0.0492   1.5053   O.2       3 RES3   0.0000
   117 N7       3.0586  -3.9199   5.8909   N.pl3     4 RES4   0.0000
   118 C63      3.1466  -5.0055   4.9969   C.3       4 RES4   0.0000
   119 H39      3.5870  -5.7592   5.4408   H         4 RES4   0.0000
   120 H40      3.6676  -4.7405   4.2113   H         4 RES4   0.0000
   121 H41      2.2456  -5.2712   4.7156   H         4 RES4   0.0000
   122 O9       3.9387  -3.0232   5.4929   O.2       4 RES4   0.0000
   123 O10      2.1036  -3.6605   6.6306   O.2       4 RES4   0.0000
   124 N8       3.1466  -6.7733   3.0152   N.pl3     5 RES5   0.0000
   125 C64      3.1925  -5.5918   2.3276   C.3       5 RES5   0.0000
   126 H42      3.6416  -4.9140   2.8756   H         5 RES5   0.0000
   127 H43      2.2804  -5.2959   2.1255   H         5 RES5   0.0000
   128 H44      3.6883  -5.7179   1.4920   H         5 RES5   0.0000
   129 O11      4.1493  -7.1769   3.4174   O.2       5 RES5   0.0000
   130 O12      2.1490  -7.4363   3.2757   O.2       5 RES5   0.0000
   131 N9       3.3896  -2.4138  -0.5501   N.pl3     6 RES6   0.0000
   132 C65      4.6228  -1.7003  -0.8856   C.3       6 RES6   0.0000
   133 H45      5.1421  -2.2275  -1.5274   H         6 RES6   0.0000
   134 H46      5.1529  -1.5634  -0.0729   H         6 RES6   0.0000
   135 H47      4.4008  -0.8306  -1.2815   H         6 RES6   0.0000
   136 O13      2.3474  -2.0769  -0.8669   O.2       6 RES6   0.0000
   137 O14      3.5305  -3.4167   0.1479   O.2       6 RES6   0.0000
@<TRIPOS>BOND
     1     1     2    1
     2     2    14   ar
     3     3     1    1
     4     4     1    1
     5     5     1    1
     6     6     1    1
     7     7     1    1
     8     8     9    1
     9    10     8   ar
    10    11    10    1
    11    12    10   ar
    12    13    12    1
    13    14    12   ar
    14    15     3   ar
    15    16     3   ar
    16    17     5   ar
    17    18    17    1
    18    19    17   ar
    19    20    19    1
    20    21     5   ar
    21    22     6   ar
    22    23     6   ar
    23    24    16   ar
    24    25    24    1
    25    26    24   ar
    26    27    15   ar
    27    28    27    1
    28    29     4   ar
    29    30     4   ar
    30    31    30    1
    31    32    30   ar
    32    33    32    1
    33    34    32   ar
    34    35    34    1
    35    36    29   ar
    36    37    36    1
    37    38    26    1
    38    39    38   ar
    39    40    39   ar
    40    41    40    1
    41    42    40   ar
    42    43    42    1
    43    44    42   ar
    44    45    44   ar
    45    46    45    1
    46    47    45   ar
    47    48    47    1
    48    49    47   ar
    49    50    49    1
    50    51    49   ar
    51    52    51   ar
    52    53    52    1
    53    54    52   ar
    54    55    54    1
    55    56    54   ar
    56    57    56   ar
    57    58    57    1
    58    59    38   ar
    59    60    59    1
    60    61    44   ar
    61    62    39   ar
    62    63    23   ar
    63    64    63    1
    64    65    63   ar
    65    66    22   ar
    66    67    66    1
    67    68     7   ar
    68    69     7   ar
    69    70    69    1
    70    71    69   ar
    71    72    71    1
    72    73    71   ar
    73    74    73    1
    74    75    68   ar
    75    76    75    1
    76    77    65    1
    77    78    77   ar
    78    79    78   ar
    79    80    79    1
    80    81    79   ar
    81    82    81    1
    82    83    81   ar
    83    84    83   ar
    84    85    84    1
    85    86    84   ar
    86    87    86    1
    87    88    86   ar
    88    89    88    1
    89    90    88   ar
    90    91    90   ar
    91    92    91    1
    92    93    91   ar
    93    94    93    1
    94    95    93   ar
    95    96    95   ar
    96    97    96    1
    97    98    77   ar
    98    99    98    1
    99   100    83   ar
   100   101    78   ar
   101   102    19   ar
   102   103   102    1
   103   104    21   ar
   104   105   104    1
   105   106     2   ar
   106     8   106   ar
   107    14    15    1
   108    16    29    1
   109    21    22    1
   110    23    68    1
   111    26    27   ar
   112    34    36   ar
   113    51    61   ar
   114    56    62   ar
   115    57    59   ar
   116    61    62   ar
   117    65    66   ar
   118    73    75   ar
   119    90   100   ar
   120    95   101   ar
   121    96    98   ar
   122   100   101   ar
   123   102   104   ar
   124   107   108    1
   125   109   107    2
   126   110   107    2
   127   111   107    2
   128   112   113    1
   129   114   112    2
   130   115   112    2
   131   116   112    2
   132   117   118    1
   133   118   119    1
   134   120   118    1
   135   121   118    1
   136   122   117    2
   137   123   117    2
   138   124   125    1
   139   125   126    1
   140   127   125    1
   141   128   125    1
   142   129   124    2
   143   130   124    2
   144   131   132    1
   145   132   133    1
   146   134   132    1
   147   135   132    1
   148   136   131    2
   149   137   131    2
@<TRIPOS>SUBSTRUCTURE
     1 RES1        1 GROUP             0 ****  ****    0  
     2 RES2      107 GROUP             0 ****  ****    0  
     3 RES3      112 GROUP             0 ****  ****    0  
     4 RES4      117 GROUP             0 ****  ****    0  
     5 RES5      124 GROUP             0 ****  ****    0  
     6 RES6      131 GROUP             0 ****  ****    0  
@<TRIPOS>CRYSIN
   11.9966   12.7997   21.6647   89.7620   75.4570   65.7240     2     1
