@<TRIPOS>MOLECULE
ACORUG
    78    82     2     0     0
SMALL
USER_CHARGES
****
Generated from the CSD

@<TRIPOS>ATOM
     1 Fe1     -2.4157   0.6266   9.7195   Fe        1 RES1   1.0000
     2 O1      -3.4246   1.1659   8.1310   O.3       1 RES1   0.0000
     3 O2      -4.3062   1.4593   5.6406   O.3       1 RES1   0.0000
     4 O3      -0.7668   1.6322   9.4264   O.3       1 RES1   0.0000
     5 O4       1.0453   3.5226   9.5281   O.3       1 RES1   0.0000
     6 N1      -3.3907   2.1939  10.7191   N.2       1 RES1   0.0000
     7 N2      -1.7269   0.2898  11.8298   N.3       1 RES1   0.0000
     8 N3      -1.4317  -0.9887   8.7386   N.2       1 RES1   0.0000
     9 N4      -3.8958  -1.0003  10.0487   N.3       1 RES1   0.0000
    10 C1      -4.0827   2.3116   7.8286   C.ar      1 RES1   0.0000
    11 C2      -4.5401   2.4817   6.5171   C.ar      1 RES1   0.0000
    12 C3      -5.1922   3.6441   6.1826   C.ar      1 RES1   0.0000
    13 C4      -5.4407   4.6312   7.1327   C.ar      1 RES1   0.0000
    14 C5      -5.0649   4.4661   8.3639   C.ar      1 RES1   0.0000
    15 C6      -4.3726   3.3171   8.7921   C.ar      1 RES1   0.0000
    16 C7      -4.0198   3.1763  10.1705   C.2       1 RES1   0.0000
    17 C8      -3.1738   2.1984  12.1644   C.3       1 RES1   0.0000
    18 C9      -1.8691   1.6032  12.5123   C.3       1 RES1   0.0000
    19 C10     -4.7366   1.6332   4.3091   C.3       1 RES1   0.0000
    20 C11     -0.3977  -0.4115  11.9637   C.3       1 RES1   0.0000
    21 C12     -0.0950  -0.8290  13.4625   C.3       1 RES1   0.0000
    22 C13      0.8962  -0.3736  13.9978   C.3       1 RES1   0.0000
    23 C14      0.3551   1.3439   8.8456   C.ar      1 RES1   0.0000
    24 C15      1.3507   2.4731   8.8456   C.ar      1 RES1   0.0000
    25 C16      2.5294   2.2072   8.2033   C.ar      1 RES1   0.0000
    26 C17      2.8022   1.0441   7.4539   C.ar      1 RES1   0.0000
    27 C18      1.8870  -0.0533   7.5074   C.ar      1 RES1   0.0000
    28 C19      0.6406   0.1545   8.1765   C.ar      1 RES1   0.0000
    29 C20     -0.2833  -0.9641   8.1765   C.2       1 RES1   0.0000
    30 C21     -2.2267  -2.3079   8.7386   C.3       1 RES1   0.0000
    31 C22     -3.6837  -1.9882   8.8858   C.3       1 RES1   0.0000
    32 C23      2.0052   4.5938   9.5549   C.3       1 RES1   0.0000
    33 C24     -5.2960  -0.5675  10.1571   C.3       1 RES1   0.0000
    34 C25     -6.3240  -1.7118  10.3979   C.3       1 RES1   0.0000
    35 C26     -7.6170  -1.1297  10.9332   C.3       1 RES1   0.0000
    36 H1      -5.5463   3.7960   5.2860   H         1 RES1   0.0000
    37 H2      -5.8819   5.5200   6.8651   H         1 RES1   0.0000
    38 H3      -5.3246   5.1550   9.0611   H         1 RES1   0.0000
    39 H4      -4.3463   3.8947  10.7807   H         1 RES1   0.0000
    40 H5      -3.2489   3.0831  12.5378   H         1 RES1   0.0000
    41 H6      -3.8612   1.6592  12.6100   H         1 RES1   0.0000
    42 H7      -1.7427   1.5462  13.4531   H         1 RES1   0.0000
    43 H8      -1.1686   2.2063  12.1724   H         1 RES1   0.0000
    44 H9      -2.3789  -0.3302  12.2567   H         1 RES1   0.0000
    45 H10     -5.6876   1.7459   4.2288   H         1 RES1   0.0000
    46 H11     -4.3154   2.3706   3.8648   H         1 RES1   0.0000
    47 H12     -4.5137   0.8348   3.7845   H         1 RES1   0.0000
    48 H13     -0.3406  -1.1775  11.3588   H         1 RES1   0.0000
    49 H14      0.3026   0.2054  11.6452   H         1 RES1   0.0000
    50 H15     -0.8927  -0.6713  13.9656   H         1 RES1   0.0000
    51 H16      0.0708  -1.7883  13.4839   H         1 RES1   0.0000
    52 H17      0.9568  -0.5683  14.9305   H         1 RES1   0.0000
    53 H18      1.6745  -0.4388  13.5615   H         1 RES1   0.0000
    54 H19      0.7117   0.6787  14.0406   H         1 RES1   0.0000
    55 H20      3.2772   2.8976   8.1859   H         1 RES1   0.0000
    56 H21      3.6344   0.8616   6.8985   H         1 RES1   0.0000
    57 H22      2.0702  -0.9599   7.0564   H         1 RES1   0.0000
    58 H23      0.0196  -1.8197   7.7670   H         1 RES1   0.0000
    59 H24     -2.0419  -2.8357   7.9289   H         1 RES1   0.0000
    60 H25     -1.9602  -2.8903   9.4773   H         1 RES1   0.0000
    61 H26     -4.2299  -2.7592   8.9594   H         1 RES1   0.0000
    62 H27     -3.9789  -1.5492   8.0213   H         1 RES1   0.0000
    63 H28     -3.6705  -1.4413  10.8583   H         1 RES1   0.0000
    64 H29      2.9033   4.2316   9.9202   H         1 RES1   0.0000
    65 H30      2.2438   4.9035   8.6877   H         1 RES1   0.0000
    66 H31      1.7916   5.2950  10.1183   H         1 RES1   0.0000
    67 H32     -5.3694   0.0985  10.8744   H         1 RES1   0.0000
    68 H33     -5.5302  -0.0735   9.3408   H         1 RES1   0.0000
    69 H34     -6.4401  -2.2372   9.5870   H         1 RES1   0.0000
    70 H35     -5.9378  -2.3512  11.0497   H         1 RES1   0.0000
    71 H36     -7.5069  -0.5972  11.7241   H         1 RES1   0.0000
    72 H37     -8.0128  -0.4896  10.2615   H         1 RES1   0.0000
    73 H38     -8.3190  -1.7608  11.0965   H         1 RES1   0.0000
    74 Cl1     -2.5628  -4.2207  12.3303   Cl        2 RES2   0.0000
    75 O5      -3.0020  -4.1950  13.6231   O.3       2 RES2  -1.0000
    76 O6      -1.3286  -4.6325  12.0707   O.2       2 RES2   0.0000
    77 O7      -3.4387  -4.6475  11.4953   O.2       2 RES2   0.0000
    78 O8      -2.3234  -2.8622  12.0841   O.2       2 RES2   0.0000
@<TRIPOS>BOND
     1     1     2    1
     2     2    10    1
     3     3    11    1
     4     4     1    1
     5     5    24    1
     6     6     1    1
     7     7     1    1
     8     8     1    1
     9     9     1    1
    10    10    11   ar
    11    11    12   ar
    12    12    13   ar
    13    13    14   ar
    14    14    15   ar
    15    15    10   ar
    16    16     6    2
    17    17     6    1
    18    18     7    1
    19    19     3    1
    20    20     7    1
    21    21    20    1
    22    22    21    1
    23    23     4    1
    24    24    23   ar
    25    25    24   ar
    26    26    25   ar
    27    27    26   ar
    28    28    23   ar
    29    29     8    2
    30    30     8    1
    31    31     9    1
    32    32     5    1
    33    33     9    1
    34    34    33    1
    35    35    34    1
    36    36    12    1
    37    37    13    1
    38    38    14    1
    39    39    16    1
    40    40    17    1
    41    41    17    1
    42    42    18    1
    43    43    18    1
    44    44     7    1
    45    45    19    1
    46    46    19    1
    47    47    19    1
    48    48    20    1
    49    49    20    1
    50    50    21    1
    51    51    21    1
    52    52    22    1
    53    53    22    1
    54    54    22    1
    55    55    25    1
    56    56    26    1
    57    57    27    1
    58    58    29    1
    59    59    30    1
    60    60    30    1
    61    61    31    1
    62    62    31    1
    63    63     9    1
    64    64    32    1
    65    65    32    1
    66    66    32    1
    67    67    33    1
    68    68    33    1
    69    69    34    1
    70    70    34    1
    71    71    35    1
    72    72    35    1
    73    73    35    1
    74    15    16    1
    75    17    18    1
    76    27    28   ar
    77    28    29    1
    78    30    31    1
    79    74    75    1
    80    76    74    2
    81    77    74    2
    82    78    74    2
@<TRIPOS>SUBSTRUCTURE
     1 RES1        1 GROUP             0 ****  ****    0  
     2 RES2       74 GROUP             0 ****  ****    0  
@<TRIPOS>CRYSIN
   10.6630   10.9320   14.1240   96.2700  105.1700  105.1260     2     1
