@<TRIPOS>MOLECULE
ACOSAN01
    84    88     2     0     0
SMALL
USER_CHARGES
****
Generated from the CSD

@<TRIPOS>ATOM
     1 Fe1      5.5162   3.7231   3.6113   Fe        1 RES1   1.0000
     2 O1       6.8664   4.8580   2.9900   O.3       1 RES1   0.0000
     3 O2       8.2100   6.7863   1.8912   O.3       1 RES1   0.0000
     4 O3       4.7625   5.0628   4.6977   O.3       1 RES1   0.0000
     5 O4       4.2882   6.9361   6.4522   O.3       1 RES1   0.0000
     6 N1       6.5377   3.2070   5.1723   N.2       1 RES1   0.0000
     7 N2       4.1467   2.4028   4.3517   N.3       1 RES1   0.0000
     8 N3       4.4779   4.2111   2.0619   N.2       1 RES1   0.0000
     9 N4       6.2698   2.2704   2.3646   N.3       1 RES1   0.0000
    10 C1       8.6030   6.4241   3.1595   C.ar      1 RES1   0.0000
    11 C2       9.6825   6.9936   3.8245   C.ar      1 RES1   0.0000
    12 C3      10.0152   6.5315   5.1068   C.ar      1 RES1   0.0000
    13 C4       9.3075   5.5249   5.6947   C.ar      1 RES1   0.0000
    14 C5       8.2126   4.9305   5.0133   C.ar      1 RES1   0.0000
    15 C6       7.8321   5.3701   3.7182   C.ar      1 RES1   0.0000
    16 C7       7.5585   3.8390   5.6550   C.2       1 RES1   0.0000
    17 C8       5.9442   2.0806   5.9086   C.3       1 RES1   0.0000
    18 C9       4.4507   2.2504   5.8070   C.3       1 RES1   0.0000
    19 C10      8.9290   7.8328   1.2554   C.3       1 RES1   0.0000
    20 C11      2.7069   2.7375   4.1261   C.3       1 RES1   0.0000
    21 C12      1.7267   1.8283   4.8356   C.3       1 RES1   0.0000
    22 C13      0.2759   2.1805   4.5364   C.3       1 RES1   0.0000
    23 C14     -0.6774   1.3288   5.3558   C.3       1 RES1   0.0000
    24 C15      4.0349   6.1044   4.2594   C.ar      1 RES1   0.0000
    25 C16      3.7433   7.1334   5.2132   C.ar      1 RES1   0.0000
    26 C17      2.9586   8.1950   4.8602   C.ar      1 RES1   0.0000
    27 C18      2.4074   8.3049   3.5674   C.ar      1 RES1   0.0000
    28 C19      2.6711   7.3357   2.6346   C.ar      1 RES1   0.0000
    29 C20      3.5192   6.2393   2.9596   C.ar      1 RES1   0.0000
    30 C21      3.7772   5.2577   1.9427   C.2       1 RES1   0.0000
    31 C22      4.6208   3.2870   0.9281   C.3       1 RES1   0.0000
    32 C23      6.0209   2.7350   0.9795   C.3       1 RES1   0.0000
    33 C24      4.0004   7.9152   7.4469   C.3       1 RES1   0.0000
    34 C25      7.7020   1.9232   2.5762   C.3       1 RES1   0.0000
    35 C26      8.3231   0.9416   1.6107   C.3       1 RES1   0.0000
    36 C27      7.9430  -0.3522   1.7253   C.3       1 RES1   0.0000
    37 C28      9.0255  -1.3138   0.9234   C.3       1 RES1   0.0000
    38 H1       4.2898   1.5511   3.9297   H         1 RES1   0.0000
    39 H2      10.1885   7.6879   3.4049   H         1 RES1   0.0000
    40 H3      10.7494   6.9361   5.5697   H         1 RES1   0.0000
    41 H4       9.5490   5.2127   6.5866   H         1 RES1   0.0000
    42 H5       7.9028   3.5642   6.5235   H         1 RES1   0.0000
    43 H6       6.2087   1.2439   5.5299   H         1 RES1   0.0000
    44 H7       6.2263   2.0881   6.8297   H         1 RES1   0.0000
    45 H8       4.1669   3.0197   6.3026   H         1 RES1   0.0000
    46 H9       3.9962   1.4811   6.1845   H         1 RES1   0.0000
    47 H10      9.8575   7.5905   1.1665   H         1 RES1   0.0000
    48 H11      8.5869   7.9926   0.3729   H         1 RES1   0.0000
    49 H12      8.8755   8.6370   1.7545   H         1 RES1   0.0000
    50 H13      2.5626   3.6317   4.4172   H         1 RES1   0.0000
    51 H14      2.5302   2.6950   3.1805   H         1 RES1   0.0000
    52 H15      1.9030   0.9142   4.5738   H         1 RES1   0.0000
    53 H16      1.8834   1.8833   5.7836   H         1 RES1   0.0000
    54 H17      0.1255   3.1021   4.7199   H         1 RES1   0.0000
    55 H18      0.0967   2.0256   3.6025   H         1 RES1   0.0000
    56 H19     -1.5788   1.5611   5.1746   H         1 RES1   0.0000
    57 H20     -0.5378   0.4096   5.1758   H         1 RES1   0.0000
    58 H21     -0.5071   1.4836   6.2944   H         1 RES1   0.0000
    59 H22      5.7442   1.4686   2.5049   H         1 RES1   0.0000
    60 H23      2.7585   8.8768   5.5124   H         1 RES1   0.0000
    61 H24      1.8526   9.0592   3.3325   H         1 RES1   0.0000
    62 H25      2.2801   7.3982   1.7638   H         1 RES1   0.0000
    63 H26      3.3512   5.3900   1.0882   H         1 RES1   0.0000
    64 H27      3.9817   2.5701   0.9994   H         1 RES1   0.0000
    65 H28      4.4588   3.7441   0.1040   H         1 RES1   0.0000
    66 H29      6.6592   3.4144   0.7411   H         1 RES1   0.0000
    67 H30      6.1307   2.0082   0.3518   H         1 RES1   0.0000
    68 H31      4.4241   7.6904   8.2628   H         1 RES1   0.0000
    69 H32      4.2834   8.7744   7.1628   H         1 RES1   0.0000
    70 H33      3.0474   7.9452   7.5953   H         1 RES1   0.0000
    71 H34      8.2151   2.7125   2.5587   H         1 RES1   0.0000
    72 H35      7.7904   1.5286   3.4657   H         1 RES1   0.0000
    73 H36      8.0455   1.2314   0.7387   H         1 RES1   0.0000
    74 H37      9.2360   0.9666   1.6972   H         1 RES1   0.0000
    75 H38      7.8505  -0.6369   2.6720   H         1 RES1   0.0000
    76 H39      7.0159  -0.5195   1.3699   H         1 RES1   0.0000
    77 H40      8.7565  -2.2554   1.0193   H         1 RES1   0.0000
    78 H41      9.0232  -1.0890   0.0304   H         1 RES1   0.0000
    79 H42      9.8577  -1.2089   1.3325   H         1 RES1   0.0000
    80 Cl1      4.0040  -0.8862   2.5353   Cl        2 RES2   0.0000
    81 O5       2.5997  -0.8667   2.8556   O.3       2 RES2  -1.0000
    82 O6       4.7599  -0.3971   3.6925   O.2       2 RES2   0.0000
    83 O7       4.3993  -2.2055   2.2325   O.2       2 RES2   0.0000
    84 O8       4.2585  -0.0150   1.4377   O.2       2 RES2   0.0000
@<TRIPOS>BOND
     1     1     2    1
     2     2    15    1
     3     3    10    1
     4     4     1    1
     5     5    25    1
     6     6     1    1
     7     7     1    1
     8     8     1    1
     9     9     1    1
    10    10    11   ar
    11    11    12   ar
    12    12    13   ar
    13    13    14   ar
    14    14    15   ar
    15    15    10   ar
    16    16     6    2
    17    17     6    1
    18    18     7    1
    19    19     3    1
    20    20     7    1
    21    21    20    1
    22    22    21    1
    23    23    22    1
    24    24     4    1
    25    25    24   ar
    26    26    25   ar
    27    27    26   ar
    28    28    27   ar
    29    29    24   ar
    30    30     8    2
    31    31     8    1
    32    32     9    1
    33    33     5    1
    34    34     9    1
    35    35    34    1
    36    36    35    1
    37    37    36    1
    38    38     7    1
    39    39    11    1
    40    40    12    1
    41    41    13    1
    42    42    16    1
    43    43    17    1
    44    44    17    1
    45    45    18    1
    46    46    18    1
    47    47    19    1
    48    48    19    1
    49    49    19    1
    50    50    20    1
    51    51    20    1
    52    52    21    1
    53    53    21    1
    54    54    22    1
    55    55    22    1
    56    56    23    1
    57    57    23    1
    58    58    23    1
    59    59     9    1
    60    60    26    1
    61    61    27    1
    62    62    28    1
    63    63    30    1
    64    64    31    1
    65    65    31    1
    66    66    32    1
    67    67    32    1
    68    68    33    1
    69    69    33    1
    70    70    33    1
    71    71    34    1
    72    72    34    1
    73    73    35    1
    74    74    35    1
    75    75    36    1
    76    76    36    1
    77    77    37    1
    78    78    37    1
    79    79    37    1
    80    14    16    1
    81    17    18    1
    82    28    29   ar
    83    29    30    1
    84    31    32    1
    85    80    81    1
    86    82    80    2
    87    83    80    2
    88    84    80    2
@<TRIPOS>SUBSTRUCTURE
     1 RES1        1 GROUP             0 ****  ****    0  
     2 RES2       80 GROUP             0 ****  ****    0  
@<TRIPOS>CRYSIN
   10.7580   24.9770   12.2150   90.0000  106.8800   90.0000   231     1
