@<TRIPOS>MOLECULE
ACOSAN
    84    88     2     0     0
SMALL
USER_CHARGES
****
Generated from the CSD

@<TRIPOS>ATOM
     1 Fe1      3.4236   8.6822   9.6959   Fe        1 RES1   1.0000
     2 O1       5.0244   7.7246   9.2642   O.3       1 RES1   0.0000
     3 O2       6.4809   5.7960   8.2856   O.3       1 RES1   0.0000
     4 O3       2.5594   7.2431  10.5877   O.3       1 RES1   0.0000
     5 O4       1.8806   5.3847  12.3202   O.3       1 RES1   0.0000
     6 N1       4.4190   9.3649  11.3927   N.2       1 RES1   0.0000
     7 N2       1.9174  10.0721  10.5568   N.3       1 RES1   0.0000
     8 N3       2.3138   8.2237   8.0097   N.2       1 RES1   0.0000
     9 N4       4.0655  10.2703   8.3236   N.3       1 RES1   0.0000
    10 C1       5.9645   7.2406  10.0716   C.ar      1 RES1   0.0000
    11 C2       6.8019   6.2148   9.5246   C.ar      1 RES1   0.0000
    12 C3       7.8096   5.6957  10.2975   C.ar      1 RES1   0.0000
    13 C4       8.0660   6.1546  11.5936   C.ar      1 RES1   0.0000
    14 C5       7.3078   7.1403  12.1050   C.ar      1 RES1   0.0000
    15 C6       6.2141   7.7071  11.3558   C.ar      1 RES1   0.0000
    16 C7       5.4457   8.7880  11.9266   C.2       1 RES1   0.0000
    17 C8       3.7448  10.4157  12.1644   C.3       1 RES1   0.0000
    18 C9       2.2632  10.1775  11.9742   C.3       1 RES1   0.0000
    19 C10      7.2595   4.7727   7.7172   C.3       1 RES1   0.0000
    20 C11      0.5184   9.7085  10.3213   C.3       1 RES1   0.0000
    21 C12     -0.5206  10.6214  10.9991   C.3       1 RES1   0.0000
    22 C13     -1.9444  10.2753  10.6780   C.3       1 RES1   0.0000
    23 C14     -2.9553  11.0728  11.4628   C.3       1 RES1   0.0000
    24 C15      1.7468   6.3202  10.1667   C.ar      1 RES1   0.0000
    25 C16      1.3329   5.2844  11.0467   C.ar      1 RES1   0.0000
    26 C17      0.5033   4.2812  10.6424   C.ar      1 RES1   0.0000
    27 C18     -0.0076   4.2210   9.3463   C.ar      1 RES1   0.0000
    28 C19      0.3425   5.2041   8.4901   C.ar      1 RES1   0.0000
    29 C20      1.2069   6.2148   8.8587   C.ar      1 RES1   0.0000
    30 C21      1.5706   7.1929   7.8718   C.2       1 RES1   0.0000
    31 C22      2.5183   9.1216   6.8611   C.3       1 RES1   0.0000
    32 C23      3.9079   9.7110   6.9681   C.3       1 RES1   0.0000
    33 C24      1.4665   4.4567  13.3059   C.3       1 RES1   0.0000
    34 C25      5.4415  10.8170   8.5615   C.3       1 RES1   0.0000
    35 C26      5.8036  12.0785   7.7648   C.3       1 RES1   0.0000
    36 C27      7.0009  12.6654   8.0383   C.3       1 RES1   0.0000
    37 C28      7.3128  13.8442   7.2891   C.3       1 RES1   0.0000
    38 H1       8.3609   4.9307   9.9503   H         1 RES1   0.0000
    39 H2       8.8217   5.7860  12.0931   H         1 RES1   0.0000
    40 H3       7.5110   7.4789  13.0170   H         1 RES1   0.0000
    41 H4       5.6931   9.1341  12.8636   H         1 RES1   0.0000
    42 H5       3.9815  11.2910  11.8148   H         1 RES1   0.0000
    43 H6       4.0039  10.3957  13.0812   H         1 RES1   0.0000
    44 H7       2.0147   9.3298  12.4034   H         1 RES1   0.0000
    45 H8       1.7368  10.8571  12.4129   H         1 RES1   0.0000
    46 H9       2.0465  10.9725  10.2048   H         1 RES1   0.0000
    47 H10      7.3146   3.9551   8.2475   H         1 RES1   0.0000
    48 H11      8.2328   5.0411   7.6292   H         1 RES1   0.0000
    49 H12      7.0259   4.4943   6.8218   H         1 RES1   0.0000
    50 H13      0.3699   8.7830  10.5758   H         1 RES1   0.0000
    51 H14      0.3303   9.7386   9.3546   H         1 RES1   0.0000
    52 H15     -0.4225  10.5035  12.0039   H         1 RES1   0.0000
    53 H16     -0.3358  11.5368  10.8505   H         1 RES1   0.0000
    54 H17     -2.1056   9.3523  10.7946   H         1 RES1   0.0000
    55 H18     -2.0620  10.4684   9.7184   H         1 RES1   0.0000
    56 H19     -3.8467  10.8647  11.1668   H         1 RES1   0.0000
    57 H20     -2.8172  12.0183  11.2964   H         1 RES1   0.0000
    58 H21     -2.8666  10.8973  12.3701   H         1 RES1   0.0000
    59 H22      0.2848   3.5313  11.2417   H         1 RES1   0.0000
    60 H23     -0.6416   3.4585   9.1132   H         1 RES1   0.0000
    61 H24     -0.0509   5.1539   7.6209   H         1 RES1   0.0000
    62 H25      1.2272   7.0224   6.9681   H         1 RES1   0.0000
    63 H26      2.4473   8.6476   5.9788   H         1 RES1   0.0000
    64 H27      1.9004   9.8589   6.7814   H         1 RES1   0.0000
    65 H28      4.5889   9.0037   6.8123   H         1 RES1   0.0000
    66 H29      4.1090  10.3731   6.2689   H         1 RES1   0.0000
    67 H30      3.4319  11.0076   8.3807   H         1 RES1   0.0000
    68 H31      0.5398   4.4542  13.4926   H         1 RES1   0.0000
    69 H32      1.7163   3.5313  13.0776   H         1 RES1   0.0000
    70 H33      1.9236   4.6072  14.1764   H         1 RES1   0.0000
    71 H34      6.1122  10.1097   8.3415   H         1 RES1   0.0000
    72 H35      5.5827  10.9800   9.5139   H         1 RES1   0.0000
    73 H36      5.7611  11.8704   6.8087   H         1 RES1   0.0000
    74 H37      5.0403  12.7156   7.8908   H         1 RES1   0.0000
    75 H38      7.6558  12.0359   7.9431   H         1 RES1   0.0000
    76 H39      6.9337  12.8886   9.0193   H         1 RES1   0.0000
    77 H40      8.1454  14.2279   7.6601   H         1 RES1   0.0000
    78 H41      6.6366  14.5514   7.4996   H         1 RES1   0.0000
    79 H42      7.3658  13.6987   6.4282   H         1 RES1   0.0000
    80 Cl1      1.6421  13.2849   8.4461   Cl        2 RES2   0.0000
    81 O5       1.8900  14.5514   8.0620   O.3       2 RES2  -1.0000
    82 O6       2.3765  12.9137   9.6435   O.2       2 RES2   0.0000
    83 O7       1.9185  12.3594   7.4556   O.2       2 RES2   0.0000
    84 O8       0.2337  13.2648   8.7636   O.2       2 RES2   0.0000
@<TRIPOS>BOND
     1     1     2    1
     2     2    10    1
     3     3    11    1
     4     4     1    1
     5     5    25    1
     6     6     1    1
     7     7     1    1
     8     8     1    1
     9     9     1    1
    10    10    11   ar
    11    11    12   ar
    12    12    13   ar
    13    13    14   ar
    14    14    15   ar
    15    15    10   ar
    16    16     6    2
    17    17     6    1
    18    18     7    1
    19    19     3    1
    20    20     7    1
    21    21    20    1
    22    22    21    1
    23    23    22    1
    24    24     4    1
    25    25    24   ar
    26    26    25   ar
    27    27    26   ar
    28    28    27   ar
    29    29    24   ar
    30    30     8    2
    31    31     8    1
    32    32     9    1
    33    33     5    1
    34    34     9    1
    35    35    34    1
    36    36    35    1
    37    37    36    1
    38    38    12    1
    39    39    13    1
    40    40    14    1
    41    41    16    1
    42    42    17    1
    43    43    17    1
    44    44    18    1
    45    45    18    1
    46    46     7    1
    47    47    19    1
    48    48    19    1
    49    49    19    1
    50    50    20    1
    51    51    20    1
    52    52    21    1
    53    53    21    1
    54    54    22    1
    55    55    22    1
    56    56    23    1
    57    57    23    1
    58    58    23    1
    59    59    26    1
    60    60    27    1
    61    61    28    1
    62    62    30    1
    63    63    31    1
    64    64    31    1
    65    65    32    1
    66    66    32    1
    67    67     9    1
    68    68    33    1
    69    69    33    1
    70    70    33    1
    71    71    34    1
    72    72    34    1
    73    73    35    1
    74    74    35    1
    75    75    36    1
    76    76    36    1
    77    77    37    1
    78    78    37    1
    79    79    37    1
    80    15    16    1
    81    17    18    1
    82    28    29   ar
    83    29    30    1
    84    31    32    1
    85    80    81    1
    86    82    80    2
    87    83    80    2
    88    84    80    2
@<TRIPOS>SUBSTRUCTURE
     1 RES1        1 GROUP             0 ****  ****    0  
     2 RES2       80 GROUP             0 ****  ****    0  
@<TRIPOS>CRYSIN
   11.0680   25.0800   12.6270   90.0000  109.6600   90.0000   231     1
