@<TRIPOS>MOLECULE
ADEJOK
   155   161     3     0     0
SMALL
USER_CHARGES
****
Generated from the CSD

@<TRIPOS>ATOM
     1 Fe1     18.6464   1.8409   4.7188   Fe        1 RES1   2.0000
     2 N1      16.6967   1.9669   4.8259   N.ar      1 RES1   0.0000
     3 C1      15.8925   1.2329   5.6054   C.ar      1 RES1   0.0000
     4 H1      16.2767   0.5357   6.1232   H         1 RES1   0.0000
     5 C2      14.5315   1.4434   5.6909   C.ar      1 RES1   0.0000
     6 H2      14.0053   0.8992   6.2666   H         1 RES1   0.0000
     7 C3      13.9229   2.4444   4.9421   C.ar      1 RES1   0.0000
     8 C4      14.7628   3.1876   4.1059   C.ar      1 RES1   0.0000
     9 H3      14.3949   3.8715   3.5580   H         1 RES1   0.0000
    10 C5      16.1205   2.9377   4.0684   C.ar      1 RES1   0.0000
    11 C6      17.0843   3.6836   3.2396   C.ar      1 RES1   0.0000
    12 C7      16.7511   4.7238   2.3887   C.ar      1 RES1   0.0000
    13 H4      15.8446   5.0019   2.3160   H         1 RES1   0.0000
    14 C8      17.7355   5.3684   1.6352   C.ar      1 RES1   0.0000
    15 C9      19.0306   4.9025   1.7907   C.ar      1 RES1   0.0000
    16 H5      19.7380   5.3011   1.2967   H         1 RES1   0.0000
    17 C10     19.3032   3.8628   2.6576   C.ar      1 RES1   0.0000
    18 H6      20.2024   3.5671   2.7407   H         1 RES1   0.0000
    19 N2      18.3625   3.2497   3.3872   N.ar      1 RES1   0.0000
    20 C11     12.4283   2.7239   4.9908   C.3       1 RES1   0.0000
    21 C12     11.7182   1.8385   6.0180   C.3       1 RES1   0.0000
    22 H7      11.8418   0.8957   5.7777   H         1 RES1   0.0000
    23 H8      10.7607   2.0505   6.0269   H         1 RES1   0.0000
    24 H9      12.0976   2.0018   6.9065   H         1 RES1   0.0000
    25 C13     11.8292   2.4512   3.6056   C.3       1 RES1   0.0000
    26 H10     12.2602   3.0314   2.9427   H         1 RES1   0.0000
    27 H11     10.8662   2.6349   3.6241   H         1 RES1   0.0000
    28 H12     11.9798   1.5131   3.3636   H         1 RES1   0.0000
    29 C14     12.2051   4.1913   5.3621   C.3       1 RES1   0.0000
    30 H13     12.5916   4.3671   6.2458   H         1 RES1   0.0000
    31 H14     11.2426   4.3810   5.3832   H         1 RES1   0.0000
    32 H15     12.6365   4.7654   4.6962   H         1 RES1   0.0000
    33 C15     17.3760   6.5180   0.7029   C.3       1 RES1   0.0000
    34 C16     18.6110   7.0363  -0.0417   C.3       1 RES1   0.0000
    35 H16     19.2669   7.3690   0.6059   H         1 RES1   0.0000
    36 H17     18.3488   7.7638  -0.6436   H         1 RES1   0.0000
    37 H18     19.0070   6.3081  -0.5625   H         1 RES1   0.0000
    38 C17     16.7787   7.6647   1.5242   C.3       1 RES1   0.0000
    39 H19     15.9924   7.3429   2.0102   H         1 RES1   0.0000
    40 H20     16.5161   8.3934   0.9249   H         1 RES1   0.0000
    41 H21     17.4464   7.9916   2.1631   H         1 RES1   0.0000
    42 C18     16.3374   6.0206  -0.3122   C.3       1 RES1   0.0000
    43 H22     16.7104   5.2698  -0.8211   H         1 RES1   0.0000
    44 H23     16.1057   6.7481  -0.9268   H         1 RES1   0.0000
    45 H24     15.5319   5.7254   0.1623   H         1 RES1   0.0000
    46 N3      18.4737   0.3539   3.4593   N.ar      1 RES1   0.0000
    47 C19     18.2663   0.4501   2.1286   C.ar      1 RES1   0.0000
    48 H25     18.2147   1.3131   1.7365   H         1 RES1   0.0000
    49 C20     18.1272  -0.6496   1.3200   C.ar      1 RES1   0.0000
    50 H26     17.9693  -0.5287   0.3907   H         1 RES1   0.0000
    51 C21     18.2132  -1.9356   1.8375   C.ar      1 RES1   0.0000
    52 C22     18.4238  -2.0305   3.2109   C.ar      1 RES1   0.0000
    53 H27     18.4883  -2.8871   3.6184   H         1 RES1   0.0000
    54 C23     18.5407  -0.8879   3.9916   C.ar      1 RES1   0.0000
    55 C24     18.0430  -3.1511   0.9349   C.3       1 RES1   0.0000
    56 C25     18.9376  -3.0085  -0.3065   C.3       1 RES1   0.0000
    57 H28     18.7131  -2.1775  -0.7758   H         1 RES1   0.0000
    58 H29     18.7914  -3.7706  -0.9041   H         1 RES1   0.0000
    59 H30     19.8782  -2.9845  -0.0302   H         1 RES1   0.0000
    60 C26     18.3937  -4.4584   1.6299   C.3       1 RES1   0.0000
    61 H31     19.3185  -4.4193   1.9536   H         1 RES1   0.0000
    62 H32     18.2999  -5.2002   0.9966   H         1 RES1   0.0000
    63 H33     17.7871  -4.5984   2.3877   H         1 RES1   0.0000
    64 C27     16.5765  -3.1935   0.4794   C.3       1 RES1   0.0000
    65 H34     15.9963  -3.3254   1.2590   H         1 RES1   0.0000
    66 H35     16.4502  -3.9341  -0.1491   H         1 RES1   0.0000
    67 H36     16.3462  -2.3479   0.0396   H         1 RES1   0.0000
    68 N1A     20.5962   1.9669   4.6118   N.ar      1 RES1   0.0000
    69 C1A     21.4004   1.2329   3.8323   C.ar      1 RES1   0.0000
    70 H1A     21.0162   0.5357   3.3145   H         1 RES1   0.0000
    71 C2A     22.7614   1.4434   3.7467   C.ar      1 RES1   0.0000
    72 H2A     23.2875   0.8992   3.1711   H         1 RES1   0.0000
    73 C3A     23.3699   2.4444   4.4955   C.ar      1 RES1   0.0000
    74 C4A     22.5300   3.1876   5.3317   C.ar      1 RES1   0.0000
    75 H3A     22.8980   3.8715   5.8797   H         1 RES1   0.0000
    76 C5A     21.1723   2.9377   5.3693   C.ar      1 RES1   0.0000
    77 C6A     20.2086   3.6836   6.1981   C.ar      1 RES1   0.0000
    78 C7A     20.5418   4.7238   7.0490   C.ar      1 RES1   0.0000
    79 H4A     21.4482   5.0019   7.1217   H         1 RES1   0.0000
    80 C8A     19.5574   5.3684   7.8025   C.ar      1 RES1   0.0000
    81 C9A     18.2623   4.9025   7.6470   C.ar      1 RES1   0.0000
    82 H5A     17.5549   5.3011   8.1409   H         1 RES1   0.0000
    83 C10A    17.9897   3.8628   6.7800   C.ar      1 RES1   0.0000
    84 H6A     17.0904   3.5671   6.6970   H         1 RES1   0.0000
    85 N2A     18.9304   3.2497   6.0505   N.ar      1 RES1   0.0000
    86 C11A    24.8646   2.7239   4.4468   C.3       1 RES1   0.0000
    87 C12A    25.5747   1.8385   3.4196   C.3       1 RES1   0.0000
    88 H7A     25.4511   0.8957   3.6599   H         1 RES1   0.0000
    89 H8A     26.5322   2.0505   3.4108   H         1 RES1   0.0000
    90 H9A     25.1953   2.0018   2.5312   H         1 RES1   0.0000
    91 C13A    25.4637   2.4512   5.8321   C.3       1 RES1   0.0000
    92 H10A    25.0327   3.0314   6.4950   H         1 RES1   0.0000
    93 H11A    26.4266   2.6349   5.8136   H         1 RES1   0.0000
    94 H12A    25.3130   1.5131   6.0741   H         1 RES1   0.0000
    95 C14A    25.0878   4.1913   4.0756   C.3       1 RES1   0.0000
    96 H13A    24.7013   4.3671   3.1918   H         1 RES1   0.0000
    97 H14A    26.0503   4.3810   4.0544   H         1 RES1   0.0000
    98 H15A    24.6563   4.7654   4.7415   H         1 RES1   0.0000
    99 C15A    19.9168   6.5180   8.7347   C.3       1 RES1   0.0000
   100 C16A    18.6818   7.0363   9.4794   C.3       1 RES1   0.0000
   101 H16A    18.0260   7.3690   8.8318   H         1 RES1   0.0000
   102 H17A    18.9441   7.7638  10.0813   H         1 RES1   0.0000
   103 H18A    18.2859   6.3081  10.0001   H         1 RES1   0.0000
   104 C17A    20.5142   7.6647   7.9135   C.3       1 RES1   0.0000
   105 H19A    21.3004   7.3429   7.4274   H         1 RES1   0.0000
   106 H20A    20.7768   8.3934   8.5128   H         1 RES1   0.0000
   107 H21A    19.8465   7.9916   7.2745   H         1 RES1   0.0000
   108 C18A    20.9554   6.0206   9.7499   C.3       1 RES1   0.0000
   109 H22A    20.5825   5.2698  10.2587   H         1 RES1   0.0000
   110 H23A    21.1872   6.7481  10.3644   H         1 RES1   0.0000
   111 H24A    21.7610   5.7254   9.2753   H         1 RES1   0.0000
   112 N3A     18.8191   0.3539   5.9784   N.ar      1 RES1   0.0000
   113 C19A    19.0266   0.4501   7.3091   C.ar      1 RES1   0.0000
   114 H25A    19.0781   1.3131   7.7011   H         1 RES1   0.0000
   115 C20A    19.1657  -0.6496   8.1177   C.ar      1 RES1   0.0000
   116 H26A    19.3235  -0.5287   9.0469   H         1 RES1   0.0000
   117 C21A    19.0796  -1.9356   7.6001   C.ar      1 RES1   0.0000
   118 C22A    18.8691  -2.0305   6.2268   C.ar      1 RES1   0.0000
   119 H27A    18.8046  -2.8871   5.8193   H         1 RES1   0.0000
   120 C23A    18.7522  -0.8879   5.4461   C.ar      1 RES1   0.0000
   121 C24A    19.2498  -3.1511   8.5028   C.3       1 RES1   0.0000
   122 C25A    18.3553  -3.0085   9.7442   C.3       1 RES1   0.0000
   123 H28A    18.5798  -2.1775  10.2134   H         1 RES1   0.0000
   124 H29A    18.5014  -3.7706  10.3418   H         1 RES1   0.0000
   125 H30A    17.4146  -2.9845   9.4679   H         1 RES1   0.0000
   126 C26A    18.8992  -4.4584   7.8078   C.3       1 RES1   0.0000
   127 H31A    17.9744  -4.4193   7.4841   H         1 RES1   0.0000
   128 H32A    18.9929  -5.2002   8.4410   H         1 RES1   0.0000
   129 H33A    19.5058  -4.5984   7.0499   H         1 RES1   0.0000
   130 C27A    20.7164  -3.1935   8.9582   C.3       1 RES1   0.0000
   131 H34A    21.2966  -3.3254   8.1787   H         1 RES1   0.0000
   132 H35A    20.8427  -3.9341   9.5868   H         1 RES1   0.0000
   133 H36A    20.9467  -2.3479   9.3980   H         1 RES1   0.0000
   134 P1      12.4054   6.6004   1.7637   P.3       2 RES2  -1.0000
   135 F1      11.4053   5.3759   1.9436   F         2 RES2   0.0000
   136 F2      12.6936   6.1665   0.2644   F         2 RES2   0.0000
   137 F3      11.2153   7.5457   1.2890   F         2 RES2   0.0000
   138 F4      12.1480   7.0349   3.2786   F         2 RES2   0.0000
   139 F5      13.6139   5.6715   2.2630   F         2 RES2   0.0000
   140 F6      13.4181   7.8271   1.5921   F         2 RES2   0.0000
   141 O1      18.5299   9.9242  -2.4661   O.3       3 RES3   0.0000
   142 C28     17.2407  10.2769  -1.9649   C.3       3 RES3   0.0000
   143 H37     17.1098  11.2544  -2.0480   H         3 RES3   0.0000
   144 H38     17.1864  10.0439  -1.0042   H         3 RES3   0.0000
   145 C29     16.1427   9.5639  -2.7105   C.3       3 RES3   0.0000
   146 H39     16.1577   9.8369  -3.6524   H         3 RES3   0.0000
   147 H40     15.2760   9.7952  -2.3160   H         3 RES3   0.0000
   148 H41     16.2811   8.5951  -2.6482   H         3 RES3   0.0000
   149 C30     18.8813  10.5500  -3.6845   C.3       3 RES3   0.0000
   150 H42     18.8653  11.5344  -3.5769   H         3 RES3   0.0000
   151 H43     18.2354  10.3013  -4.3923   H         3 RES3   0.0000
   152 C31     20.2548  10.0961  -4.0578   C.3       3 RES3   0.0000
   153 H44     20.8704  10.2752  -3.3164   H         3 RES3   0.0000
   154 H45     20.5515  10.5813  -4.8547   H         3 RES3   0.0000
   155 H46     20.2410   9.1343  -4.2469   H         3 RES3   0.0000
@<TRIPOS>BOND
     1     1     2    1
     2     2     3   ar
     3     3     4    1
     4     5     3   ar
     5     6     5    1
     6     7     5   ar
     7     8     7   ar
     8     9     8    1
     9    10     2   ar
    10    11    10    1
    11    12    11   ar
    12    13    12    1
    13    14    12   ar
    14    15    14   ar
    15    16    15    1
    16    17    15   ar
    17    18    17    1
    18    19     1    1
    19    20     7    1
    20    21    20    1
    21    22    21    1
    22    23    21    1
    23    24    21    1
    24    25    20    1
    25    26    25    1
    26    27    25    1
    27    28    25    1
    28    29    20    1
    29    30    29    1
    30    31    29    1
    31    32    29    1
    32    33    14    1
    33    34    33    1
    34    35    34    1
    35    36    34    1
    36    37    34    1
    37    38    33    1
    38    39    38    1
    39    40    38    1
    40    41    38    1
    41    42    33    1
    42    43    42    1
    43    44    42    1
    44    45    42    1
    45    46     1    1
    46    47    46   ar
    47    48    47    1
    48    49    47   ar
    49    50    49    1
    50    51    49   ar
    51    52    51   ar
    52    53    52    1
    53    54    46   ar
    54    55    51    1
    55    56    55    1
    56    57    56    1
    57    58    56    1
    58    59    56    1
    59    60    55    1
    60    61    60    1
    61    62    60    1
    62    63    60    1
    63    64    55    1
    64    65    64    1
    65    66    64    1
    66    67    64    1
    67    68     1    1
    68    69    68   ar
    69    70    69    1
    70    71    69   ar
    71    72    71    1
    72    73    71   ar
    73    74    73   ar
    74    75    74    1
    75    76    68   ar
    76    77    76    1
    77    78    77   ar
    78    79    78    1
    79    80    78   ar
    80    81    80   ar
    81    82    81    1
    82    83    81   ar
    83    84    83    1
    84    85     1    1
    85    86    73    1
    86    87    86    1
    87    88    87    1
    88    89    87    1
    89    90    87    1
    90    91    86    1
    91    92    91    1
    92    93    91    1
    93    94    91    1
    94    95    86    1
    95    96    95    1
    96    97    95    1
    97    98    95    1
    98    99    80    1
    99   100    99    1
   100   101   100    1
   101   102   100    1
   102   103   100    1
   103   104    99    1
   104   105   104    1
   105   106   104    1
   106   107   104    1
   107   108    99    1
   108   109   108    1
   109   110   108    1
   110   111   108    1
   111   112     1    1
   112   113   112   ar
   113   114   113    1
   114   115   113   ar
   115   116   115    1
   116   117   115   ar
   117   118   117   ar
   118   119   118    1
   119   120    54    1
   120   121   117    1
   121   122   121    1
   122   123   122    1
   123   124   122    1
   124   125   122    1
   125   126   121    1
   126   127   126    1
   127   128   126    1
   128   129   126    1
   129   130   121    1
   130   131   130    1
   131   132   130    1
   132   133   130    1
   133     8    10   ar
   134    11    19   ar
   135    17    19   ar
   136    52    54   ar
   137    74    76   ar
   138    77    85   ar
   139    83    85   ar
   140   112   120   ar
   141   118   120   ar
   142   134   135    1
   143   136   134    1
   144   137   134    1
   145   138   134    1
   146   139   134    1
   147   140   134    1
   148   141   142    1
   149   142   143    1
   150   144   142    1
   151   145   142    1
   152   146   145    1
   153   147   145    1
   154   148   145    1
   155   149   141    1
   156   150   149    1
   157   151   149    1
   158   152   149    1
   159   153   152    1
   160   154   152    1
   161   155   152    1
@<TRIPOS>SUBSTRUCTURE
     1 RES1        1 GROUP             0 ****  ****    0  
     2 RES2      134 GROUP             0 ****  ****    0  
     3 RES3      141 GROUP             0 ****  ****    0  
@<TRIPOS>CRYSIN
   20.3310   17.3920   20.0420   90.0000  109.6460   90.0000    15     1
