@<TRIPOS>MOLECULE
ADEQOR
    99   105     3     0     0
SMALL
USER_CHARGES
****
Generated from the CSD

@<TRIPOS>ATOM
     1 C1       6.6533   5.2925   8.2649   C.3       1 RES1   0.0000
     2 H1       6.2569   4.4381   8.4973   H         1 RES1   0.0000
     3 H2       7.6004   5.2399   8.4649   H         1 RES1   0.0000
     4 C2       7.3964   0.9979   3.0203   C.3       1 RES1   0.0000
     5 H3       7.4733   0.2232   2.4405   H         1 RES1   0.0000
     6 H4       7.7879   0.7684   3.8769   H         1 RES1   0.0000
     7 C3      12.3219   4.0922   7.0043   C.3       1 RES1   0.0000
     8 H5      13.2183   3.7239   7.0548   H         1 RES1   0.0000
     9 H6      11.6923   3.3541   7.0326   H         1 RES1   0.0000
    10 C4      10.8285   9.8358   6.9962   C.3       1 RES1   0.0000
    11 H7      10.8344  10.7828   7.2043   H         1 RES1   0.0000
    12 H8      11.7198   9.5872   6.7053   H         1 RES1   0.0000
    13 C5       5.9514   1.3199   3.2143   C.3       1 RES1   0.0000
    14 H9       5.5054   0.5659   3.6062   H         1 RES1   0.0000
    15 H10      5.5515   1.5224   2.3657   H         1 RES1   0.0000
    16 H11      5.8686   2.0788   3.7961   H         1 RES1   0.0000
    17 C6       6.0495   6.3383   9.1195   C.3       1 RES1   0.0000
    18 H12      6.1968   6.1231  10.0428   H         1 RES1   0.0000
    19 H13      5.1052   6.3845   8.9478   H         1 RES1   0.0000
    20 H14      6.4522   7.1864   8.9195   H         1 RES1   0.0000
    21 C7      10.4616   9.0388   8.2568   C.3       1 RES1   0.0000
    22 H15     11.1019   9.2189   8.9478   H         1 RES1   0.0000
    23 H16     10.4662   8.0998   8.0548   H         1 RES1   0.0000
    24 H17      9.5867   9.2970   8.5558   H         1 RES1   0.0000
    25 C8      12.0842   5.0056   8.1801   C.3       1 RES1   0.0000
    26 H18     12.1880   4.5114   8.9963   H         1 RES1   0.0000
    27 H19     11.1936   5.3611   8.1336   H         1 RES1   0.0000
    28 H20     12.7184   5.7262   8.1579   H         1 RES1   0.0000
    29 Fe1      8.9415   6.2769   3.3060   Fe        1 RES1   2.0000
    30 N1      10.0814   6.6619   1.7100   N.3       1 RES1   0.0000
    31 N2      10.6743   5.7341   4.0581   N.ar      1 RES1   0.0000
    32 N3       8.8031   4.4732   2.4932   N.ar      1 RES1   0.0000
    33 N4       7.4159   7.1226   2.3239   N.3       1 RES1   0.0000
    34 C9       7.5765   5.7325   5.9576   C.ar      1 RES1   0.0000
    35 H21      8.4191   5.7517   6.3517   H         1 RES1   0.0000
    36 N5       9.0947   8.0648   4.1648   N.ar      1 RES1   0.0000
    37 N6       7.4999   5.9187   4.6242   N.ar      1 RES1   0.0000
    38 C10     11.7105   6.3526   3.4551   C.ar      1 RES1   0.0000
    39 C11     10.9173   4.9626   5.1228   C.ar      1 RES1   0.0000
    40 H22     10.2118   4.4763   5.4830   H         1 RES1   0.0000
    41 C12      6.2782   5.9509   4.0674   C.ar      1 RES1   0.0000
    42 C13      8.0918   8.9240   3.8749   C.ar      1 RES1   0.0000
    43 C14     11.3481   7.1912   2.2552   C.3       1 RES1   0.0000
    44 H23     11.2385   8.1190   2.5152   H         1 RES1   0.0000
    45 H24     12.0490   7.1402   1.5859   H         1 RES1   0.0000
    46 C15     10.3643   5.4217   0.9285   C.3       1 RES1   0.0000
    47 H25     10.1702   5.5827  -0.0081   H         1 RES1   0.0000
    48 H26     11.3061   5.2049   1.0041   H         1 RES1   0.0000
    49 C16      8.1381   3.4003   2.9837   C.ar      1 RES1   0.0000
    50 H27      7.6293   3.5167   3.7537   H         1 RES1   0.0000
    51 C17      6.4847   5.5157   6.7794   C.ar      1 RES1   0.0000
    52 C18      9.5608   4.2739   1.4005   C.ar      1 RES1   0.0000
    53 C19      5.1338   5.7389   4.8163   C.ar      1 RES1   0.0000
    54 H28      4.2949   5.7517   4.4143   H         1 RES1   0.0000
    55 C20      6.2508   6.2411   2.5855   C.3       1 RES1   0.0000
    56 H29      6.3238   5.4201   2.0748   H         1 RES1   0.0000
    57 H30      5.4248   6.6874   2.3415   H         1 RES1   0.0000
    58 C21      5.2593   5.5062   6.1760   C.ar      1 RES1   0.0000
    59 H31      4.4985   5.3404   6.6871   H         1 RES1   0.0000
    60 C22     12.1570   4.8510   5.7174   C.ar      1 RES1   0.0000
    61 C23      7.9382  10.1068   4.5658   C.ar      1 RES1   0.0000
    62 H32      7.2483  10.6903   4.3436   H         1 RES1   0.0000
    63 C24      9.2930   7.6264   0.9010   C.3       1 RES1   0.0000
    64 H33      9.6342   7.6598  -0.0081   H         1 RES1   0.0000
    65 H34      9.3561   8.5159   1.2849   H         1 RES1   0.0000
    66 C25      8.1676   2.1441   2.4162   C.ar      1 RES1   0.0000
    67 C26      7.1303   8.5047   2.8102   C.3       1 RES1   0.0000
    68 H35      6.2270   8.5398   3.1637   H         1 RES1   0.0000
    69 H36      7.1862   9.1233   2.0667   H         1 RES1   0.0000
    70 C27     13.1980   5.5333   5.1113   C.ar      1 RES1   0.0000
    71 H37     14.0481   5.5046   5.4891   H         1 RES1   0.0000
    72 C28      9.9392   8.4187   5.1444   C.ar      1 RES1   0.0000
    73 H38     10.6404   7.8400   5.3355   H         1 RES1   0.0000
    74 C29      7.8572   7.1577   0.9018   C.3       1 RES1   0.0000
    75 H39      7.3023   7.7682   0.3919   H         1 RES1   0.0000
    76 H40      7.7909   6.2745   0.5051   H         1 RES1   0.0000
    77 C30      9.6291   3.0321   0.7818   C.ar      1 RES1   0.0000
    78 H41     10.1530   2.9252   0.0202   H         1 RES1   0.0000
    79 C31     12.9902   6.2570   3.9496   C.ar      1 RES1   0.0000
    80 H42     13.6999   6.6683   3.5133   H         1 RES1   0.0000
    81 C32      8.8043  10.4241   5.5820   C.ar      1 RES1   0.0000
    82 H43      8.6872  11.2100   6.0649   H         1 RES1   0.0000
    83 C33      9.8502   9.5744   5.8931   C.ar      1 RES1   0.0000
    84 C34      8.9345   1.9704   1.2809   C.ar      1 RES1   0.0000
    85 H44      8.9782   1.1414   0.8647   H         1 RES1   0.0000
    86 P1       8.4260  11.3044  -0.5376   P.3       2 RES2  -1.0000
    87 F1       7.8682  11.6946  -1.9496   F         2 RES2   0.0000
    88 F2       8.5365   9.8019  -1.0918   F         2 RES2   0.0000
    89 F3       8.4016  12.7595  -0.0364   F         2 RES2   0.0000
    90 F4       6.9994  10.9501  -0.0139   F         2 RES2   0.0000
    91 F5       9.0410  10.8338   0.8485   F         2 RES2   0.0000
    92 F6       9.9036  11.5751  -1.0748   F         2 RES2   0.0000
    93 P2       3.0863   9.8268   3.1684   P.3       3 RES3  -1.0000
    94 F7       4.0335   9.7708   1.8881   F         3 RES3   0.0000
    95 F8       2.5220  11.2377   2.6716   F         3 RES3   0.0000
    96 F9       3.6528   8.4104   3.6504   F         3 RES3   0.0000
    97 F10      2.1398   9.8878   4.4446   F         3 RES3   0.0000
    98 F11      1.9261   9.0911   2.3554   F         3 RES3   0.0000
    99 F12      4.2530  10.5570   3.9795   F         3 RES3   0.0000
@<TRIPOS>BOND
     1     1     2    1
     2     3     1    1
     3     4     5    1
     4     6     4    1
     5     7     8    1
     6     9     7    1
     7    10    11    1
     8    12    10    1
     9    13     4    1
    10    14    13    1
    11    15    13    1
    12    16    13    1
    13    17     1    1
    14    18    17    1
    15    19    17    1
    16    20    17    1
    17    21    10    1
    18    22    21    1
    19    23    21    1
    20    24    21    1
    21    25     7    1
    22    26    25    1
    23    27    25    1
    24    28    25    1
    25    29    30    1
    26    30    43    1
    27    31    29    1
    28    32    29    1
    29    33    29    1
    30    34    35    1
    31    36    29    1
    32    37    29    1
    33    38    31   ar
    34    39    31   ar
    35    40    39    1
    36    41    37   ar
    37    42    36   ar
    38    43    38    1
    39    44    43    1
    40    45    43    1
    41    46    30    1
    42    47    46    1
    43    48    46    1
    44    49    32   ar
    45    50    49    1
    46    51     1    1
    47    52    32   ar
    48    53    41   ar
    49    54    53    1
    50    55    33    1
    51    56    55    1
    52    57    55    1
    53    58    51   ar
    54    59    58    1
    55    60     7    1
    56    61    42   ar
    57    62    61    1
    58    63    30    1
    59    64    63    1
    60    65    63    1
    61    66     4    1
    62    67    33    1
    63    68    67    1
    64    69    67    1
    65    70    60   ar
    66    71    70    1
    67    72    36   ar
    68    73    72    1
    69    74    33    1
    70    75    74    1
    71    76    74    1
    72    77    52   ar
    73    78    77    1
    74    79    38   ar
    75    80    79    1
    76    81    61   ar
    77    82    81    1
    78    83    10    1
    79    84    66   ar
    80    85    84    1
    81    34    37   ar
    82    34    51   ar
    83    39    60   ar
    84    41    55    1
    85    42    67    1
    86    46    52    1
    87    49    66   ar
    88    53    58   ar
    89    63    74    1
    90    70    79   ar
    91    72    83   ar
    92    77    84   ar
    93    81    83   ar
    94    86    87    1
    95    88    86    1
    96    89    86    1
    97    90    86    1
    98    91    86    1
    99    92    86    1
   100    93    94    1
   101    95    93    1
   102    96    93    1
   103    97    93    1
   104    98    93    1
   105    99    93    1
@<TRIPOS>SUBSTRUCTURE
     1 RES1        1 GROUP             0 ****  ****    0  
     2 RES2       86 GROUP             0 ****  ****    0  
     3 RES3       93 GROUP             0 ****  ****    0  
@<TRIPOS>CRYSIN
   11.7790   15.9414   20.2080   90.0000   91.3110   90.0000    14     1
