@<TRIPOS>MOLECULE
ADEQIL
    87    91     5     0     0
SMALL
USER_CHARGES
****
Generated from the CSD

@<TRIPOS>ATOM
     1 N1      -6.2907   0.2160  23.5996   N.1       1 RES1   0.0000
     2 C1      -5.3826   0.7718  23.9914   C.1       1 RES1   0.0000
     3 C3      -4.2300   1.4896  24.4763   C.3       1 RES1   0.0000
     4 H1      -3.5023   1.3830  23.8583   H         1 RES1   0.0000
     5 H2      -3.9742   1.1427  25.3351   H         1 RES1   0.0000
     6 H3      -4.4460   2.4219  24.5598   H         1 RES1   0.0000
     7 N2       6.3925   7.9879   6.5951   N.1       2 RES2   0.0000
     8 C2       6.8221   8.6730   7.4693   C.1       2 RES2   0.0000
     9 C4       7.3676   9.5016   8.5681   C.3       2 RES2   0.0000
    10 H4       7.6420   8.9316   9.2918   H         2 RES2   0.0000
    11 H5       6.6903  10.1071   8.8782   H         2 RES2   0.0000
    12 H6       8.1223  10.0005   8.2481   H         2 RES2   0.0000
    13 Fe1      0.6640  10.3869   3.2407   Fe        3 RES3   2.0000
    14 N3       0.1486   9.0651   4.6085   N.ar      3 RES3   0.0000
    15 N4      -1.1462  11.1582   3.4149   N.ar      3 RES3   0.0000
    16 N5      -0.2275   9.0546   2.0562   N.3       3 RES3   0.0000
    17 N6       2.4754   9.5931   3.1058   N.ar      3 RES3   0.0000
    18 N7       1.5278  11.9494   4.0901   N.ar      3 RES3   0.0000
    19 C5      -2.1302  10.4411   2.8363   C.ar      3 RES3   0.0000
    20 N8       1.1820  11.3665   1.5844   N.3       3 RES3   0.0000
    21 C6      -0.0034   7.8202   4.0965   C.ar      3 RES3   0.0000
    22 C7      -3.8260  11.8880   3.7199   C.ar      3 RES3   0.0000
    23 H7      -4.7186  12.1325   3.8127   H         3 RES3   0.0000
    24 C8      -3.4701  10.7851   2.9655   C.ar      3 RES3   0.0000
    25 H8      -4.1249  10.2762   2.5451   H         3 RES3   0.0000
    26 C9       2.1359  12.0486   5.2814   C.ar      3 RES3   0.0000
    27 H9       2.1092  11.3195   5.8581   H         3 RES3   0.0000
    28 C10     -0.3041   8.1826   6.7833   C.ar      3 RES3   0.0000
    29 H10     -0.4206   8.3262   7.6943   H         3 RES3   0.0000
    30 C11      0.9713  12.8019   1.9036   C.3       3 RES3   0.0000
    31 H11      0.0238  13.0094   1.9322   H         3 RES3   0.0000
    32 H12      1.3949  13.3648   1.2356   H         3 RES3   0.0000
    33 C12      0.3032  10.8334   0.5041   C.3       3 RES3   0.0000
    34 H13      0.6569  11.0679  -0.3692   H         3 RES3   0.0000
    35 H14     -0.5923  11.1987   0.5833   H         3 RES3   0.0000
    36 C13     -1.5066  12.2291   4.1593   C.ar      3 RES3   0.0000
    37 H15     -0.8372  12.7252   4.5733   H         3 RES3   0.0000
    38 C14      3.2251  10.0374   2.0740   C.ar      3 RES3   0.0000
    39 C15      4.5030   9.5712   1.8456   C.ar      3 RES3   0.0000
    40 H16      4.9804   9.8655   1.1052   H         3 RES3   0.0000
    41 C16      0.1385   7.7263   2.6051   C.3       3 RES3   0.0000
    42 H17      1.0528   7.5032   2.3654   H         3 RES3   0.0000
    43 H18     -0.4496   7.0413   2.2522   H         3 RES3   0.0000
    44 C17      0.2798   9.3239   0.6801   C.3       3 RES3   0.0000
    45 H19     -0.3026   8.9174   0.0197   H         3 RES3   0.0000
    46 H20      1.1717   8.9586   0.5710   H         3 RES3   0.0000
    47 C18      2.6207  11.1319   1.2526   C.3       3 RES3   0.0000
    48 H21      3.1174  11.9520   1.4005   H         3 RES3   0.0000
    49 H22      2.6974  10.9030   0.3126   H         3 RES3   0.0000
    50 C19      4.3329   8.2622   3.8117   C.ar      3 RES3   0.0000
    51 H23      4.7007   7.6823   4.4379   H         3 RES3   0.0000
    52 C20      2.2583  14.1792   3.6062   C.ar      3 RES3   0.0000
    53 H24      2.3004  14.8941   3.0127   H         3 RES3   0.0000
    54 C21      1.6000  13.0165   3.2527   C.ar      3 RES3   0.0000
    55 C22     -0.2630   6.7272   4.9092   C.ar      3 RES3   0.0000
    56 H25     -0.3487   5.8772   4.5388   H         3 RES3   0.0000
    57 C23     -2.8190  12.6214   4.3370   C.ar      3 RES3   0.0000
    58 H26     -3.0253  13.3633   4.8588   H         3 RES3   0.0000
    59 C24      5.0684   8.6701   2.7144   C.ar      3 RES3   0.0000
    60 H27      5.9264   8.3418   2.5672   H         3 RES3   0.0000
    61 C25      3.0536   8.7284   3.9604   C.ar      3 RES3   0.0000
    62 H28      2.5596   8.4313   4.6889   H         3 RES3   0.0000
    63 C26      2.8510  14.2673   4.8443   C.ar      3 RES3   0.0000
    64 H29      3.2816  15.0490   5.1074   H         3 RES3   0.0000
    65 C27     -0.0398   9.2443   5.9391   C.ar      3 RES3   0.0000
    66 H30      0.0110  10.1028   6.2913   H         3 RES3   0.0000
    67 C28     -1.7167   9.2102   2.1077   C.3       3 RES3   0.0000
    68 H31     -2.0640   9.2443   1.2036   H         3 RES3   0.0000
    69 H32     -2.1024   8.4370   2.5451   H         3 RES3   0.0000
    70 C29     -0.3924   6.9077   6.2647   C.ar      3 RES3   0.0000
    71 H33     -0.5374   6.1799   6.8254   H         3 RES3   0.0000
    72 C30      2.7983  13.1871   5.6873   C.ar      3 RES3   0.0000
    73 H34      3.2050  13.2212   6.5227   H         3 RES3   0.0000
    74 P1      16.7617   5.7824   2.1033   P.3       4 RES4  -1.0000
    75 F1      16.2331   7.2667   2.4483   F         4 RES4   0.0000
    76 F2      15.5873   5.6222   1.0343   F         4 RES4   0.0000
    77 F3      15.8101   5.1790   3.2215   F         4 RES4   0.0000
    78 F4      17.9295   5.9677   3.1676   F         4 RES4   0.0000
    79 F5      17.3023   4.3152   1.7562   F         4 RES4   0.0000
    80 F6      17.7060   6.4078   0.9656   F         4 RES4   0.0000
    81 P2       2.3686   4.0217   2.6278   P.3       5 RES5  -1.0000
    82 F7       1.7215   2.7432   1.9401   F         5 RES5   0.0000
    83 F8       0.9868   4.7887   2.4518   F         5 RES5   0.0000
    84 F9       1.8890   3.5022   4.0342   F         5 RES5   0.0000
    85 F10      3.0047   5.3060   3.3088   F         5 RES5   0.0000
    86 F11      3.7113   3.2065   2.8153   F         5 RES5   0.0000
    87 F12      2.7970   4.5099   1.1943   F         5 RES5   0.0000
@<TRIPOS>BOND
     1     1     2    3
     2     2     3    1
     3     3     4    1
     4     5     3    1
     5     6     3    1
     6     7     8    3
     7     8     9    1
     8     9    10    1
     9    11     9    1
    10    12     9    1
    11    13    14    1
    12    14    21   ar
    13    15    13    1
    14    16    13    1
    15    17    13    1
    16    18    13    1
    17    19    15   ar
    18    20    13    1
    19    21    41    1
    20    22    23    1
    21    24    19   ar
    22    25    24    1
    23    26    18   ar
    24    27    26    1
    25    28    29    1
    26    30    20    1
    27    31    30    1
    28    32    30    1
    29    33    20    1
    30    34    33    1
    31    35    33    1
    32    36    15   ar
    33    37    36    1
    34    38    17   ar
    35    39    38   ar
    36    40    39    1
    37    41    16    1
    38    42    41    1
    39    43    41    1
    40    44    16    1
    41    45    44    1
    42    46    44    1
    43    47    20    1
    44    48    47    1
    45    49    47    1
    46    50    51    1
    47    52    53    1
    48    54    18   ar
    49    55    21   ar
    50    56    55    1
    51    57    22   ar
    52    58    57    1
    53    59    39   ar
    54    60    59    1
    55    61    17   ar
    56    62    61    1
    57    63    52   ar
    58    64    63    1
    59    65    14   ar
    60    66    65    1
    61    67    16    1
    62    68    67    1
    63    69    67    1
    64    70    28   ar
    65    71    70    1
    66    72    26   ar
    67    73    72    1
    68    19    67    1
    69    22    24   ar
    70    28    65   ar
    71    30    54    1
    72    33    44    1
    73    36    57   ar
    74    38    47    1
    75    50    59   ar
    76    50    61   ar
    77    52    54   ar
    78    55    70   ar
    79    63    72   ar
    80    74    75    1
    81    76    74    1
    82    77    74    1
    83    78    74    1
    84    79    74    1
    85    80    74    1
    86    81    82    1
    87    83    81    1
    88    84    81    1
    89    85    81    1
    90    86    81    1
    91    87    81    1
@<TRIPOS>SUBSTRUCTURE
     1 RES1        1 GROUP             0 ****  ****    0  
     2 RES2        7 GROUP             0 ****  ****    0  
     3 RES3       13 GROUP             0 ****  ****    0  
     4 RES4       74 GROUP             0 ****  ****    0  
     5 RES5       81 GROUP             0 ****  ****    0  
@<TRIPOS>CRYSIN
   20.5330   14.2133   26.0786   90.0000  109.2940   90.0000    15     1
