@<TRIPOS>MOLECULE
ADUHEP
    87    92     1     0     0
SMALL
NO_CHARGES
****
Generated from the CSD

@<TRIPOS>ATOM
     1 Fe1      5.2512   3.3625  31.2065   Fe        1 RES1   0.0000
     2 N1       6.1742   1.5769  31.4664   N.2       1 RES1   0.0000
     3 C1       6.5143   0.4838  31.6586   C.1       1 RES1   0.0000
     4 S1       7.0312  -1.0237  31.9353   S.2       1 RES1   0.0000
     5 S2       8.2644   5.9237  33.7857   S.2       1 RES1   0.0000
     6 C2       7.2660   5.1021  32.8582   C.1       1 RES1   0.0000
     7 N2       6.5382   4.5081  32.1628   N.2       1 RES1   0.0000
     8 N3       3.3608   2.3934  30.6290   N.3       1 RES1   0.0000
     9 C3       3.0692   1.3779  31.6605   C.3       1 RES1   0.0000
    10 H1       3.7172   0.6328  31.5946   H         1 RES1   0.0000
    11 H2       2.1587   1.0135  31.5296   H         1 RES1   0.0000
    12 C4       3.1735   2.0372  33.0016   C.ar      1 RES1   0.0000
    13 C5       2.3132   1.7820  34.0554   C.ar      1 RES1   0.0000
    14 H3       1.5995   1.1625  33.9574   H         1 RES1   0.0000
    15 C6       2.5083   2.4403  35.2470   C.ar      1 RES1   0.0000
    16 H4       1.9254   2.2883  35.9814   H         1 RES1   0.0000
    17 C7       3.5591   3.3201  35.3626   C.ar      1 RES1   0.0000
    18 H5       3.7323   3.7580  36.1857   H         1 RES1   0.0000
    19 C8       4.3512   3.5569  34.2749   C.ar      1 RES1   0.0000
    20 H6       5.0594   4.1846  34.3566   H         1 RES1   0.0000
    21 N4       4.1751   2.9445  33.0944   N.ar      1 RES1   0.0000
    22 C9       2.2441   3.3701  30.5807   C.3       1 RES1   0.0000
    23 H7       1.7098   3.2895  31.4089   H         1 RES1   0.0000
    24 H8       1.6535   3.1466  29.8166   H         1 RES1   0.0000
    25 C10      2.7136   4.7847  30.4368   C.ar      1 RES1   0.0000
    26 C11      1.8543   5.7696  29.9721   C.ar      1 RES1   0.0000
    27 H9       0.9766   5.5512  29.6773   H         1 RES1   0.0000
    28 C12      2.3030   7.0719  29.9447   C.ar      1 RES1   0.0000
    29 H10      1.7413   7.7680  29.6263   H         1 RES1   0.0000
    30 C13      3.5760   7.3506  30.3857   C.ar      1 RES1   0.0000
    31 H11      3.8991   8.2446  30.3876   H         1 RES1   0.0000
    32 C14      4.3643   6.3351  30.8170   C.ar      1 RES1   0.0000
    33 H12      5.2487   6.5351  31.1025   H         1 RES1   0.0000
    34 N5       3.9532   5.0654  30.8602   N.ar      1 RES1   0.0000
    35 C15      3.5966   1.7545  29.2995   C.3       1 RES1   0.0000
    36 H13      4.3853   1.1594  29.3617   H         1 RES1   0.0000
    37 H14      2.8127   1.1982  29.0599   H         1 RES1   0.0000
    38 C16      3.8246   2.7628  28.2281   C.ar      1 RES1   0.0000
    39 C17      4.9178   3.6202  28.3014   C.ar      1 RES1   0.0000
    40 O1       5.7653   3.5538  29.3640   O.3       1 RES1   0.0000
    41 C18      5.1437   4.5428  27.2899   C.ar      1 RES1   0.0000
    42 C19      6.3501   5.4471  27.3307   C.3       1 RES1   0.0000
    43 H15      7.1611   4.9041  27.4259   H         1 RES1   0.0000
    44 H16      6.2741   6.0585  28.0944   H         1 RES1   0.0000
    45 H17      6.3992   5.9646  26.5021   H         1 RES1   0.0000
    46 C20      4.2432   4.6112  26.2394   C.ar      1 RES1   0.0000
    47 H18      4.4100   5.2287  25.5365   H         1 RES1   0.0000
    48 C21      3.1031   3.8121  26.1688   C.ar      1 RES1   0.0000
    49 C22      2.9243   2.8833  27.1734   C.ar      1 RES1   0.0000
    50 H19      2.1662   2.3107  27.1427   H         1 RES1   0.0000
    51 C23      2.1268   3.9723  25.0236   C.3       1 RES1   0.0000
    52 H20      2.6319   3.8947  24.1764   H         1 RES1   0.0000
    53 H21      1.7556   4.8898  25.0630   H         1 RES1   0.0000
    54 C24      0.9606   2.9925  24.9720   C.3       1 RES1   0.0000
    55 H22      1.3153   2.0709  24.8959   H         1 RES1   0.0000
    56 H23      0.4492   3.0527  25.8197   H         1 RES1   0.0000
    57 C25      0.0277   3.2599  23.8087   C.3       1 RES1   0.0000
    58 H24     -0.3439   4.1723  23.9025   H         1 RES1   0.0000
    59 H25      0.5513   3.2344  22.9694   H         1 RES1   0.0000
    60 C26     -1.1167   2.2801  23.6945   C.3       1 RES1   0.0000
    61 H26     -1.6431   2.3025  24.5338   H         1 RES1   0.0000
    62 H27     -0.7489   1.3666  23.5915   H         1 RES1   0.0000
    63 C27     -2.0390   2.5710  22.5284   C.3       1 RES1   0.0000
    64 H28     -2.4014   3.4855  22.6352   H         1 RES1   0.0000
    65 H29     -1.5032   2.5597  21.6975   H         1 RES1   0.0000
    66 C28     -3.2012   1.6116  22.3627   C.3       1 RES1   0.0000
    67 H30     -3.7418   1.6187  23.1922   H         1 RES1   0.0000
    68 H31     -2.8451   0.6961  22.2406   H         1 RES1   0.0000
    69 C29     -4.0995   1.9453  21.1901   C.3       1 RES1   0.0000
    70 H32     -3.5568   1.9372  20.3605   H         1 RES1   0.0000
    71 H33     -4.4491   2.8639  21.3075   H         1 RES1   0.0000
    72 C30     -5.2758   0.9951  21.0123   C.3       1 RES1   0.0000
    73 H34     -4.9296   0.0735  20.9083   H         1 RES1   0.0000
    74 H35     -5.8313   1.0176  21.8321   H         1 RES1   0.0000
    75 C31     -6.1515   1.3238  19.8202   C.3       1 RES1   0.0000
    76 H36     -5.6028   1.2717  18.9957   H         1 RES1   0.0000
    77 H37     -6.4724   2.2566  19.9056   H         1 RES1   0.0000
    78 C32     -7.3527   0.4062  19.6661   C.3       1 RES1   0.0000
    79 H38     -7.0310  -0.5226  19.5481   H         1 RES1   0.0000
    80 H39     -7.8858   0.4368  20.4998   H         1 RES1   0.0000
    81 C33     -8.2479   0.7604  18.5023   C.3       1 RES1   0.0000
    82 H40     -7.7040   0.7869  17.6774   H         1 RES1   0.0000
    83 H41     -8.6190   1.6667  18.6476   H         1 RES1   0.0000
    84 C34     -9.3981  -0.2164  18.3036   C.3       1 RES1   0.0000
    85 H42     -9.9391   0.0684  17.5381   H         1 RES1   0.0000
    86 H43     -9.0406  -1.1125  18.1369   H         1 RES1   0.0000
    87 H44     -9.9563  -0.2317  19.1071   H         1 RES1   0.0000
@<TRIPOS>BOND
     1     1     2    1
     2     2     3    2
     3     3     4    2
     4     5     6    2
     5     6     7    2
     6     7     1    1
     7     8     1    1
     8     9     8    1
     9    10     9    1
    10    11     9    1
    11    12     9    1
    12    13    12   ar
    13    14    13    1
    14    15    13   ar
    15    16    15    1
    16    17    15   ar
    17    18    17    1
    18    19    17   ar
    19    20    19    1
    20    21     1    1
    21    22     8    1
    22    23    22    1
    23    24    22    1
    24    25    22    1
    25    26    25   ar
    26    27    26    1
    27    28    26   ar
    28    29    28    1
    29    30    28   ar
    30    31    30    1
    31    32    30   ar
    32    33    32    1
    33    34     1    1
    34    35     8    1
    35    36    35    1
    36    37    35    1
    37    38    35    1
    38    39    38   ar
    39    40     1    1
    40    41    39   ar
    41    42    41    1
    42    43    42    1
    43    44    42    1
    44    45    42    1
    45    46    41   ar
    46    47    46    1
    47    48    46   ar
    48    49    38   ar
    49    50    49    1
    50    51    48    1
    51    52    51    1
    52    53    51    1
    53    54    51    1
    54    55    54    1
    55    56    54    1
    56    57    54    1
    57    58    57    1
    58    59    57    1
    59    60    57    1
    60    61    60    1
    61    62    60    1
    62    63    60    1
    63    64    63    1
    64    65    63    1
    65    66    63    1
    66    67    66    1
    67    68    66    1
    68    69    66    1
    69    70    69    1
    70    71    69    1
    71    72    69    1
    72    73    72    1
    73    74    72    1
    74    75    72    1
    75    76    75    1
    76    77    75    1
    77    78    75    1
    78    79    78    1
    79    80    78    1
    80    81    78    1
    81    82    81    1
    82    83    81    1
    83    84    81    1
    84    85    84    1
    85    86    84    1
    86    87    84    1
    87    12    21   ar
    88    19    21   ar
    89    25    34   ar
    90    32    34   ar
    91    39    40    1
    92    48    49   ar
@<TRIPOS>SUBSTRUCTURE
     1 RES1        1 GROUP             0 ****  ****    0  
@<TRIPOS>CRYSIN
    6.9808   10.2063   46.4720   90.0000   92.6680   90.0000   231     1
