@<TRIPOS>MOLECULE
ADUHIT
    83    88     1     0     0
SMALL
NO_CHARGES
****
Generated from the CSD

@<TRIPOS>ATOM
     1 Fe1      2.6564   2.4262   3.8534   Fe        1 RES1   0.0000
     2 Br1      1.0695   4.2379   3.5274   Br        1 RES1   0.0000
     3 Br2      1.2590   0.5453   2.9137   Br        1 RES1   0.0000
     4 N1       4.4818   1.1862   3.9894   N.3       1 RES1   0.0000
     5 C1       4.6450   0.5288   2.6848   C.3       1 RES1   0.0000
     6 H1       4.0283  -0.2432   2.6209   H         1 RES1   0.0000
     7 H2       5.5711   0.1898   2.5976   H         1 RES1   0.0000
     8 C2       4.3578   1.4887   1.5748   C.ar      1 RES1   0.0000
     9 C3       4.8060   1.3174   0.2877   C.ar      1 RES1   0.0000
    10 H3       5.3864   0.5961   0.0755   H         1 RES1   0.0000
    11 C4       4.4079   2.1981  -0.6886   C.ar      1 RES1   0.0000
    12 H4       4.6744   2.0633  -1.5923   H         1 RES1   0.0000
    13 C5       3.6268   3.2669  -0.3574   C.ar      1 RES1   0.0000
    14 H5       3.3602   3.8935  -1.0199   H         1 RES1   0.0000
    15 C6       3.2322   3.4238   0.9501   C.ar      1 RES1   0.0000
    16 H6       2.7035   4.1750   1.1913   H         1 RES1   0.0000
    17 N2       3.5835   2.5242   1.9003   N.ar      1 RES1   0.0000
    18 C7       5.6599   2.0466   4.2596   C.3       1 RES1   0.0000
    19 H7       6.3496   1.5154   4.7303   H         1 RES1   0.0000
    20 H8       6.0443   2.3520   3.3996   H         1 RES1   0.0000
    21 C8       5.3064   3.2220   5.0790   C.ar      1 RES1   0.0000
    22 C9       6.1937   3.7410   6.0175   C.ar      1 RES1   0.0000
    23 H9       7.0145   3.2999   6.2006   H         1 RES1   0.0000
    24 C10      5.8601   4.9032   6.6684   C.ar      1 RES1   0.0000
    25 H10      6.4219   5.2613   7.3483   H         1 RES1   0.0000
    26 C11      4.6769   5.5424   6.3110   C.ar      1 RES1   0.0000
    27 H11      4.4379   6.3728   6.7062   H         1 RES1   0.0000
    28 C12      3.8592   4.9526   5.3754   C.ar      1 RES1   0.0000
    29 H12      3.0479   5.3898   5.1429   H         1 RES1   0.0000
    30 N3       4.1466   3.8036   4.7797   N.ar      1 RES1   0.0000
    31 O1       2.2489   1.9448   5.6921   O.3       1 RES1   0.0000
    32 C13      4.3293   0.1777   5.0529   C.3       1 RES1   0.0000
    33 H13      5.1098  -0.4318   5.0412   H         1 RES1   0.0000
    34 H14      3.5169  -0.3613   4.8814   H         1 RES1   0.0000
    35 C14      4.2224   0.8232   6.3952   C.ar      1 RES1   0.0000
    36 C15      3.1642   1.7007   6.6422   C.ar      1 RES1   0.0000
    37 C16      3.0705   2.3503   7.8684   C.ar      1 RES1   0.0000
    38 C17      4.0642   2.1409   8.8040   C.ar      1 RES1   0.0000
    39 H15      4.0175   2.6118   9.6263   H         1 RES1   0.0000
    40 C18      5.1243   1.2780   8.5977   C.ar      1 RES1   0.0000
    41 C19      5.1835   0.6160   7.3773   C.ar      1 RES1   0.0000
    42 H16      5.8952   0.0094   7.2117   H         1 RES1   0.0000
    43 C20      1.9627   3.3236   8.0950   C.3       1 RES1   0.0000
    44 H17      1.8407   3.8715   7.2902   H         1 RES1   0.0000
    45 H18      2.1845   3.9014   8.8534   H         1 RES1   0.0000
    46 H19      1.1342   2.8362   8.2868   H         1 RES1   0.0000
    47 C21      6.2050   1.1473   9.6495   C.3       1 RES1   0.0000
    48 H20      6.5542   2.0536   9.8413   H         1 RES1   0.0000
    49 H21      5.7831   0.8141  10.4805   H         1 RES1   0.0000
    50 C22      7.3845   0.2517   9.3357   C.3       1 RES1   0.0000
    51 H22      7.8187   0.5794   8.5076   H         1 RES1   0.0000
    52 H23      7.0477  -0.6617   9.1527   H         1 RES1   0.0000
    53 C23      8.4291   0.1739  10.4340   C.3       1 RES1   0.0000
    54 H24      8.8061   1.0774  10.5793   H         1 RES1   0.0000
    55 H25      7.9878  -0.1075  11.2738   H         1 RES1   0.0000
    56 C24      9.5503  -0.7745  10.1348   C.3       1 RES1   0.0000
    57 H26     10.0235  -0.4677   9.3212   H         1 RES1   0.0000
    58 H27      9.1727  -1.6697   9.9459   H         1 RES1   0.0000
    59 C25     10.5520  -0.8904  11.2767   C.3       1 RES1   0.0000
    60 H28     10.9335   0.0048  11.4597   H         1 RES1   0.0000
    61 H29     10.0740  -1.1863  12.0902   H         1 RES1   0.0000
    62 C26     11.6793  -1.8537  10.9948   C.3       1 RES1   0.0000
    63 H30     12.1495  -1.5620  10.1754   H         1 RES1   0.0000
    64 H31     11.2969  -2.7494  10.8205   H         1 RES1   0.0000
    65 C27     12.6995  -1.9680  12.1309   C.3       1 RES1   0.0000
    66 H32     13.0755  -1.0682  12.3024   H         1 RES1   0.0000
    67 H33     12.2244  -2.2538  12.9503   H         1 RES1   0.0000
    68 C28     13.8203  -2.9036  11.8898   C.3       1 RES1   0.0000
    69 H34     14.3074  -2.6089  11.0791   H         1 RES1   0.0000
    70 H35     13.4462  -3.8006  11.7038   H         1 RES1   0.0000
    71 C29     14.8110  -3.0242  13.0288   C.3       1 RES1   0.0000
    72 H36     15.1722  -2.1242  13.2292   H         1 RES1   0.0000
    73 H37     14.3278  -3.3370  13.8336   H         1 RES1   0.0000
    74 C30     15.9555  -3.9498  12.7731   C.3       1 RES1   0.0000
    75 H38     16.4501  -3.6331  11.9769   H         1 RES1   0.0000
    76 H39     15.5985  -4.8504  12.5668   H         1 RES1   0.0000
    77 C31     16.9177  -4.0593  13.9266   C.3       1 RES1   0.0000
    78 H40     16.4261  -4.3995  14.7198   H         1 RES1   0.0000
    79 H41     17.2544  -3.1561  14.1503   H         1 RES1   0.0000
    80 C32     18.1063  -4.9811  13.6593   C.3       1 RES1   0.0000
    81 H42     18.6899  -5.0029  14.4496   H         1 RES1   0.0000
    82 H43     17.7884  -5.8837  13.4617   H         1 RES1   0.0000
    83 H44     18.6177  -4.6395  12.8922   H         1 RES1   0.0000
@<TRIPOS>BOND
     1     1     2    1
     2     3     1    1
     3     4     1    1
     4     5     4    1
     5     6     5    1
     6     7     5    1
     7     8     5    1
     8     9     8   ar
     9    10     9    1
    10    11     9   ar
    11    12    11    1
    12    13    11   ar
    13    14    13    1
    14    15    13   ar
    15    16    15    1
    16    17     1    1
    17    18     4    1
    18    19    18    1
    19    20    18    1
    20    21    18    1
    21    22    21   ar
    22    23    22    1
    23    24    22   ar
    24    25    24    1
    25    26    24   ar
    26    27    26    1
    27    28    26   ar
    28    29    28    1
    29    30     1    1
    30    31     1    1
    31    32     4    1
    32    33    32    1
    33    34    32    1
    34    35    32    1
    35    36    31    1
    36    37    36   ar
    37    38    37   ar
    38    39    38    1
    39    40    38   ar
    40    41    35   ar
    41    42    41    1
    42    43    37    1
    43    44    43    1
    44    45    43    1
    45    46    43    1
    46    47    40    1
    47    48    47    1
    48    49    47    1
    49    50    47    1
    50    51    50    1
    51    52    50    1
    52    53    50    1
    53    54    53    1
    54    55    53    1
    55    56    53    1
    56    57    56    1
    57    58    56    1
    58    59    56    1
    59    60    59    1
    60    61    59    1
    61    62    59    1
    62    63    62    1
    63    64    62    1
    64    65    62    1
    65    66    65    1
    66    67    65    1
    67    68    65    1
    68    69    68    1
    69    70    68    1
    70    71    68    1
    71    72    71    1
    72    73    71    1
    73    74    71    1
    74    75    74    1
    75    76    74    1
    76    77    74    1
    77    78    77    1
    78    79    77    1
    79    80    77    1
    80    81    80    1
    81    82    80    1
    82    83    80    1
    83     8    17   ar
    84    15    17   ar
    85    21    30   ar
    86    28    30   ar
    87    35    36   ar
    88    40    41   ar
@<TRIPOS>SUBSTRUCTURE
     1 RES1        1 GROUP             0 ****  ****    0  
@<TRIPOS>CRYSIN
    7.4177    7.9350   29.2550   83.3170   87.4480   66.1740     2     1
