@<TRIPOS>MOLECULE
AFANIF02
    74    80     4     0     0
SMALL
USER_CHARGES
****
Generated from the CSD

@<TRIPOS>ATOM
     1 Fe1     18.3584   5.0482  20.8881   Fe        1 RES1   2.0000
     2 N1      18.9657   6.7507  19.6728   N.2       1 RES1   0.0000
     3 N2      18.9254   7.9398  20.3375   N.pl3     1 RES1   0.0000
     4 C1      19.8039   5.9708  17.4975   C.3       1 RES1   0.0000
     5 H1      20.0930   5.1678  17.9376   H         1 RES1   0.0000
     6 H2      20.4856   6.2656  16.8882   H         1 RES1   0.0000
     7 H3      18.9954   5.7948  17.0125   H         1 RES1   0.0000
     8 C2      19.5549   7.0213  18.5053   C.2       1 RES1   0.0000
     9 C3      19.8859   8.3798  18.4405   C.2       1 RES1   0.0000
    10 H4      20.3025   8.8198  17.7344   H         1 RES1   0.0000
    11 C4      19.4813   8.9210  19.5987   C.2       1 RES1   0.0000
    12 H5      19.5674   9.8131  19.8475   H         1 RES1   0.0000
    13 N3      18.0717   6.7672  22.0952   N.ar      1 RES1   0.0000
    14 C5      18.3703   7.9750  21.6262   C.ar      1 RES1   0.0000
    15 C6      18.1662   9.1245  22.3447   C.ar      1 RES1   0.0000
    16 H6      18.3973   9.9572  22.0012   H         1 RES1   0.0000
    17 C7      17.6102   8.9925  23.5846   C.ar      1 RES1   0.0000
    18 H7      17.4577   9.7537  24.0976   H         1 RES1   0.0000
    19 C8      17.2679   7.7495  24.0983   C.ar      1 RES1   0.0000
    20 H8      16.8747   7.6593  24.9367   H         1 RES1   0.0000
    21 C9      17.5369   6.6671  23.3102   C.ar      1 RES1   0.0000
    22 N4      17.3076   5.3328  23.6879   N.pl3     1 RES1   0.0000
    23 N5      17.7879   4.3252  22.8905   N.2       1 RES1   0.0000
    24 C10     16.7226   4.8191  24.8057   C.2       1 RES1   0.0000
    25 H9      16.3239   5.2998  25.4936   H         1 RES1   0.0000
    26 C11     16.8311   3.4782  24.7210   C.2       1 RES1   0.0000
    27 H10     16.5215   2.8589  25.3406   H         1 RES1   0.0000
    28 C12     17.4987   3.1966  23.5251   C.2       1 RES1   0.0000
    29 C13     17.8821   1.8678  22.9627   C.3       1 RES1   0.0000
    30 H11     17.1364   1.4927  22.4889   H         1 RES1   0.0000
    31 H12     18.1358   1.2782  23.6769   H         1 RES1   0.0000
    32 H13     18.6224   1.9767  22.3598   H         1 RES1   0.0000
    33 N6      16.3392   4.5738  20.2111   N.2       1 RES1   0.0000
    34 N7      16.2634   3.3946  19.5243   N.pl3     1 RES1   0.0000
    35 C14     14.7514   6.1809  21.1574   C.3       1 RES1   0.0000
    36 H14     14.9237   6.0621  22.0945   H         1 RES1   0.0000
    37 H15     13.8260   6.3965  21.0260   H         1 RES1   0.0000
    38 H16     15.2960   6.8959  20.8204   H         1 RES1   0.0000
    39 C15     15.0735   4.9335  20.4346   C.2       1 RES1   0.0000
    40 C16     14.1947   3.9787  19.8972   C.2       1 RES1   0.0000
    41 H17     13.2654   3.9963  19.9264   H         1 RES1   0.0000
    42 C17     14.9746   3.0239  19.3238   C.2       1 RES1   0.0000
    43 H18     14.6791   2.2616  18.8794   H         1 RES1   0.0000
    44 C18     17.4511   2.7258  19.1794   C.ar      1 RES1   0.0000
    45 N8      18.5257   3.2593  19.7655   N.ar      1 RES1   0.0000
    46 C19     17.5020   1.6258  18.3609   C.ar      1 RES1   0.0000
    47 H19     16.7399   1.2881  17.9471   H         1 RES1   0.0000
    48 C20     18.7467   1.0439  18.1833   C.ar      1 RES1   0.0000
    49 H20     18.8276   0.3003  17.6292   H         1 RES1   0.0000
    50 C21     19.8665   1.5433  18.8108   C.ar      1 RES1   0.0000
    51 H21     20.6967   1.1374  18.7144   H         1 RES1   0.0000
    52 C22     19.7045   2.6741  19.5891   C.ar      1 RES1   0.0000
    53 N9      20.7425   3.3220  20.2625   N.pl3     1 RES1   0.0000
    54 N10     20.4614   4.4528  20.9777   N.2       1 RES1   0.0000
    55 C23     22.0740   3.0602  20.2861   C.2       1 RES1   0.0000
    56 H22     22.5040   2.3408  19.8810   H         1 RES1   0.0000
    57 C24     22.6537   4.0414  21.0092   C.2       1 RES1   0.0000
    58 H23     23.5618   4.1327  21.1909   H         1 RES1   0.0000
    59 C25     21.6321   4.8972  21.4333   C.2       1 RES1   0.0000
    60 C26     21.7080   6.1457  22.2269   C.3       1 RES1   0.0000
    61 H24     22.0912   6.8431  21.6905   H         1 RES1   0.0000
    62 H25     22.2565   5.9994  23.0004   H         1 RES1   0.0000
    63 H26     20.8245   6.4031  22.5032   H         1 RES1   0.0000
    64 B1      16.2746   4.5408  15.9511   B         2 RES2  -1.0000
    65 F1      17.3755   4.0392  15.2608   F         2 RES2   0.0000
    66 F2      15.6392   5.4659  15.1580   F         2 RES2   0.0000
    67 F3      15.4339   3.4870  16.2662   F         2 RES2   0.0000
    68 F4      16.7015   5.1491  17.1174   F         2 RES2   0.0000
    69 B2      10.6461   4.9863  21.0977   B         3 RES3  -1.0000
    70 F5      10.8436   5.2998  19.7858   F         3 RES3   0.0000
    71 F6       9.3902   5.4593  21.4469   F         3 RES3   0.0000
    72 F7      11.5958   5.5825  21.8597   F         3 RES3   0.0000
    73 F8      10.7311   3.6553  21.2131   F         3 RES3   0.0000
    74 O1      22.1181   2.2935  12.1743   O.3       4 RES4   0.0000
@<TRIPOS>BOND
     1     1     2    1
     2     2     3    1
     3     3    11    1
     4     4     5    1
     5     6     4    1
     6     7     4    1
     7     8     2    2
     8     9     8    1
     9    10     9    1
    10    11     9    2
    11    12    11    1
    12    13     1    1
    13    14     3    1
    14    15    14   ar
    15    16    15    1
    16    17    15   ar
    17    18    17    1
    18    19    17   ar
    19    20    19    1
    20    21    13   ar
    21    22    21    1
    22    23     1    1
    23    24    22    1
    24    25    24    1
    25    26    24    2
    26    27    26    1
    27    28    23    2
    28    29    28    1
    29    30    29    1
    30    31    29    1
    31    32    29    1
    32    33     1    1
    33    34    33    1
    34    35    36    1
    35    37    35    1
    36    38    35    1
    37    39    33    2
    38    40    39    1
    39    41    40    1
    40    42    34    1
    41    43    42    1
    42    44    34    1
    43    45     1    1
    44    46    44   ar
    45    47    46    1
    46    48    46   ar
    47    49    48    1
    48    50    48   ar
    49    51    50    1
    50    52    45   ar
    51    53    52    1
    52    54     1    1
    53    55    53    1
    54    56    55    1
    55    57    55    2
    56    58    57    1
    57    59    54    2
    58    60    59    1
    59    61    60    1
    60    62    60    1
    61    63    60    1
    62     4     8    1
    63    13    14   ar
    64    19    21   ar
    65    22    23    1
    66    26    28    1
    67    35    39    1
    68    40    42    2
    69    44    45   ar
    70    50    52   ar
    71    53    54    1
    72    57    59    1
    73    64    65    1
    74    66    64    1
    75    67    64    1
    76    68    64    1
    77    69    70    1
    78    71    69    1
    79    72    69    1
    80    73    69    1
@<TRIPOS>SUBSTRUCTURE
     1 RES1        1 GROUP             0 ****  ****    0  
     2 RES2       64 GROUP             0 ****  ****    0  
     3 RES3       69 GROUP             0 ****  ****    0  
     4 RES4       74 GROUP             0 ****  ****    0  
@<TRIPOS>CRYSIN
   23.4250   11.0000   24.0170   90.0000   95.5600   90.0000    15     1
