@<TRIPOS>MOLECULE
AFANIF05
    74    80     4     0     0
SMALL
USER_CHARGES
****
Generated from the CSD

@<TRIPOS>ATOM
     1 Fe1     18.3855   4.9419  21.0621   Fe        1 RES1   2.0000
     2 N1      18.9283   6.4073  19.7620   N.2       1 RES1   0.0000
     3 N2      18.8496   7.6578  20.3541   N.pl3     1 RES1   0.0000
     4 C1      19.7581   5.5101  17.6648   C.3       1 RES1   0.0000
     5 H1      20.3237   4.8643  18.0962   H         1 RES1   0.0000
     6 H2      20.2023   5.8579  16.8906   H         1 RES1   0.0000
     7 H3      18.9372   5.0897  17.4011   H         1 RES1   0.0000
     8 C2      19.4751   6.5872  18.5828   C.2       1 RES1   0.0000
     9 C3      19.7538   7.9623  18.4030   C.2       1 RES1   0.0000
    10 H4      20.1328   8.3524  17.6504   H         1 RES1   0.0000
    11 C4      19.3630   8.6092  19.5343   C.2       1 RES1   0.0000
    12 H5      19.4354   9.5194  19.7117   H         1 RES1   0.0000
    13 N3      18.0660   6.5319  22.1397   N.ar      1 RES1   0.0000
    14 C5      18.3347   7.7532  21.6364   C.ar      1 RES1   0.0000
    15 C6      18.1273   8.8888  22.3458   C.ar      1 RES1   0.0000
    16 H6      18.3005   9.7231  21.9743   H         1 RES1   0.0000
    17 C7      17.6425   8.7696  23.6545   C.ar      1 RES1   0.0000
    18 H7      17.5385   9.5281  24.1818   H         1 RES1   0.0000
    19 C8      17.3188   7.5224  24.1626   C.ar      1 RES1   0.0000
    20 H8      16.9493   7.4216  25.0111   H         1 RES1   0.0000
    21 C9      17.5712   6.4539  23.3597   C.ar      1 RES1   0.0000
    22 N4      17.3856   5.1059  23.7456   N.pl3     1 RES1   0.0000
    23 N5      17.8692   4.1253  22.8612   N.2       1 RES1   0.0000
    24 C10     16.9369   4.5240  24.8913   C.2       1 RES1   0.0000
    25 H9      16.5659   4.9542  25.6271   H         1 RES1   0.0000
    26 C11     17.1453   3.1663  24.7403   C.2       1 RES1   0.0000
    27 H10     16.9353   2.5009  25.3539   H         1 RES1   0.0000
    28 C12     17.7233   2.9853  23.5035   C.2       1 RES1   0.0000
    29 C13     18.1389   1.6763  22.9163   C.3       1 RES1   0.0000
    30 H11     17.4874   1.3946  22.2715   H         1 RES1   0.0000
    31 H12     18.2035   1.0197  23.6138   H         1 RES1   0.0000
    32 H13     18.9927   1.7739  22.4896   H         1 RES1   0.0000
    33 N6      16.5084   4.5825  20.3660   N.2       1 RES1   0.0000
    34 N7      16.4474   3.4339  19.6494   N.pl3     1 RES1   0.0000
    35 C14     14.8741   6.2264  21.1810   C.3       1 RES1   0.0000
    36 H14     14.8379   6.0465  22.1229   H         1 RES1   0.0000
    37 H15     14.0106   6.5103  20.8742   H         1 RES1   0.0000
    38 H16     15.5167   6.9210  21.0132   H         1 RES1   0.0000
    39 C15     15.2656   5.0312  20.4787   C.2       1 RES1   0.0000
    40 C16     14.3841   4.1112  19.8315   C.2       1 RES1   0.0000
    41 H17     13.4578   4.1729  19.7788   H         1 RES1   0.0000
    42 C17     15.1670   3.1262  19.3066   C.2       1 RES1   0.0000
    43 H18     14.8811   2.3904  18.8153   H         1 RES1   0.0000
    44 C18     17.6295   2.7599  19.3546   C.ar      1 RES1   0.0000
    45 N8      18.6660   3.3505  20.0017   N.ar      1 RES1   0.0000
    46 C19     17.7839   1.7078  18.5516   C.ar      1 RES1   0.0000
    47 H19     17.0758   1.3458  18.0699   H         1 RES1   0.0000
    48 C20     19.0813   1.1800  18.4749   C.ar      1 RES1   0.0000
    49 H20     19.2225   0.4367  17.9356   H         1 RES1   0.0000
    50 C21     20.1189   1.6904  19.1389   C.ar      1 RES1   0.0000
    51 H21     20.9680   1.3101  19.0861   H         1 RES1   0.0000
    52 C22     19.8720   2.8347  19.9274   C.ar      1 RES1   0.0000
    53 N9      20.8007   3.5380  20.6872   N.pl3     1 RES1   0.0000
    54 N10     20.3540   4.6627  21.3631   N.2       1 RES1   0.0000
    55 C23     22.2190   3.4935  20.8430   C.2       1 RES1   0.0000
    56 H22     22.8008   2.8575  20.4955   H         1 RES1   0.0000
    57 C24     22.5200   4.4904  21.5501   C.2       1 RES1   0.0000
    58 H23     23.3918   4.6887  21.8018   H         1 RES1   0.0000
    59 C25     21.4258   5.2706  21.9264   C.2       1 RES1   0.0000
    60 C26     21.3628   6.5027  22.6574   C.3       1 RES1   0.0000
    61 H24     20.5148   6.5677  23.1008   H         1 RES1   0.0000
    62 H25     21.4630   7.2395  22.0510   H         1 RES1   0.0000
    63 H26     22.0687   6.5254  23.3070   H         1 RES1   0.0000
    64 B1      16.2622   4.6216  16.0445   B         2 RES2  -1.0000
    65 F1      17.4524   4.1859  15.3585   F         2 RES2   0.0000
    66 F2      15.5931   5.4874  15.2200   F         2 RES2   0.0000
    67 F3      15.5016   3.4729  16.3058   F         2 RES2   0.0000
    68 F4      16.6397   5.2305  17.2379   F         2 RES2   0.0000
    69 B2      10.9401   4.8762  21.1906   B         3 RES3  -1.0000
    70 F5      11.2409   5.3595  19.9754   F         3 RES3   0.0000
    71 F6       9.6357   5.0777  21.5069   F         3 RES3   0.0000
    72 F7      11.8205   5.1850  22.0582   F         3 RES3   0.0000
    73 F8      11.1231   3.4924  20.8095   F         3 RES3   0.0000
    74 O1      21.7988   1.7663  12.3797   O.3       4 RES4   0.0000
@<TRIPOS>BOND
     1     1     2    1
     2     2     3    1
     3     3    11    1
     4     4     5    1
     5     6     4    1
     6     7     4    1
     7     8     2    2
     8     9     8    1
     9    10     9    1
    10    11     9    2
    11    12    11    1
    12    13     1    1
    13    14     3    1
    14    15    14   ar
    15    16    15    1
    16    17    15   ar
    17    18    17    1
    18    19    17   ar
    19    20    19    1
    20    21    13   ar
    21    22    21    1
    22    23     1    1
    23    24    22    1
    24    25    24    1
    25    26    24    2
    26    27    26    1
    27    28    23    2
    28    29    28    1
    29    30    29    1
    30    31    29    1
    31    32    29    1
    32    33     1    1
    33    34    33    1
    34    35    36    1
    35    37    35    1
    36    38    35    1
    37    39    33    2
    38    40    39    1
    39    41    40    1
    40    42    34    1
    41    43    42    1
    42    44    34    1
    43    45     1    1
    44    46    44   ar
    45    47    46    1
    46    48    46   ar
    47    49    48    1
    48    50    48   ar
    49    51    50    1
    50    52    45   ar
    51    53    52    1
    52    54     1    1
    53    55    53    1
    54    56    55    1
    55    57    55    2
    56    58    57    1
    57    59    54    2
    58    60    59    1
    59    61    60    1
    60    62    60    1
    61    63    60    1
    62     4     8    1
    63    13    14   ar
    64    19    21   ar
    65    22    23    1
    66    26    28    1
    67    35    39    1
    68    40    42    2
    69    44    45   ar
    70    50    52   ar
    71    53    54    1
    72    57    59    1
    73    64    65    1
    74    66    64    1
    75    67    64    1
    76    68    64    1
    77    69    70    1
    78    71    69    1
    79    72    69    1
    80    73    69    1
@<TRIPOS>SUBSTRUCTURE
     1 RES1        1 GROUP             0 ****  ****    0  
     2 RES2       64 GROUP             0 ****  ****    0  
     3 RES3       69 GROUP             0 ****  ****    0  
     4 RES4       74 GROUP             0 ****  ****    0  
@<TRIPOS>CRYSIN
   22.7890   10.8360   24.0230   90.0000   93.8600   90.0000    15     1
