@<TRIPOS>MOLECULE
AFANIF01
    74    80     4     0     0
SMALL
USER_CHARGES
****
Generated from the CSD

@<TRIPOS>ATOM
     1 Fe1     18.2221   5.0430  20.7968   Fe        1 RES1   2.0000
     2 N1      18.8352   6.7336  19.5818   N.2       1 RES1   0.0000
     3 N2      18.7921   7.9266  20.2384   N.pl3     1 RES1   0.0000
     4 C1      19.6857   5.9452  17.4054   C.3       1 RES1   0.0000
     5 H1      19.9372   5.1338  17.8514   H         1 RES1   0.0000
     6 H2      20.3929   6.2226  16.8185   H         1 RES1   0.0000
     7 H3      18.8882   5.7950  16.8947   H         1 RES1   0.0000
     8 C2      19.4352   7.0012  18.4087   C.2       1 RES1   0.0000
     9 C3      19.7580   8.3630  18.3364   C.2       1 RES1   0.0000
    10 H4      20.1779   8.8016  17.6300   H         1 RES1   0.0000
    11 C4      19.3388   8.9102  19.4973   C.2       1 RES1   0.0000
    12 H5      19.4133   9.8049  19.7410   H         1 RES1   0.0000
    13 N3      17.9224   6.7610  21.9890   N.ar      1 RES1   0.0000
    14 C5      18.2233   7.9650  21.5206   C.ar      1 RES1   0.0000
    15 C6      18.0069   9.1196  22.2306   C.ar      1 RES1   0.0000
    16 H6      18.2356   9.9518  21.8852   H         1 RES1   0.0000
    17 C7      17.4362   8.9935  23.4752   C.ar      1 RES1   0.0000
    18 H7      17.2765   9.7556  23.9843   H         1 RES1   0.0000
    19 C8      17.0952   7.7534  23.9862   C.ar      1 RES1   0.0000
    20 H8      16.6936   7.6634  24.8196   H         1 RES1   0.0000
    21 C9      17.3806   6.6601  23.2022   C.ar      1 RES1   0.0000
    22 N4      17.1503   5.3246  23.5811   N.pl3     1 RES1   0.0000
    23 N5      17.6502   4.3235  22.7898   N.2       1 RES1   0.0000
    24 C10     16.5597   4.8103  24.6947   C.2       1 RES1   0.0000
    25 H9      16.1474   5.2906  25.3765   H         1 RES1   0.0000
    26 C11     16.6877   3.4671  24.6166   C.2       1 RES1   0.0000
    27 H10     16.3845   2.8465  25.2385   H         1 RES1   0.0000
    28 C12     17.3598   3.1875  23.4276   C.2       1 RES1   0.0000
    29 C13     17.7704   1.8662  22.8717   C.3       1 RES1   0.0000
    30 H11     17.0502   1.4967  22.3588   H         1 RES1   0.0000
    31 H12     17.9905   1.2708  23.5916   H         1 RES1   0.0000
    32 H13     18.5387   1.9814  22.3065   H         1 RES1   0.0000
    33 N6      16.2049   4.5757  20.1203   N.2       1 RES1   0.0000
    34 N7      16.1257   3.3893  19.4404   N.pl3     1 RES1   0.0000
    35 C14     14.6240   6.1985  21.0637   C.3       1 RES1   0.0000
    36 H14     14.8273   6.0933  21.9971   H         1 RES1   0.0000
    37 H15     13.6908   6.3937  20.9595   H         1 RES1   0.0000
    38 H16     15.1435   6.9200  20.7024   H         1 RES1   0.0000
    39 C15     14.9504   4.9419  20.3414   C.2       1 RES1   0.0000
    40 C16     14.0576   3.9759  19.8183   C.2       1 RES1   0.0000
    41 H17     13.1290   3.9945  19.8552   H         1 RES1   0.0000
    42 C17     14.8350   3.0132  19.2491   C.2       1 RES1   0.0000
    43 H18     14.5381   2.2467  18.8128   H         1 RES1   0.0000
    44 C18     17.3091   2.7215  19.0932   C.ar      1 RES1   0.0000
    45 N8      18.3817   3.2533  19.6798   N.ar      1 RES1   0.0000
    46 C19     17.3618   1.6206  18.2631   C.ar      1 RES1   0.0000
    47 H19     16.6009   1.2873  17.8466   H         1 RES1   0.0000
    48 C20     18.5998   1.0395  18.0794   C.ar      1 RES1   0.0000
    49 H20     18.6777   0.3004  17.5182   H         1 RES1   0.0000
    50 C21     19.7208   1.5318  18.7091   C.ar      1 RES1   0.0000
    51 H21     20.5493   1.1217  18.6105   H         1 RES1   0.0000
    52 C22     19.5628   2.6645  19.4975   C.ar      1 RES1   0.0000
    53 N9      20.5968   3.3125  20.1741   N.pl3     1 RES1   0.0000
    54 N10     20.3186   4.4386  20.9002   N.2       1 RES1   0.0000
    55 C23     21.9309   3.0406  20.2034   C.2       1 RES1   0.0000
    56 H22     22.3602   2.3235  19.7981   H         1 RES1   0.0000
    57 C24     22.5099   4.0198  20.9392   C.2       1 RES1   0.0000
    58 H23     23.4166   4.1031  21.1284   H         1 RES1   0.0000
    59 C25     21.4876   4.8827  21.3624   C.2       1 RES1   0.0000
    60 C26     21.5558   6.1218  22.1613   C.3       1 RES1   0.0000
    61 H24     21.8741   6.8400  21.6115   H         1 RES1   0.0000
    62 H25     22.1569   5.9935  22.8991   H         1 RES1   0.0000
    63 H26     20.6810   6.3356  22.4945   H         1 RES1   0.0000
    64 B1      16.1504   4.5406  15.8949   B         2 RES2  -1.0000
    65 F1      17.2542   4.0340  15.1954   F         2 RES2   0.0000
    66 F2      15.5101   5.4737  15.1031   F         2 RES2   0.0000
    67 F3      15.3018   3.4891  16.2102   F         2 RES2   0.0000
    68 F4      16.5942   5.1485  17.0648   F         2 RES2   0.0000
    69 B2      10.5242   5.0110  21.0285   B         3 RES3  -1.0000
    70 F5      10.7433   5.2818  19.7010   F         3 RES3   0.0000
    71 F6       9.2609   5.4957  21.3576   F         3 RES3   0.0000
    72 F7      11.4809   5.6097  21.7879   F         3 RES3   0.0000
    73 F8      10.5821   3.6689  21.1975   F         3 RES3   0.0000
    74 O1      21.9220   2.3323  12.1016   O.3       4 RES4   0.0000
@<TRIPOS>BOND
     1     1     2    1
     2     2     3    1
     3     3    11    1
     4     4     5    1
     5     6     4    1
     6     7     4    1
     7     8     2    2
     8     9     8    1
     9    10     9    1
    10    11     9    2
    11    12    11    1
    12    13     1    1
    13    14     3    1
    14    15    14   ar
    15    16    15    1
    16    17    15   ar
    17    18    17    1
    18    19    17   ar
    19    20    19    1
    20    21    13   ar
    21    22    21    1
    22    23     1    1
    23    24    22    1
    24    25    24    1
    25    26    24    2
    26    27    26    1
    27    28    23    2
    28    29    28    1
    29    30    29    1
    30    31    29    1
    31    32    29    1
    32    33     1    1
    33    34    33    1
    34    35    36    1
    35    37    35    1
    36    38    35    1
    37    39    33    2
    38    40    39    1
    39    41    40    1
    40    42    34    1
    41    43    42    1
    42    44    34    1
    43    45     1    1
    44    46    44   ar
    45    47    46    1
    46    48    46   ar
    47    49    48    1
    48    50    48   ar
    49    51    50    1
    50    52    45   ar
    51    53    52    1
    52    54     1    1
    53    55    53    1
    54    56    55    1
    55    57    55    2
    56    58    57    1
    57    59    54    2
    58    60    59    1
    59    61    60    1
    60    62    60    1
    61    63    60    1
    62     4     8    1
    63    13    14   ar
    64    19    21   ar
    65    22    23    1
    66    26    28    1
    67    35    39    1
    68    40    42    2
    69    44    45   ar
    70    50    52   ar
    71    53    54    1
    72    57    59    1
    73    64    65    1
    74    66    64    1
    75    67    64    1
    76    68    64    1
    77    69    70    1
    78    71    69    1
    79    72    69    1
    80    73    69    1
@<TRIPOS>SUBSTRUCTURE
     1 RES1        1 GROUP             0 ****  ****    0  
     2 RES2       64 GROUP             0 ****  ****    0  
     3 RES3       69 GROUP             0 ****  ****    0  
     4 RES4       74 GROUP             0 ****  ****    0  
@<TRIPOS>CRYSIN
   23.2850   10.9650   23.9140   90.0000   95.6300   90.0000    15     1
