@<TRIPOS>MOLECULE
AFANIF03
    74    80     4     0     0
SMALL
USER_CHARGES
****
Generated from the CSD

@<TRIPOS>ATOM
     1 Fe1     18.0550   5.0424  20.6675   Fe        1 RES1   2.0000
     2 N1      18.6942   6.7305  19.4546   N.2       1 RES1   0.0000
     3 N2      18.6353   7.9317  20.1113   N.pl3     1 RES1   0.0000
     4 C1      19.5494   5.9348  17.2824   C.3       1 RES1   0.0000
     5 H1      19.7674   5.1160  17.7323   H         1 RES1   0.0000
     6 H2      20.2831   6.1955  16.7211   H         1 RES1   0.0000
     7 H3      18.7645   5.8046  16.7448   H         1 RES1   0.0000
     8 C2      19.2905   7.0026  18.2900   C.2       1 RES1   0.0000
     9 C3      19.6026   8.3707  18.2029   C.2       1 RES1   0.0000
    10 H4      20.0150   8.8077  17.4931   H         1 RES1   0.0000
    11 C4      19.1755   8.9240  19.3734   C.2       1 RES1   0.0000
    12 H5      19.2437   9.8193  19.6173   H         1 RES1   0.0000
    13 N3      17.7536   6.7690  21.8609   N.ar      1 RES1   0.0000
    14 C5      18.0556   7.9761  21.3920   C.ar      1 RES1   0.0000
    15 C6      17.8246   9.1400  22.0929   C.ar      1 RES1   0.0000
    16 H6      18.0586   9.9714  21.7486   H         1 RES1   0.0000
    17 C7      17.2287   9.0123  23.3315   C.ar      1 RES1   0.0000
    18 H7      17.0556   9.7755  23.8349   H         1 RES1   0.0000
    19 C8      16.8806   7.7683  23.8444   C.ar      1 RES1   0.0000
    20 H8      16.4604   7.6789  24.6708   H         1 RES1   0.0000
    21 C9      17.1892   6.6719  23.0646   C.ar      1 RES1   0.0000
    22 N4      16.9576   5.3352  23.4517   N.pl3     1 RES1   0.0000
    23 N5      17.4893   4.3303  22.6767   N.2       1 RES1   0.0000
    24 C10     16.3461   4.8340  24.5579   C.2       1 RES1   0.0000
    25 H9      15.9185   5.3207  25.2250   H         1 RES1   0.0000
    26 C11     16.4828   3.4766  24.4963   C.2       1 RES1   0.0000
    27 H10     16.1629   2.8563  25.1113   H         1 RES1   0.0000
    28 C12     17.2012   3.2011  23.3177   C.2       1 RES1   0.0000
    29 C13     17.6382   1.8742  22.7837   C.3       1 RES1   0.0000
    30 H11     16.9211   1.4791  22.2814   H         1 RES1   0.0000
    31 H12     17.8745   1.2973  23.5128   H         1 RES1   0.0000
    32 H13     18.4003   1.9947  22.2128   H         1 RES1   0.0000
    33 N6      16.0213   4.5849  20.0083   N.2       1 RES1   0.0000
    34 N7      15.9302   3.3855  19.3400   N.pl3     1 RES1   0.0000
    35 C14     14.4577   6.2192  20.9591   C.3       1 RES1   0.0000
    36 H14     14.6400   6.1177  21.8954   H         1 RES1   0.0000
    37 H15     13.5310   6.4374  20.8369   H         1 RES1   0.0000
    38 H16     15.0038   6.9235  20.6001   H         1 RES1   0.0000
    39 C15     14.7649   4.9463  20.2532   C.2       1 RES1   0.0000
    40 C16     13.8653   3.9747  19.7554   C.2       1 RES1   0.0000
    41 H17     12.9359   3.9905  19.8091   H         1 RES1   0.0000
    42 C17     14.6408   3.0084  19.1797   C.2       1 RES1   0.0000
    43 H18     14.3394   2.2367  18.7577   H         1 RES1   0.0000
    44 C18     17.1086   2.7219  18.9876   C.ar      1 RES1   0.0000
    45 N8      18.1929   3.2409  19.5659   N.ar      1 RES1   0.0000
    46 C19     17.1523   1.6224  18.1484   C.ar      1 RES1   0.0000
    47 H19     16.3893   1.2973  17.7276   H         1 RES1   0.0000
    48 C20     18.3906   1.0308  17.9653   C.ar      1 RES1   0.0000
    49 H20     18.4634   0.2901  17.4079   H         1 RES1   0.0000
    50 C21     19.5230   1.5191  18.5945   C.ar      1 RES1   0.0000
    51 H21     20.3498   1.1079  18.4925   H         1 RES1   0.0000
    52 C22     19.3693   2.6468  19.3838   C.ar      1 RES1   0.0000
    53 N9      20.4198   3.2813  20.0637   N.pl3     1 RES1   0.0000
    54 N10     20.1439   4.4124  20.7917   N.2       1 RES1   0.0000
    55 C23     21.7478   3.0010  20.0881   C.2       1 RES1   0.0000
    56 H22     22.1692   2.2848  19.6718   H         1 RES1   0.0000
    57 C24     22.3458   3.9684  20.8404   C.2       1 RES1   0.0000
    58 H23     23.2525   4.0453  21.0358   H         1 RES1   0.0000
    59 C25     21.3131   4.8275  21.2608   C.2       1 RES1   0.0000
    60 C26     21.4086   6.0729  22.0792   C.3       1 RES1   0.0000
    61 H24     20.5270   6.3827  22.2933   H         1 RES1   0.0000
    62 H25     21.8715   6.7494  21.5805   H         1 RES1   0.0000
    63 H26     21.8895   5.8867  22.8900   H         1 RES1   0.0000
    64 B1      15.9800   4.5303  15.8265   B         2 RES2  -1.0000
    65 F1      17.0529   4.0074  15.0900   F         2 RES2   0.0000
    66 F2      15.3247   5.4902  15.0452   F         2 RES2   0.0000
    67 F3      15.1104   3.5041  16.1665   F         2 RES2   0.0000
    68 F4      16.4734   5.1423  16.9859   F         2 RES2   0.0000
    69 B2      10.3312   5.0536  20.9700   B         3 RES3  -1.0000
    70 F5      10.6281   5.2703  19.6112   F         3 RES3   0.0000
    71 F6       9.0767   5.5997  21.2376   F         3 RES3   0.0000
    72 F7      11.2997   5.6773  21.7460   F         3 RES3   0.0000
    73 F8      10.3307   3.6981  21.2243   F         3 RES3   0.0000
    74 O1      21.6448   2.4502  12.0418   O.3       4 RES4   0.0000
@<TRIPOS>BOND
     1     1     2    1
     2     2     3    1
     3     3    11    1
     4     4     5    1
     5     6     4    1
     6     7     4    1
     7     8     2    2
     8     9     8    1
     9    10     9    1
    10    11     9    2
    11    12    11    1
    12    13     1    1
    13    14     3    1
    14    15    14   ar
    15    16    15    1
    16    17    15   ar
    17    18    17    1
    18    19    17   ar
    19    20    19    1
    20    21    13   ar
    21    22    21    1
    22    23     1    1
    23    24    22    1
    24    25    24    1
    25    26    24    2
    26    27    26    1
    27    28    23    2
    28    29    28    1
    29    30    29    1
    30    31    29    1
    31    32    29    1
    32    33     1    1
    33    34    33    1
    34    35    36    1
    35    37    35    1
    36    38    35    1
    37    39    33    2
    38    40    39    1
    39    41    40    1
    40    42    34    1
    41    43    42    1
    42    44    34    1
    43    45     1    1
    44    46    44   ar
    45    47    46    1
    46    48    46   ar
    47    49    48    1
    48    50    48   ar
    49    51    50    1
    50    52    45   ar
    51    53    52    1
    52    54     1    1
    53    55    53    1
    54    56    55    1
    55    57    55    2
    56    58    57    1
    57    59    54    2
    58    60    59    1
    59    61    60    1
    60    62    60    1
    61    63    60    1
    62     4     8    1
    63    13    14   ar
    64    19    21   ar
    65    22    23    1
    66    26    28    1
    67    35    39    1
    68    40    42    2
    69    44    45   ar
    70    50    52   ar
    71    53    54    1
    72    57    59    1
    73    64    65    1
    74    66    64    1
    75    67    64    1
    76    68    64    1
    77    69    70    1
    78    71    69    1
    79    72    69    1
    80    73    69    1
@<TRIPOS>SUBSTRUCTURE
     1 RES1        1 GROUP             0 ****  ****    0  
     2 RES2       64 GROUP             0 ****  ****    0  
     3 RES3       69 GROUP             0 ****  ****    0  
     4 RES4       74 GROUP             0 ****  ****    0  
@<TRIPOS>CRYSIN
   23.0780   10.9480   23.7970   90.0000   95.6600   90.0000    15     1
