@<TRIPOS>MOLECULE
AFANIF04
    74    80     4     0     0
SMALL
USER_CHARGES
****
Generated from the CSD

@<TRIPOS>ATOM
     1 Fe1     18.0495   5.0373  20.6771   Fe        1 RES1   2.0000
     2 N1      18.6866   6.7250  19.4698   N.2       1 RES1   0.0000
     3 N2      18.6227   7.9235  20.1240   N.pl3     1 RES1   0.0000
     4 C1      19.5695   5.9224  17.3087   C.3       1 RES1   0.0000
     5 H1      19.8669   5.1307  17.7618   H         1 RES1   0.0000
     6 H2      20.2508   6.2187  16.6990   H         1 RES1   0.0000
     7 H3      18.7653   5.7288  16.8197   H         1 RES1   0.0000
     8 C2      19.2981   6.9940  18.3078   C.2       1 RES1   0.0000
     9 C3      19.6165   8.3609  18.2267   C.2       1 RES1   0.0000
    10 H4      20.0408   8.7961  17.5227   H         1 RES1   0.0000
    11 C4      19.1785   8.9197  19.3884   C.2       1 RES1   0.0000
    12 H5      19.2470   9.8142  19.6317   H         1 RES1   0.0000
    13 N3      17.7382   6.7633  21.8699   N.ar      1 RES1   0.0000
    14 C5      18.0396   7.9705  21.3972   C.ar      1 RES1   0.0000
    15 C6      17.8063   9.1329  22.0988   C.ar      1 RES1   0.0000
    16 H6      18.0405   9.9651  21.7549   H         1 RES1   0.0000
    17 C7      17.2074   9.0028  23.3372   C.ar      1 RES1   0.0000
    18 H7      17.0264   9.7660  23.8378   H         1 RES1   0.0000
    19 C8      16.8678   7.7573  23.8544   C.ar      1 RES1   0.0000
    20 H8      16.4564   7.6687  24.6828   H         1 RES1   0.0000
    21 C9      17.1728   6.6616  23.0771   C.ar      1 RES1   0.0000
    22 N4      16.9480   5.3275  23.4527   N.pl3     1 RES1   0.0000
    23 N5      17.4697   4.3182  22.6716   N.2       1 RES1   0.0000
    24 C10     16.3382   4.8158  24.5659   C.2       1 RES1   0.0000
    25 H9      15.9146   5.2969  25.2390   H         1 RES1   0.0000
    26 C11     16.4753   3.4555  24.4927   C.2       1 RES1   0.0000
    27 H10     16.1609   2.8322  25.1065   H         1 RES1   0.0000
    28 C12     17.1859   3.1832  23.3055   C.2       1 RES1   0.0000
    29 C13     17.6317   1.8590  22.7613   C.3       1 RES1   0.0000
    30 H11     16.9134   1.4587  22.2661   H         1 RES1   0.0000
    31 H12     17.8810   1.2827  23.4875   H         1 RES1   0.0000
    32 H13     18.3855   1.9891  22.1833   H         1 RES1   0.0000
    33 N6      16.0280   4.5719  20.0026   N.2       1 RES1   0.0000
    34 N7      15.9430   3.3756  19.3311   N.pl3     1 RES1   0.0000
    35 C14     14.4445   6.2012  20.9499   C.3       1 RES1   0.0000
    36 H14     14.6376   6.0995  21.8850   H         1 RES1   0.0000
    37 H15     13.5124   6.4035  20.8365   H         1 RES1   0.0000
    38 H16     14.9739   6.9164  20.5903   H         1 RES1   0.0000
    39 C15     14.7697   4.9306  20.2320   C.2       1 RES1   0.0000
    40 C16     13.8738   3.9628  19.7242   C.2       1 RES1   0.0000
    41 H17     12.9444   3.9771  19.7690   H         1 RES1   0.0000
    42 C17     14.6589   2.9995  19.1521   C.2       1 RES1   0.0000
    43 H18     14.3628   2.2307  18.7204   H         1 RES1   0.0000
    44 C18     17.1284   2.7141  18.9850   C.ar      1 RES1   0.0000
    45 N8      18.2059   3.2411  19.5690   N.ar      1 RES1   0.0000
    46 C19     17.1729   1.6140  18.1464   C.ar      1 RES1   0.0000
    47 H19     16.4088   1.2805  17.7334   H         1 RES1   0.0000
    48 C20     18.4231   1.0345  17.9568   C.ar      1 RES1   0.0000
    49 H20     18.5031   0.3007  17.3902   H         1 RES1   0.0000
    50 C21     19.5458   1.5243  18.5905   C.ar      1 RES1   0.0000
    51 H21     20.3752   1.1143  18.4932   H         1 RES1   0.0000
    52 C22     19.3869   2.6539  19.3820   C.ar      1 RES1   0.0000
    53 N9      20.4254   3.2958  20.0656   N.pl3     1 RES1   0.0000
    54 N10     20.1431   4.4177  20.7969   N.2       1 RES1   0.0000
    55 C23     21.7623   3.0246  20.0826   C.2       1 RES1   0.0000
    56 H22     22.1912   2.3128  19.6648   H         1 RES1   0.0000
    57 C24     22.3464   4.0022  20.8339   C.2       1 RES1   0.0000
    58 H23     23.2533   4.0897  21.0258   H         1 RES1   0.0000
    59 C25     21.3161   4.8497  21.2606   C.2       1 RES1   0.0000
    60 C26     21.3916   6.0886  22.0798   C.3       1 RES1   0.0000
    61 H24     20.5050   6.3773  22.3064   H         1 RES1   0.0000
    62 H25     21.8360   6.7764  21.5797   H         1 RES1   0.0000
    63 H26     21.8843   5.9104  22.8839   H         1 RES1   0.0000
    64 B1      16.0088   4.5216  15.8280   B         2 RES2  -1.0000
    65 F1      17.1080   4.0135  15.1056   F         2 RES2   0.0000
    66 F2      15.3630   5.4773  15.0289   F         2 RES2   0.0000
    67 F3      15.1470   3.4836  16.1387   F         2 RES2   0.0000
    68 F4      16.4697   5.1353  16.9909   F         2 RES2   0.0000
    69 B2      10.3285   5.0257  20.9217   B         3 RES3  -1.0000
    70 F5      10.5806   5.2732  19.5815   F         3 RES3   0.0000
    71 F6       9.0645   5.5670  21.2180   F         3 RES3   0.0000
    72 F7      11.3001   5.6293  21.6933   F         3 RES3   0.0000
    73 F8      10.3299   3.6873  21.1529   F         3 RES3   0.0000
    74 O1      21.7263   2.4123  12.0242   O.3       4 RES4   0.0000
@<TRIPOS>BOND
     1     1     2    1
     2     2     3    1
     3     3    11    1
     4     4     5    1
     5     6     4    1
     6     7     4    1
     7     8     2    2
     8     9     8    1
     9    10     9    1
    10    11     9    2
    11    12    11    1
    12    13     1    1
    13    14     3    1
    14    15    14   ar
    15    16    15    1
    16    17    15   ar
    17    18    17    1
    18    19    17   ar
    19    20    19    1
    20    21    13   ar
    21    22    21    1
    22    23     1    1
    23    24    22    1
    24    25    24    1
    25    26    24    2
    26    27    26    1
    27    28    23    2
    28    29    28    1
    29    30    29    1
    30    31    29    1
    31    32    29    1
    32    33     1    1
    33    34    33    1
    34    35    36    1
    35    37    35    1
    36    38    35    1
    37    39    33    2
    38    40    39    1
    39    41    40    1
    40    42    34    1
    41    43    42    1
    42    44    34    1
    43    45     1    1
    44    46    44   ar
    45    47    46    1
    46    48    46   ar
    47    49    48    1
    48    50    48   ar
    49    51    50    1
    50    52    45   ar
    51    53    52    1
    52    54     1    1
    53    55    53    1
    54    56    55    1
    55    57    55    2
    56    58    57    1
    57    59    54    2
    58    60    59    1
    59    61    60    1
    60    62    60    1
    61    63    60    1
    62     4     8    1
    63    13    14   ar
    64    19    21   ar
    65    22    23    1
    66    26    28    1
    67    35    39    1
    68    40    42    2
    69    44    45   ar
    70    50    52   ar
    71    53    54    1
    72    57    59    1
    73    64    65    1
    74    66    64    1
    75    67    64    1
    76    68    64    1
    77    69    70    1
    78    71    69    1
    79    72    69    1
    80    73    69    1
@<TRIPOS>SUBSTRUCTURE
     1 RES1        1 GROUP             0 ****  ****    0  
     2 RES2       64 GROUP             0 ****  ****    0  
     3 RES3       69 GROUP             0 ****  ****    0  
     4 RES4       74 GROUP             0 ****  ****    0  
@<TRIPOS>CRYSIN
   23.2290   10.9350   23.8010   90.0000   96.0200   90.0000    15     1
