@<TRIPOS>MOLECULE
AFOLUG01
    83    88     3     0     0
SMALL
USER_CHARGES
****
Generated from the CSD

@<TRIPOS>ATOM
     1 I1       9.3127   7.3417  14.9695   I         1 RES1  -1.0000
     2 Fe1      6.9469   3.6251  16.7526   Fe        2 RES2   1.0000
     3 O1       6.4644   1.9857  15.9642   O.3       2 RES2   0.0000
     4 O2       5.6192   3.5148  18.0927   O.3       2 RES2   0.0000
     5 N1       5.6858   4.6063  15.6784   N.2       2 RES2   0.0000
     6 N2       7.4301   5.4866  17.4809   N.3       2 RES2   0.0000
     7 H1       8.1263   5.8649  16.8715   H         2 RES2   0.0000
     8 N3       8.2032   2.6333  17.8232   N.2       2 RES2   0.0000
     9 N4       8.5195   3.8348  15.4512   N.3       2 RES2   0.0000
    10 H2       8.5450   4.7956  15.1739   H         2 RES2   0.0000
    11 C1       5.5494   1.7719  15.0457   C.ar      2 RES2   0.0000
    12 C2       5.4494   0.4224  14.5696   C.ar      2 RES2   0.0000
    13 H3       5.9901  -0.2502  14.9673   H         2 RES2   0.0000
    14 C3       4.6046   0.0835  13.5680   C.ar      2 RES2   0.0000
    15 H4       4.5811  -0.8163  13.2656   H         2 RES2   0.0000
    16 C4       3.7567   1.0384  12.9638   C.ar      2 RES2   0.0000
    17 C5       2.8878   0.6906  11.8917   C.ar      2 RES2   0.0000
    18 H5       2.8929  -0.2016  11.5650   H         2 RES2   0.0000
    19 C6       2.0485   1.5974  11.3228   C.ar      2 RES2   0.0000
    20 H6       1.4880   1.3470  10.5993   H         2 RES2   0.0000
    21 C7       2.0227   2.8976  11.8165   C.ar      2 RES2   0.0000
    22 H7       1.4244   3.5297  11.4361   H         2 RES2   0.0000
    23 C8       2.8487   3.2846  12.8439   C.ar      2 RES2   0.0000
    24 H8       2.8036   4.1775  13.1665   H         2 RES2   0.0000
    25 C9       3.7675   2.3790  13.4350   C.ar      2 RES2   0.0000
    26 C10      4.7115   2.7496  14.4723   C.ar      2 RES2   0.0000
    27 C11      4.8380   4.1295  14.8386   C.2       2 RES2   0.0000
    28 H9       4.2432   4.7444  14.4252   H         2 RES2   0.0000
    29 C12      5.7032   6.0671  15.8930   C.3       2 RES2   0.0000
    30 H10      4.7932   6.4405  15.7843   H         2 RES2   0.0000
    31 H11      6.3027   6.5026  15.2362   H         2 RES2   0.0000
    32 C13      6.2039   6.3087  17.2987   C.3       2 RES2   0.0000
    33 H12      6.4127   7.2675  17.4281   H         2 RES2   0.0000
    34 H13      5.5140   6.0452  17.9581   H         2 RES2   0.0000
    35 C14      7.9847   5.5384  18.8535   C.3       2 RES2   0.0000
    36 H14      8.7970   4.9741  18.8859   H         2 RES2   0.0000
    37 H15      7.3226   5.1446  19.4754   H         2 RES2   0.0000
    38 C15      8.3430   6.9284  19.3493   C.3       2 RES2   0.0000
    39 H16      7.5179   7.4393  19.5448   H         2 RES2   0.0000
    40 H17      8.8502   7.4140  18.6504   H         2 RES2   0.0000
    41 C16      9.1921   6.8019  20.6166   C.3       2 RES2   0.0000
    42 H18      8.7411   6.2102  21.2545   H         2 RES2   0.0000
    43 H19      9.3104   7.6874  21.0206   H         2 RES2   0.0000
    44 H20     10.0685   6.4281  20.3877   H         2 RES2   0.0000
    45 C17      5.7097   2.9494  19.2767   C.ar      2 RES2   0.0000
    46 C18      4.5526   3.0734  20.1087   C.ar      2 RES2   0.0000
    47 H21      3.7797   3.5062  19.7672   H         2 RES2   0.0000
    48 C19      4.5340   2.5902  21.3712   C.ar      2 RES2   0.0000
    49 H22      3.7582   2.7209  21.9053   H         2 RES2   0.0000
    50 C20      5.6430   1.8883  21.9237   C.ar      2 RES2   0.0000
    51 C21      5.6019   1.3685  23.2192   C.ar      2 RES2   0.0000
    52 H23      4.8323   1.5212  23.7553   H         2 RES2   0.0000
    53 C22      6.6451   0.6412  23.7411   C.ar      2 RES2   0.0000
    54 H24      6.6013   0.2845  24.6217   H         2 RES2   0.0000
    55 C23      7.7776   0.4414  22.9347   C.ar      2 RES2   0.0000
    56 H25      8.5029  -0.0679  23.2765   H         2 RES2   0.0000
    57 C24      7.8655   0.9587  21.6745   C.ar      2 RES2   0.0000
    58 H26      8.6534   0.8119  21.1652   H         2 RES2   0.0000
    59 C25      6.8049   1.7087  21.1112   C.ar      2 RES2   0.0000
    60 C26      6.8298   2.2728  19.7737   C.ar      2 RES2   0.0000
    61 C27      8.0252   2.1476  18.9896   C.2       2 RES2   0.0000
    62 H27      8.7455   1.6611  19.3718   H         2 RES2   0.0000
    63 C28      9.4874   2.3816  17.1412   C.3       2 RES2   0.0000
    64 H28      9.4334   1.5521  16.6026   H         2 RES2   0.0000
    65 H29     10.2149   2.2791  17.8046   H         2 RES2   0.0000
    66 C29      9.7555   3.5755  16.2445   C.3       2 RES2   0.0000
    67 H30      9.9830   4.3682  16.7915   H         2 RES2   0.0000
    68 H31     10.5152   3.3834  15.6392   H         2 RES2   0.0000
    69 C30      8.4807   3.0177  14.2012   C.3       2 RES2   0.0000
    70 H32      7.5926   3.1280  13.7768   H         2 RES2   0.0000
    71 H33      8.5813   2.0630  14.4420   H         2 RES2   0.0000
    72 C31      9.5623   3.3858  13.1811   C.3       2 RES2   0.0000
    73 H34      9.5088   4.3524  12.9749   H         2 RES2   0.0000
    74 H35     10.4563   3.2025  13.5658   H         2 RES2   0.0000
    75 C32      9.3843   2.5763  11.8941   C.3       2 RES2   0.0000
    76 H36      9.5137   1.6243  12.0851   H         2 RES2   0.0000
    77 H37     10.0428   2.8690  11.2295   H         2 RES2   0.0000
    78 H38      8.4803   2.7185  11.5411   H         2 RES2   0.0000
    79 Cl1      1.2896   4.8257  18.9995   Cl        3 RES3   0.0000
    80 Cl2      1.8656   4.9858  16.1458   Cl        3 RES3   0.0000
    81 C33      2.4833   5.2855  17.7859   C.3       3 RES3   0.0000
    82 H39      3.3137   4.7661  17.9274   H         3 RES3   0.0000
    83 H40      2.7015   6.2464  17.8869   H         3 RES3   0.0000
@<TRIPOS>BOND
     1     2     3    1
     2     3    11    1
     3     4     2    1
     4     5     2    1
     5     6     2    1
     6     7     6    1
     7     8     2    1
     8     9     2    1
     9    10     9    1
    10    11    12   ar
    11    12    13    1
    12    14    12   ar
    13    15    14    1
    14    16    14   ar
    15    17    16   ar
    16    18    17    1
    17    19    17   ar
    18    20    19    1
    19    21    19   ar
    20    22    21    1
    21    23    21   ar
    22    24    23    1
    23    25    16   ar
    24    26    11   ar
    25    27     5    2
    26    28    27    1
    27    29     5    1
    28    30    29    1
    29    31    29    1
    30    32     6    1
    31    33    32    1
    32    34    32    1
    33    35     6    1
    34    36    35    1
    35    37    35    1
    36    38    35    1
    37    39    38    1
    38    40    38    1
    39    41    38    1
    40    42    41    1
    41    43    41    1
    42    44    41    1
    43    45     4    1
    44    46    45   ar
    45    47    46    1
    46    48    46   ar
    47    49    48    1
    48    50    48   ar
    49    51    50   ar
    50    52    51    1
    51    53    51   ar
    52    54    53    1
    53    55    53   ar
    54    56    55    1
    55    57    55   ar
    56    58    57    1
    57    59    50   ar
    58    60    45   ar
    59    61     8    2
    60    62    61    1
    61    63     8    1
    62    64    63    1
    63    65    63    1
    64    66     9    1
    65    67    66    1
    66    68    66    1
    67    69     9    1
    68    70    69    1
    69    71    69    1
    70    72    69    1
    71    73    72    1
    72    74    72    1
    73    75    72    1
    74    76    75    1
    75    77    75    1
    76    78    75    1
    77    23    25   ar
    78    25    26   ar
    79    26    27    1
    80    29    32    1
    81    57    59   ar
    82    59    60   ar
    83    60    61    1
    84    63    66    1
    85    79    81    1
    86    80    81    1
    87    81    82    1
    88    83    81    1
@<TRIPOS>SUBSTRUCTURE
     1 RES1        1 GROUP             0 ****  ****    0  
     2 RES2        2 GROUP             0 ****  ****    0  
     3 RES3       79 GROUP             0 ****  ****    0  
@<TRIPOS>CRYSIN
   11.1702   12.6477   23.5283   90.0000   92.2150   90.0000    14     1
