@<TRIPOS>MOLECULE
AFOMAN02
    83    88     3     0     0
SMALL
USER_CHARGES
****
Generated from the CSD

@<TRIPOS>ATOM
     1 I1       0.5451  13.7013   8.4694   I         1 RES1  -1.0000
     2 Fe1      3.2350  10.1488   6.8142   Fe        2 RES2   1.0000
     3 O1       3.7740   8.5570   7.6734   O.3       2 RES2   0.0000
     4 O2       4.5815  10.0719   5.4812   O.3       2 RES2   0.0000
     5 N1       4.4369  11.2081   7.9023   N.2       2 RES2   0.0000
     6 N2       2.6935  11.9942   6.0427   N.3       2 RES2   0.0000
     7 H1       1.9610  12.3495   6.6239   H         2 RES2   0.0000
     8 N3       2.0443   9.0698   5.7437   N.2       2 RES2   0.0000
     9 N4       1.6014  10.2958   8.0929   N.3       2 RES2   0.0000
    10 H2       1.4915  11.2633   8.3208   H         2 RES2   0.0000
    11 C1       4.6832   8.3865   8.5857   C.ar      2 RES2   0.0000
    12 C2       4.8378   7.0343   9.0855   C.ar      2 RES2   0.0000
    13 H3       4.3211   6.3345   8.7041   H         2 RES2   0.0000
    14 C3       5.7041   6.7545  10.0805   C.ar      2 RES2   0.0000
    15 H4       5.7786   5.8572  10.3821   H         2 RES2   0.0000
    16 C4       6.5053   7.7488  10.6901   C.ar      2 RES2   0.0000
    17 C5       7.3776   7.4417  11.7528   C.ar      2 RES2   0.0000
    18 H5       7.4146   6.5476  12.0732   H         2 RES2   0.0000
    19 C6       8.1659   8.3774  12.3321   C.ar      2 RES2   0.0000
    20 H6       8.7351   8.1432  13.0557   H         2 RES2   0.0000
    21 C7       8.1328   9.6958  11.8556   C.ar      2 RES2   0.0000
    22 H7       8.7029  10.3535  12.2373   H         2 RES2   0.0000
    23 C8       7.2699  10.0394  10.8256   C.ar      2 RES2   0.0000
    24 H8       7.2490  10.9389  10.5222   H         2 RES2   0.0000
    25 C9       6.4184   9.0906  10.2183   C.ar      2 RES2   0.0000
    26 C10      5.4689   9.4147   9.1720   C.ar      2 RES2   0.0000
    27 C11      5.2934  10.7890   8.7843   C.2       2 RES2   0.0000
    28 H9       5.8466  11.4376   9.2021   H         2 RES2   0.0000
    29 C12      4.3559  12.6566   7.6561   C.3       2 RES2   0.0000
    30 H10      5.2478  13.0705   7.7734   H         2 RES2   0.0000
    31 H11      3.7301  13.0757   8.2977   H         2 RES2   0.0000
    32 C13      3.8686  12.8726   6.2408   C.3       2 RES2   0.0000
    33 H12      3.6142  13.8202   6.1062   H         2 RES2   0.0000
    34 H13      4.5810  12.6433   5.5929   H         2 RES2   0.0000
    35 C14      2.1822  12.0033   4.6455   C.3       2 RES2   0.0000
    36 H14      1.3990  11.4009   4.5908   H         2 RES2   0.0000
    37 H15      2.8835  11.6387   4.0499   H         2 RES2   0.0000
    38 C15      1.7766  13.3763   4.1364   C.3       2 RES2   0.0000
    39 H16      2.5846  13.9284   3.9871   H         2 RES2   0.0000
    40 H17      1.2129  13.8294   4.8113   H         2 RES2   0.0000
    41 C16      1.0000  13.2410   2.8261   C.3       2 RES2   0.0000
    42 H18      1.5690  12.8174   2.1509   H         2 RES2   0.0000
    43 H19      0.7289  14.1301   2.5144   H         2 RES2   0.0000
    44 H20      0.2029  12.6905   2.9747   H         2 RES2   0.0000
    45 C17      4.5143   9.5305   4.2788   C.ar      2 RES2   0.0000
    46 C18      5.6402   9.7596   3.4380   C.ar      2 RES2   0.0000
    47 H21      6.3631  10.2846   3.7596   H         2 RES2   0.0000
    48 C19      5.7016   9.2429   2.1838   C.ar      2 RES2   0.0000
    49 H22      6.4716   9.4066   1.6520   H         2 RES2   0.0000
    50 C20      4.6385   8.4607   1.6443   C.ar      2 RES2   0.0000
    51 C21      4.7212   7.9232   0.3433   C.ar      2 RES2   0.0000
    52 H23      5.5003   8.0769  -0.1786   H         2 RES2   0.0000
    53 C22      3.6991   7.1840  -0.1775   C.ar      2 RES2   0.0000
    54 H24      3.7622   6.8311  -1.0570   H         2 RES2   0.0000
    55 C23      2.5582   6.9536   0.5956   C.ar      2 RES2   0.0000
    56 H25      1.8493   6.4362   0.2317   H         2 RES2   0.0000
    57 C24      2.4398   7.4573   1.8685   C.ar      2 RES2   0.0000
    58 H26      1.6496   7.2923   2.3686   H         2 RES2   0.0000
    59 C25      3.4905   8.2213   2.4407   C.ar      2 RES2   0.0000
    60 C26      3.4349   8.7835   3.7814   C.ar      2 RES2   0.0000
    61 C27      2.2544   8.5700   4.5685   C.2       2 RES2   0.0000
    62 H27      1.5750   8.0194   4.1995   H         2 RES2   0.0000
    63 C28      0.7923   8.7119   6.4393   C.3       2 RES2   0.0000
    64 H28      0.9281   7.9131   7.0078   H         2 RES2   0.0000
    65 H29      0.0764   8.5153   5.7833   H         2 RES2   0.0000
    66 C29      0.4226   9.9001   7.2801   C.3       2 RES2   0.0000
    67 H30      0.1453  10.6524   6.6992   H         2 RES2   0.0000
    68 H31     -0.3353   9.6706   7.8746   H         2 RES2   0.0000
    69 C30      1.6732   9.5448   9.3822   C.3       2 RES2   0.0000
    70 H32      2.5434   9.7343   9.8128   H         2 RES2   0.0000
    71 H33      1.6377   8.5750   9.1875   H         2 RES2   0.0000
    72 C31      0.5570   9.8910  10.3561   C.3       2 RES2   0.0000
    73 H34      0.5716  10.8635  10.5407   H         2 RES2   0.0000
    74 H35     -0.3170   9.6700   9.9473   H         2 RES2   0.0000
    75 C32      0.7110   9.1284  11.6594   C.3       2 RES2   0.0000
    76 H36      0.4845   8.1856  11.5158   H         2 RES2   0.0000
    77 H37      0.1110   9.5090  12.3344   H         2 RES2   0.0000
    78 H38      1.6380   9.1969  11.9712   H         2 RES2   0.0000
    79 Cl1      8.4766  11.0022   7.8054   Cl        3 RES3   0.0000
    80 Cl2      8.7968   9.8304   5.1823   Cl        3 RES3   0.0000
    81 Cl3      7.5265  12.4117   5.4822   Cl        3 RES3   0.0000
    82 C33      7.7724  10.8320   6.2081   C.3       3 RES3   0.0000
    83 H39      6.8836  10.3839   6.2999   H         3 RES3   0.0000
@<TRIPOS>BOND
     1     2     3    1
     2     3    11    1
     3     4     2    1
     4     5     2    1
     5     6     2    1
     6     7     6    1
     7     8     2    1
     8     9     2    1
     9    10     9    1
    10    11    12   ar
    11    12    13    1
    12    14    12   ar
    13    15    14    1
    14    16    14   ar
    15    17    16   ar
    16    18    17    1
    17    19    17   ar
    18    20    19    1
    19    21    19   ar
    20    22    21    1
    21    23    21   ar
    22    24    23    1
    23    25    16   ar
    24    26    11   ar
    25    27     5    2
    26    28    27    1
    27    29     5    1
    28    30    29    1
    29    31    29    1
    30    32     6    1
    31    33    32    1
    32    34    32    1
    33    35     6    1
    34    36    35    1
    35    37    35    1
    36    38    35    1
    37    39    38    1
    38    40    38    1
    39    41    38    1
    40    42    41    1
    41    43    41    1
    42    44    41    1
    43    45     4    1
    44    46    45   ar
    45    47    46    1
    46    48    46   ar
    47    49    48    1
    48    50    48   ar
    49    51    50   ar
    50    52    51    1
    51    53    51   ar
    52    54    53    1
    53    55    53   ar
    54    56    55    1
    55    57    55   ar
    56    58    57    1
    57    59    50   ar
    58    60    45   ar
    59    61     8    2
    60    62    61    1
    61    63     8    1
    62    64    63    1
    63    65    63    1
    64    66     9    1
    65    67    66    1
    66    68    66    1
    67    69     9    1
    68    70    69    1
    69    71    69    1
    70    72    69    1
    71    73    72    1
    72    74    72    1
    73    75    72    1
    74    76    75    1
    75    77    75    1
    76    78    75    1
    77    23    25   ar
    78    25    26   ar
    79    26    27    1
    80    29    32    1
    81    57    59   ar
    82    59    60   ar
    83    60    61    1
    84    63    66    1
    85    79    82    1
    86    80    82    1
    87    81    82    1
    88    82    83    1
@<TRIPOS>SUBSTRUCTURE
     1 RES1        1 GROUP             0 ****  ****    0  
     2 RES2        2 GROUP             0 ****  ****    0  
     3 RES3       79 GROUP             0 ****  ****    0  
@<TRIPOS>CRYSIN
   11.3886   13.0145   23.4046   90.0000   93.6869   90.0000    14     1
