@<TRIPOS>MOLECULE
AFOMAN
    83    88     3     0     0
SMALL
USER_CHARGES
****
Generated from the CSD

@<TRIPOS>ATOM
     1 I1       9.2661  -0.6888  14.8644   I         1 RES1  -1.0000
     2 Fe1      6.5805   2.8655  16.5149   Fe        2 RES2   1.0000
     3 O1       6.0517   4.4594  15.6684   O.3       2 RES2   0.0000
     4 O2       5.2203   2.9356  17.8329   O.3       2 RES2   0.0000
     5 N1       5.3892   1.8126  15.4278   N.2       2 RES2   0.0000
     6 N2       7.1307   1.0423  17.2858   N.3       2 RES2   0.0000
     7 H1       7.8627   0.6873  16.7046   H         2 RES2   0.0000
     8 N3       7.7517   3.9428  17.5855   N.2       2 RES2   0.0000
     9 N4       8.2003   2.7183  15.2482   N.3       2 RES2   0.0000
    10 H2       8.3081   1.7512  15.0208   H         2 RES2   0.0000
    11 C1       5.1414   4.6377  14.7440   C.ar      2 RES2   0.0000
    12 C2       4.9907   5.9728  14.2541   C.ar      2 RES2   0.0000
    13 H3       5.5103   6.6674  14.6408   H         2 RES2   0.0000
    14 C3       4.1330   6.2720  13.2591   C.ar      2 RES2   0.0000
    15 H4       4.0646   7.1724  12.9617   H         2 RES2   0.0000
    16 C4       3.3223   5.2714  12.6399   C.ar      2 RES2   0.0000
    17 C5       2.4591   5.6032  11.5757   C.ar      2 RES2   0.0000
    18 H5       2.4295   6.4963  11.2522   H         2 RES2   0.0000
    19 C6       1.6577   4.6403  11.0053   C.ar      2 RES2   0.0000
    20 H6       1.0724   4.8715  10.2937   H         2 RES2   0.0000
    21 C7       1.7045   3.3312  11.4679   C.ar      2 RES2   0.0000
    22 H7       1.1456   2.6727  11.0732   H         2 RES2   0.0000
    23 C8       2.5575   2.9799  12.4984   C.ar      2 RES2   0.0000
    24 H8       2.5764   2.0788  12.8001   H         2 RES2   0.0000
    25 C9       3.4070   3.9376  13.1150   C.ar      2 RES2   0.0000
    26 C10      4.3555   3.6084  14.1625   C.ar      2 RES2   0.0000
    27 C11      4.5310   2.2382  14.5575   C.2       2 RES2   0.0000
    28 H9       3.9701   1.5904  14.1458   H         2 RES2   0.0000
    29 C12      5.4631   0.3591  15.6780   C.3       2 RES2   0.0000
    30 H10      6.0891  -0.0635  15.0383   H         2 RES2   0.0000
    31 H11      4.5700  -0.0511  15.5591   H         2 RES2   0.0000
    32 C13      5.9474   0.1470  17.0955   C.3       2 RES2   0.0000
    33 H12      5.2334   0.3775  17.7416   H         2 RES2   0.0000
    34 H13      6.2049  -0.7987  17.2335   H         2 RES2   0.0000
    35 C14      7.6385   1.0202  18.6929   C.3       2 RES2   0.0000
    36 H14      6.9399   1.3955  19.2861   H         2 RES2   0.0000
    37 H15      8.4297   1.6114  18.7521   H         2 RES2   0.0000
    38 C15      8.0218  -0.3526  19.2076   C.3       2 RES2   0.0000
    39 H16      8.5779  -0.8171  18.5328   H         2 RES2   0.0000
    40 H17      7.2044  -0.8921  19.3563   H         2 RES2   0.0000
    41 C16      8.7970  -0.2303  20.5116   C.3       2 RES2   0.0000
    42 H18      9.6382   0.2442  20.3479   H         2 RES2   0.0000
    43 H19      8.9889  -1.1249  20.8627   H         2 RES2   0.0000
    44 H20      8.2617   0.2685  21.1638   H         2 RES2   0.0000
    45 C17      5.2796   3.4783  19.0285   C.ar      2 RES2   0.0000
    46 C18      4.1572   3.2427  19.8766   C.ar      2 RES2   0.0000
    47 H21      3.4393   2.7121  19.5524   H         2 RES2   0.0000
    48 C19      4.0816   3.7541  21.1326   C.ar      2 RES2   0.0000
    49 H22      3.3140   3.5782  21.6633   H         2 RES2   0.0000
    50 C20      5.1401   4.5518  21.6691   C.ar      2 RES2   0.0000
    51 C21      5.0485   5.0814  22.9762   C.ar      2 RES2   0.0000
    52 H23      4.2702   4.9189  23.4965   H         2 RES2   0.0000
    53 C22      6.0715   5.8296  23.4997   C.ar      2 RES2   0.0000
    54 H24      6.0029   6.1896  24.3763   H         2 RES2   0.0000
    55 C23      7.2168   6.0599  22.7332   C.ar      2 RES2   0.0000
    56 H25      7.9264   6.5738  23.0993   H         2 RES2   0.0000
    57 C24      7.3383   5.5538  21.4537   C.ar      2 RES2   0.0000
    58 H26      8.1312   5.7161  20.9567   H         2 RES2   0.0000
    59 C25      6.2873   4.7912  20.8737   C.ar      2 RES2   0.0000
    60 C26      6.3559   4.2395  19.5375   C.ar      2 RES2   0.0000
    61 C27      7.5456   4.4503  18.7538   C.2       2 RES2   0.0000
    62 H27      8.2254   5.0011  19.1228   H         2 RES2   0.0000
    63 C28      9.0039   4.3046  16.9011   C.3       2 RES2   0.0000
    64 H28      9.7132   4.5047  17.5617   H         2 RES2   0.0000
    65 H29      8.8679   5.1024  16.3310   H         2 RES2   0.0000
    66 C29      9.3891   3.1139  16.0581   C.3       2 RES2   0.0000
    67 H30     10.1440   3.3494  15.4619   H         2 RES2   0.0000
    68 H31      9.6710   2.3630  16.6381   H         2 RES2   0.0000
    69 C30      8.1317   3.4691  13.9554   C.3       2 RES2   0.0000
    70 H32      8.1693   4.4396  14.1457   H         2 RES2   0.0000
    71 H33      7.2613   3.2807  13.5218   H         2 RES2   0.0000
    72 C31      9.2521   3.1126  12.9874   C.3       2 RES2   0.0000
    73 H34      9.2320   2.1391  12.8053   H         2 RES2   0.0000
    74 H35     10.1250   3.3286  13.4006   H         2 RES2   0.0000
    75 C32      9.1068   3.8803  11.6680   C.3       2 RES2   0.0000
    76 H36      9.7657   3.5492  11.0226   H         2 RES2   0.0000
    77 H37      9.2587   4.8358  11.8281   H         2 RES2   0.0000
    78 H38      8.2042   3.7490  11.3104   H         2 RES2   0.0000
    79 Cl1      7.6449   8.5207  19.4834   Cl        3 RES3   0.0000
    80 Cl2      6.6943   7.1085  17.1522   Cl        3 RES3   0.0000
    81 Cl3      7.9626   9.6977  16.8535   Cl        3 RES3   0.0000
    82 C33      6.9343   8.6950  17.8807   C.3       3 RES3   0.0000
    83 H39      6.0443   9.1413  17.9734   H         3 RES3   0.0000
@<TRIPOS>BOND
     1     2     3    1
     2     3    11    1
     3     4     2    1
     4     5     2    1
     5     6     2    1
     6     7     6    1
     7     8     2    1
     8     9     2    1
     9    10     9    1
    10    11    12   ar
    11    12    13    1
    12    14    12   ar
    13    15    14    1
    14    16    14   ar
    15    17    16   ar
    16    18    17    1
    17    19    17   ar
    18    20    19    1
    19    21    19   ar
    20    22    21    1
    21    23    21   ar
    22    24    23    1
    23    25    16   ar
    24    26    11   ar
    25    27     5    2
    26    28    27    1
    27    29     5    1
    28    30    29    1
    29    31    29    1
    30    32     6    1
    31    33    32    1
    32    34    32    1
    33    35     6    1
    34    36    35    1
    35    37    35    1
    36    38    35    1
    37    39    38    1
    38    40    38    1
    39    41    38    1
    40    42    41    1
    41    43    41    1
    42    44    41    1
    43    45     4    1
    44    46    45   ar
    45    47    46    1
    46    48    46   ar
    47    49    48    1
    48    50    48   ar
    49    51    50   ar
    50    52    51    1
    51    53    51   ar
    52    54    53    1
    53    55    53   ar
    54    56    55    1
    55    57    55   ar
    56    58    57    1
    57    59    50   ar
    58    60    45   ar
    59    61     8    2
    60    62    61    1
    61    63     8    1
    62    64    63    1
    63    65    63    1
    64    66     9    1
    65    67    66    1
    66    68    66    1
    67    69     9    1
    68    70    69    1
    69    71    69    1
    70    72    69    1
    71    73    72    1
    72    74    72    1
    73    75    72    1
    74    76    75    1
    75    77    75    1
    76    78    75    1
    77    23    25   ar
    78    25    26   ar
    79    26    27    1
    80    29    32    1
    81    57    59   ar
    82    59    60   ar
    83    60    61    1
    84    63    66    1
    85    79    82    1
    86    80    82    1
    87    81    82    1
    88    82    83    1
@<TRIPOS>SUBSTRUCTURE
     1 RES1        1 GROUP             0 ****  ****    0  
     2 RES2        2 GROUP             0 ****  ****    0  
     3 RES3       79 GROUP             0 ****  ****    0  
@<TRIPOS>CRYSIN
   11.3725   13.0126   23.3736   90.0000   93.9098   90.0000    14     1
