@<TRIPOS>MOLECULE
AFOMOB
    88    93     3     0     0
SMALL
USER_CHARGES
****
Generated from the CSD

@<TRIPOS>ATOM
     1 I1       9.7666  13.9736   8.5563   I         1 RES1  -1.0000
     2 Fe1      7.4996  10.0427   6.7635   Fe        2 RES2   1.0000
     3 O1       6.9237   8.4513   7.7082   O.3       2 RES2   0.0000
     4 O2       6.3728   9.8009   5.2252   O.3       2 RES2   0.0000
     5 N1       6.1212  11.0483   7.9497   N.2       2 RES2   0.0000
     6 N2       7.7853  12.1446   6.0479   N.3       2 RES2   0.0000
     7 H1       8.4522  12.5897   6.6460   H         2 RES2   0.0000
     8 N3       8.9750   9.0841   5.6887   N.2       2 RES2   0.0000
     9 N4       9.2294  10.3238   8.1280   N.3       2 RES2   0.0000
    10 H2       9.2383  11.2821   8.4146   H         2 RES2   0.0000
    11 C1       6.0602   8.1971   8.6560   C.ar      2 RES2   0.0000
    12 C2       6.0116   6.8622   9.1636   C.ar      2 RES2   0.0000
    13 H3       6.6003   6.2036   8.8126   H         2 RES2   0.0000
    14 C3       5.1336   6.5260  10.1418   C.ar      2 RES2   0.0000
    15 H4       5.1290   5.6324  10.4660   H         2 RES2   0.0000
    16 C4       4.2221   7.4611  10.6978   C.ar      2 RES2   0.0000
    17 C5       3.3204   7.0817  11.7226   C.ar      2 RES2   0.0000
    18 H5       3.3294   6.1890  12.0478   H         2 RES2   0.0000
    19 C6       2.4403   7.9814  12.2489   C.ar      2 RES2   0.0000
    20 H6       1.8471   7.7218  12.9444   H         2 RES2   0.0000
    21 C7       2.4193   9.2858  11.7551   C.ar      2 RES2   0.0000
    22 H7       1.8029   9.9103  12.1193   H         2 RES2   0.0000
    23 C8       3.2671   9.6855  10.7558   C.ar      2 RES2   0.0000
    24 H8       3.2150  10.5737  10.4243   H         2 RES2   0.0000
    25 C9       4.2235   8.7897  10.2088   C.ar      2 RES2   0.0000
    26 C10      5.1981   9.1691   9.1945   C.ar      2 RES2   0.0000
    27 C11      5.2746  10.5433   8.7944   C.2       2 RES2   0.0000
    28 H9       4.6472  11.1404   9.1840   H         2 RES2   0.0000
    29 C12      6.0562  12.4898   7.7241   C.3       2 RES2   0.0000
    30 H10      6.6680  12.9591   8.3457   H         2 RES2   0.0000
    31 H11      5.1362  12.8183   7.8844   H         2 RES2   0.0000
    32 C13      6.4621  12.7626   6.2920   C.3       2 RES2   0.0000
    33 H12      5.7920  12.3804   5.6722   H         2 RES2   0.0000
    34 H13      6.5116  13.7388   6.1345   H         2 RES2   0.0000
    35 C14      8.2058  12.3730   4.6302   C.3       2 RES2   0.0000
    36 H14      7.8884  13.2651   4.3407   H         2 RES2   0.0000
    37 H15      7.7709  11.6962   4.0533   H         2 RES2   0.0000
    38 C15      9.7084  12.2969   4.4329   C.3       2 RES2   0.0000
    39 H16     10.0177  11.3744   4.6170   H         2 RES2   0.0000
    40 H17     10.1556  12.9030   5.0755   H         2 RES2   0.0000
    41 C16     10.1009  12.6877   3.0122   C.3       2 RES2   0.0000
    42 H18      9.6689  12.0809   2.3754   H         2 RES2   0.0000
    43 H19     11.0743  12.6254   2.9134   H         2 RES2   0.0000
    44 H20      9.8128  13.6071   2.8348   H         2 RES2   0.0000
    45 C17      6.5532   9.2960   4.0231   C.ar      2 RES2   0.0000
    46 C18      5.4720   9.4013   3.1176   C.ar      2 RES2   0.0000
    47 H21      4.6762   9.8418   3.3914   H         2 RES2   0.0000
    48 C19      5.5524   8.8836   1.8588   C.ar      2 RES2   0.0000
    49 H22      4.8213   8.9922   1.2613   H         2 RES2   0.0000
    50 C20      6.7107   8.1857   1.4279   C.ar      2 RES2   0.0000
    51 C21      6.7530   7.6032   0.1389   C.ar      2 RES2   0.0000
    52 H23      6.0146   7.7131  -0.4486   H         2 RES2   0.0000
    53 C22      7.8406   6.8851  -0.2745   C.ar      2 RES2   0.0000
    54 H24      7.8557   6.4884  -1.1377   H         2 RES2   0.0000
    55 C23      8.9297   6.7404   0.5883   C.ar      2 RES2   0.0000
    56 H25      9.6863   6.2398   0.3050   H         2 RES2   0.0000
    57 C24      8.9278   7.3114   1.8462   C.ar      2 RES2   0.0000
    58 H26      9.6849   7.2042   2.4095   H         2 RES2   0.0000
    59 C25      7.8177   8.0537   2.3089   C.ar      2 RES2   0.0000
    60 C26      7.7463   8.6577   3.6281   C.ar      2 RES2   0.0000
    61 C27      8.8836   8.5727   4.4949   C.2       2 RES2   0.0000
    62 H27      9.6396   8.0997   4.1688   H         2 RES2   0.0000
    63 C28     10.2370   8.8886   6.4195   C.3       2 RES2   0.0000
    64 H28     10.9885   8.8079   5.7809   H         2 RES2   0.0000
    65 H29     10.1919   8.0581   6.9559   H         2 RES2   0.0000
    66 C29     10.4552  10.0801   7.3283   C.3       2 RES2   0.0000
    67 H30     11.2202   9.9048   7.9323   H         2 RES2   0.0000
    68 H31     10.6668  10.8812   6.7860   H         2 RES2   0.0000
    69 C30      9.1546   9.4812   9.3595   C.3       2 RES2   0.0000
    70 H32      9.1955   8.5295   9.0917   H         2 RES2   0.0000
    71 H33      8.2761   9.6325   9.7903   H         2 RES2   0.0000
    72 C31     10.2459   9.7413  10.3863   C.3       2 RES2   0.0000
    73 H34     10.2711  10.7054  10.6101   H         2 RES2   0.0000
    74 H35     11.1261   9.4894  10.0084   H         2 RES2   0.0000
    75 C32      9.9770   8.9280  11.6485   C.3       2 RES2   0.0000
    76 H36     10.0166   7.9719  11.4356   H         2 RES2   0.0000
    77 H37      9.0883   9.1487  11.9963   H         2 RES2   0.0000
    78 H38     10.6546   9.1398  12.3244   H         2 RES2   0.0000
    79 O3       8.6569   5.5400   4.5925   O.2       3 RES3   0.0000
    80 C33      8.6193   4.7926   5.5320   C.2       3 RES3   0.0000
    81 C34      8.3041   3.3588   5.3701   C.3       3 RES3   0.0000
    82 H39      7.3724   3.1987   5.6270   H         3 RES3   0.0000
    83 H40      8.8971   2.8285   5.9421   H         3 RES3   0.0000
    84 H41      8.4346   3.0993   4.4342   H         3 RES3   0.0000
    85 C35      8.8755   5.2723   6.9352   C.3       3 RES3   0.0000
    86 H42      9.8399   5.3853   7.0715   H         3 RES3   0.0000
    87 H43      8.5319   4.6127   7.5744   H         3 RES3   0.0000
    88 H44      8.4233   6.1297   7.0764   H         3 RES3   0.0000
@<TRIPOS>BOND
     1     2     3    1
     2     3    11    1
     3     4     2    1
     4     5     2    1
     5     6     2    1
     6     7     6    1
     7     8     2    1
     8     9     2    1
     9    10     9    1
    10    11    12   ar
    11    12    13    1
    12    14    12   ar
    13    15    14    1
    14    16    14   ar
    15    17    16   ar
    16    18    17    1
    17    19    17   ar
    18    20    19    1
    19    21    19   ar
    20    22    21    1
    21    23    21   ar
    22    24    23    1
    23    25    16   ar
    24    26    11   ar
    25    27     5    2
    26    28    27    1
    27    29     5    1
    28    30    29    1
    29    31    29    1
    30    32     6    1
    31    33    32    1
    32    34    32    1
    33    35     6    1
    34    36    35    1
    35    37    35    1
    36    38    35    1
    37    39    38    1
    38    40    38    1
    39    41    38    1
    40    42    41    1
    41    43    41    1
    42    44    41    1
    43    45     4    1
    44    46    45   ar
    45    47    46    1
    46    48    46   ar
    47    49    48    1
    48    50    48   ar
    49    51    50   ar
    50    52    51    1
    51    53    51   ar
    52    54    53    1
    53    55    53   ar
    54    56    55    1
    55    57    55   ar
    56    58    57    1
    57    59    50   ar
    58    60    45   ar
    59    61     8    2
    60    62    61    1
    61    63     8    1
    62    64    63    1
    63    65    63    1
    64    66     9    1
    65    67    66    1
    66    68    66    1
    67    69     9    1
    68    70    69    1
    69    71    69    1
    70    72    69    1
    71    73    72    1
    72    74    72    1
    73    75    72    1
    74    76    75    1
    75    77    75    1
    76    78    75    1
    77    23    25   ar
    78    25    26   ar
    79    26    27    1
    80    29    32    1
    81    57    59   ar
    82    59    60   ar
    83    60    61    1
    84    63    66    1
    85    79    80    2
    86    80    81    1
    87    81    82    1
    88    83    81    1
    89    84    81    1
    90    85    80    1
    91    86    85    1
    92    87    85    1
    93    88    85    1
@<TRIPOS>SUBSTRUCTURE
     1 RES1        1 GROUP             0 ****  ****    0  
     2 RES2        2 GROUP             0 ****  ****    0  
     3 RES3       79 GROUP             0 ****  ****    0  
@<TRIPOS>CRYSIN
   11.2214   12.6890   23.7424   90.0000   90.0330   90.0000    14     1
