@<TRIPOS>MOLECULE
AGESOV
   113   112     1     0     0
SMALL
NO_CHARGES
****
Generated from the CSD

@<TRIPOS>ATOM
     1 Fe1      5.1383   0.0000   0.0000   Fe        1 RES1   0.0000
     2 N1       2.7223  -1.2794   1.4356   N.1       1 RES1   0.0000
     3 N2       7.2161  -1.7760   1.2979   N.1       1 RES1   0.0000
     4 N3       5.6001   1.9347   2.2890   N.1       1 RES1   0.0000
     5 C1       6.3744  -1.1373   0.8115   C.1       1 RES1   0.0000
     6 C2       8.4650  -2.3204   1.8287   C.3       1 RES1   0.0000
     7 C3       8.7600  -1.5264   3.1034   C.3       1 RES1   0.0000
     8 H1       8.0030  -1.6064   3.7205   H         1 RES1   0.0000
     9 H2       8.8989  -0.5829   2.8760   H         1 RES1   0.0000
    10 H3       9.5683  -1.8816   3.5290   H         1 RES1   0.0000
    11 C4       8.2246  -3.7878   2.1676   C.3       1 RES1   0.0000
    12 H4       7.9114  -4.2606   1.3679   H         1 RES1   0.0000
    13 H5       7.5490  -3.8539   2.8729   H         1 RES1   0.0000
    14 H6       9.0621  -4.1915   2.4778   H         1 RES1   0.0000
    15 C5       9.5744  -2.0373   0.8068   C.3       1 RES1   0.0000
    16 H7      10.4350  -2.1622   1.2804   H         1 RES1   0.0000
    17 H8       9.5137  -1.0750   0.5806   H         1 RES1   0.0000
    18 C6       9.6912  -2.8017  -0.5321   C.3       1 RES1   0.0000
    19 C7      10.6530  -1.9887  -1.4071   C.3       1 RES1   0.0000
    20 H9      10.7907  -2.4523  -2.2591   H         1 RES1   0.0000
    21 H10     11.5127  -1.8924  -0.9456   H         1 RES1   0.0000
    22 H11     10.2721  -1.1021  -1.5760   H         1 RES1   0.0000
    23 C8       8.3691  -2.8928  -1.2855   C.3       1 RES1   0.0000
    24 H12      7.7408  -3.4473  -0.7767   H         1 RES1   0.0000
    25 H13      8.5220  -3.2954  -2.1656   H         1 RES1   0.0000
    26 H14      7.9949  -1.9941  -1.3980   H         1 RES1   0.0000
    27 C9      10.2834  -4.2010  -0.3547   C.3       1 RES1   0.0000
    28 H15      9.6454  -4.7676   0.1267   H         1 RES1   0.0000
    29 H16     11.1170  -4.1400   0.1568   H         1 RES1   0.0000
    30 H17     10.4679  -4.5914  -1.2336   H         1 RES1   0.0000
    31 C10      5.4006   1.1989   1.4218   C.1       1 RES1   0.0000
    32 C11      5.8457   2.8139   3.4296   C.3       1 RES1   0.0000
    33 C12      6.7986   2.0619   4.3639   C.3       1 RES1   0.0000
    34 H18      6.4044   1.1983   4.6058   H         1 RES1   0.0000
    35 H19      6.9465   2.5919   5.1743   H         1 RES1   0.0000
    36 H20      7.6539   1.9154   3.9090   H         1 RES1   0.0000
    37 C13      4.5085   3.0272   4.1458   C.3       1 RES1   0.0000
    38 H21      4.2027   2.1771   4.5243   H         1 RES1   0.0000
    39 H22      3.8442   3.3578   3.5048   H         1 RES1   0.0000
    40 H23      4.6239   3.6831   4.8652   H         1 RES1   0.0000
    41 C14      6.5570   4.0977   2.9704   C.3       1 RES1   0.0000
    42 H24      7.4284   3.8133   2.5955   H         1 RES1   0.0000
    43 H25      6.7604   4.6104   3.7929   H         1 RES1   0.0000
    44 C15      5.9665   5.1094   1.9667   C.3       1 RES1   0.0000
    45 C16      7.0197   6.2260   1.8429   C.3       1 RES1   0.0000
    46 H26      7.1653   6.6370   2.7206   H         1 RES1   0.0000
    47 H27      6.7019   6.9054   1.2125   H         1 RES1   0.0000
    48 H28      7.8623   5.8453   1.5156   H         1 RES1   0.0000
    49 C17      5.7417   4.5026   0.5772   C.3       1 RES1   0.0000
    50 H29      5.0119   3.8499   0.6198   H         1 RES1   0.0000
    51 H30      6.5618   4.0559   0.2790   H         1 RES1   0.0000
    52 H31      5.5077   5.2136  -0.0558   H         1 RES1   0.0000
    53 C18      4.6662   5.7640   2.4633   C.3       1 RES1   0.0000
    54 H32      4.7729   6.0324   3.3993   H         1 RES1   0.0000
    55 H33      3.9288   5.1228   2.3888   H         1 RES1   0.0000
    56 H34      4.4686   6.5529   1.9168   H         1 RES1   0.0000
    57 C19      3.6319  -0.8101   0.9288   C.1       1 RES1   0.0000
    58 N1B      7.5544   1.2794  -1.4356   N.1       1 RES1   0.0000
    59 N2B      3.0606   1.7760  -1.2979   N.1       1 RES1   0.0000
    60 N3B      4.6766  -1.9347  -2.2890   N.1       1 RES1   0.0000
    61 C1B      3.9023   1.1373  -0.8115   C.1       1 RES1   0.0000
    62 C2B      1.8117   2.3204  -1.8287   C.3       1 RES1   0.0000
    63 C3B      1.5167   1.5264  -3.1034   C.3       1 RES1   0.0000
    64 H1B      2.2737   1.6064  -3.7205   H         1 RES1   0.0000
    65 H2B      1.3778   0.5829  -2.8760   H         1 RES1   0.0000
    66 H3B      0.7084   1.8816  -3.5290   H         1 RES1   0.0000
    67 C4B      2.0521   3.7878  -2.1676   C.3       1 RES1   0.0000
    68 H4B      2.3653   4.2606  -1.3679   H         1 RES1   0.0000
    69 H5B      2.7277   3.8539  -2.8729   H         1 RES1   0.0000
    70 H6B      1.2146   4.1915  -2.4778   H         1 RES1   0.0000
    71 C5B      0.7023   2.0373  -0.8068   C.3       1 RES1   0.0000
    72 H7B     -0.1583   2.1622  -1.2804   H         1 RES1   0.0000
    73 H8B      0.7630   1.0750  -0.5806   H         1 RES1   0.0000
    74 C6B      0.5855   2.8017   0.5321   C.3       1 RES1   0.0000
    75 C7B     -0.3763   1.9887   1.4071   C.3       1 RES1   0.0000
    76 H9B     -0.5140   2.4523   2.2591   H         1 RES1   0.0000
    77 H10B    -1.2360   1.8924   0.9456   H         1 RES1   0.0000
    78 H11B     0.0046   1.1021   1.5760   H         1 RES1   0.0000
    79 C8B      1.9076   2.8928   1.2855   C.3       1 RES1   0.0000
    80 H12B     2.5359   3.4473   0.7767   H         1 RES1   0.0000
    81 H13B     1.7547   3.2954   2.1656   H         1 RES1   0.0000
    82 H14B     2.2818   1.9941   1.3980   H         1 RES1   0.0000
    83 C9B     -0.0067   4.2010   0.3547   C.3       1 RES1   0.0000
    84 H15B     0.6313   4.7676  -0.1267   H         1 RES1   0.0000
    85 H16B    -0.8403   4.1400  -0.1568   H         1 RES1   0.0000
    86 H17B    -0.1912   4.5914   1.2336   H         1 RES1   0.0000
    87 C10B     4.8761  -1.1989  -1.4218   C.1       1 RES1   0.0000
    88 C11B     4.4310  -2.8139  -3.4296   C.3       1 RES1   0.0000
    89 C12B     3.4781  -2.0619  -4.3639   C.3       1 RES1   0.0000
    90 H18B     3.8723  -1.1983  -4.6058   H         1 RES1   0.0000
    91 H19B     3.3302  -2.5919  -5.1743   H         1 RES1   0.0000
    92 H20B     2.6228  -1.9154  -3.9090   H         1 RES1   0.0000
    93 C13B     5.7682  -3.0272  -4.1458   C.3       1 RES1   0.0000
    94 H21B     6.0740  -2.1771  -4.5243   H         1 RES1   0.0000
    95 H22B     6.4325  -3.3578  -3.5048   H         1 RES1   0.0000
    96 H23B     5.6528  -3.6831  -4.8652   H         1 RES1   0.0000
    97 C14B     3.7197  -4.0977  -2.9704   C.3       1 RES1   0.0000
    98 H24B     2.8483  -3.8133  -2.5955   H         1 RES1   0.0000
    99 H25B     3.5163  -4.6104  -3.7929   H         1 RES1   0.0000
   100 C15B     4.3102  -5.1094  -1.9667   C.3       1 RES1   0.0000
   101 C16B     3.2570  -6.2260  -1.8429   C.3       1 RES1   0.0000
   102 H26B     3.1114  -6.6370  -2.7206   H         1 RES1   0.0000
   103 H27B     3.5748  -6.9054  -1.2125   H         1 RES1   0.0000
   104 H28B     2.4144  -5.8453  -1.5156   H         1 RES1   0.0000
   105 C17B     4.5350  -4.5026  -0.5772   C.3       1 RES1   0.0000
   106 H29B     5.2648  -3.8499  -0.6198   H         1 RES1   0.0000
   107 H30B     3.7149  -4.0559  -0.2790   H         1 RES1   0.0000
   108 H31B     4.7690  -5.2136   0.0558   H         1 RES1   0.0000
   109 C18B     5.6105  -5.7640  -2.4633   C.3       1 RES1   0.0000
   110 H32B     5.5038  -6.0324  -3.3993   H         1 RES1   0.0000
   111 H33B     6.3479  -5.1228  -2.3888   H         1 RES1   0.0000
   112 H34B     5.8081  -6.5529  -1.9168   H         1 RES1   0.0000
   113 C19B     6.6448   0.8101  -0.9288   C.1       1 RES1   0.0000
@<TRIPOS>BOND
     1     1     5    1
     2     2    57    3
     3     3     5    3
     4     4    31    3
     5     6     3    1
     6     7     6    1
     7     8     7    1
     8     9     7    1
     9    10     7    1
    10    11     6    1
    11    12    11    1
    12    13    11    1
    13    14    11    1
    14    15     6    1
    15    16    15    1
    16    17    15    1
    17    18    15    1
    18    19    18    1
    19    20    19    1
    20    21    19    1
    21    22    19    1
    22    23    18    1
    23    24    23    1
    24    25    23    1
    25    26    23    1
    26    27    18    1
    27    28    27    1
    28    29    27    1
    29    30    27    1
    30    31     1    1
    31    32     4    1
    32    33    32    1
    33    34    33    1
    34    35    33    1
    35    36    33    1
    36    37    32    1
    37    38    37    1
    38    39    37    1
    39    40    37    1
    40    41    32    1
    41    42    41    1
    42    43    41    1
    43    44    41    1
    44    45    44    1
    45    46    45    1
    46    47    45    1
    47    48    45    1
    48    49    44    1
    49    50    49    1
    50    51    49    1
    51    52    49    1
    52    53    44    1
    53    54    53    1
    54    55    53    1
    55    56    53    1
    56    57     1    1
    57    58   113    3
    58    59    61    3
    59    60    87    3
    60    61     1    1
    61    62    59    1
    62    63    62    1
    63    64    63    1
    64    65    63    1
    65    66    63    1
    66    67    62    1
    67    68    67    1
    68    69    67    1
    69    70    67    1
    70    71    62    1
    71    72    71    1
    72    73    71    1
    73    74    71    1
    74    75    74    1
    75    76    75    1
    76    77    75    1
    77    78    75    1
    78    79    74    1
    79    80    79    1
    80    81    79    1
    81    82    79    1
    82    83    74    1
    83    84    83    1
    84    85    83    1
    85    86    83    1
    86    87     1    1
    87    88    60    1
    88    89    88    1
    89    90    89    1
    90    91    89    1
    91    92    89    1
    92    93    88    1
    93    94    93    1
    94    95    93    1
    95    96    93    1
    96    97    88    1
    97    98    97    1
    98    99    97    1
    99   100    97    1
   100   101   100    1
   101   102   101    1
   102   103   101    1
   103   104   101    1
   104   105   100    1
   105   106   105    1
   106   107   105    1
   107   108   105    1
   108   109   100    1
   109   110   109    1
   110   111   109    1
   111   112   109    1
   112   113     1    1
@<TRIPOS>SUBSTRUCTURE
     1 RES1        1 GROUP             0 ****  ****    0  
@<TRIPOS>CRYSIN
   10.2767   13.5559   15.3038   90.0000   99.7870   90.0000    14     1
