@<TRIPOS>MOLECULE
AGUYUW
   127   137     2     0     0
SMALL
NO_CHARGES
****
Generated from the CSD

@<TRIPOS>ATOM
     1 Fe1      9.5426   2.0583  12.2487   Fe        1 RES1   0.0000
     2 Cl1     14.5484   1.6285  10.4949   Cl        1 RES1   0.0000
     3 Cl2     11.8867   5.9686   8.6962   Cl        1 RES1   0.0000
     4 Cl3      8.9318  -2.8040   9.9458   Cl        1 RES1   0.0000
     5 Cl4      7.2117   1.4922   7.1263   Cl        1 RES1   0.0000
     6 N1      10.1367   1.8623  10.2572   N.2       1 RES1   0.0000
     7 N2      11.0750   3.4565  12.5436   N.2       1 RES1   0.0000
     8 N3      10.4507   0.0534   7.0234   N.pl3     1 RES1   0.0000
     9 N4      12.3133   2.2388   7.2684   N.pl3     1 RES1   0.0000
    10 N5      14.2286   5.2767  11.8004   N.pl3     1 RES1   0.0000
    11 N6      13.5349   5.2850  14.6225   N.pl3     1 RES1   0.0000
    12 O1      10.5771  -1.1371   7.2488   O.2       1 RES1   0.0000
    13 O2      10.3792   0.5859   5.9276   O.2       1 RES1   0.0000
    14 O3      13.2038   1.4306   7.0430   O.2       1 RES1   0.0000
    15 O4      12.1045   3.2579   6.6264   O.2       1 RES1   0.0000
    16 O5      14.0725   6.2955  11.1435   O.2       1 RES1   0.0000
    17 O6      15.3058   4.7919  12.1042   O.2       1 RES1   0.0000
    18 O7      13.9032   6.4317  14.4314   O.2       1 RES1   0.0000
    19 O8      13.8806   4.5685  15.5607   O.2       1 RES1   0.0000
    20 C1       9.6198   0.9244   9.3874   C.2       1 RES1   0.0000
    21 C2      10.4497   0.9498   8.1895   C.2       1 RES1   0.0000
    22 C3      11.3723   1.9131   8.3438   C.2       1 RES1   0.0000
    23 C4      11.2171   2.4717   9.6777   C.2       1 RES1   0.0000
    24 C5      12.1106   3.3743  10.2864   C.2       1 RES1   0.0000
    25 C6      12.0394   3.8078  11.6277   C.2       1 RES1   0.0000
    26 C7      13.0301   4.6189  12.3063   C.2       1 RES1   0.0000
    27 C8      12.6598   4.6891  13.6132   C.2       1 RES1   0.0000
    28 C9      11.4157   3.9870  13.7614   C.2       1 RES1   0.0000
    29 C10      8.4706   0.1641   9.5650   C.2       1 RES1   0.0000
    30 C11     13.2931   3.7957   9.4780   C.ar      1 RES1   0.0000
    31 C12     14.4516   3.0151   9.4548   C.ar      1 RES1   0.0000
    32 C13     15.5212   3.3133   8.6317   C.ar      1 RES1   0.0000
    33 H1      16.2897   2.7548   8.6170   H         1 RES1   0.0000
    34 C14     15.4571   4.4442   7.8232   C.ar      1 RES1   0.0000
    35 H2      16.1804   4.6512   7.2426   H         1 RES1   0.0000
    36 C15     14.3506   5.2689   7.8575   C.ar      1 RES1   0.0000
    37 H3      14.3205   6.0518   7.3210   H         1 RES1   0.0000
    38 C16     13.2895   4.9477   8.6782   C.ar      1 RES1   0.0000
    39 C17      8.0454  -0.7287   8.4406   C.ar      1 RES1   0.0000
    40 C18      8.2244  -2.1097   8.5153   C.ar      1 RES1   0.0000
    41 C19      7.9107  -2.9489   7.4619   C.ar      1 RES1   0.0000
    42 H4       8.0605  -3.8841   7.5317   H         1 RES1   0.0000
    43 C20      7.3754  -2.4115   6.3068   C.ar      1 RES1   0.0000
    44 H5       7.1545  -2.9830   5.5805   H         1 RES1   0.0000
    45 C21      7.1564  -1.0460   6.1966   C.ar      1 RES1   0.0000
    46 H6       6.7825  -0.6797   5.4029   H         1 RES1   0.0000
    47 C22      7.4930  -0.2244   7.2598   C.ar      1 RES1   0.0000
    48 O9       8.1709   3.6404  11.7589   O.3       1 RES1   0.0000
    49 H7       8.0510   4.2847  12.2843   H         1 RES1   0.0000
    50 C23      7.1710   3.6739  10.7237   C.3       1 RES1   0.0000
    51 H8       6.2745   3.5852  11.1353   H         1 RES1   0.0000
    52 H9       7.3042   2.9011  10.1186   H         1 RES1   0.0000
    53 C24      7.2176   4.9342   9.9239   C.3       1 RES1   0.0000
    54 H10      7.1381   5.7072  10.5363   H         1 RES1   0.0000
    55 H11      6.4434   4.9542   9.3078   H         1 RES1   0.0000
    56 C25      8.4790   5.0689   9.1277   C.3       1 RES1   0.0000
    57 H12      8.4591   5.9090   8.6231   H         1 RES1   0.0000
    58 H13      8.5544   4.3161   8.5043   H         1 RES1   0.0000
    59 H14      9.2500   5.0702   9.7328   H         1 RES1   0.0000
    60 N1A      8.9485   2.2543  14.2402   N.2       1 RES1   0.0000
    61 C1A      9.4655   3.1922  15.1100   C.2       1 RES1   0.0000
    62 C2A      8.6355   3.1668  16.3079   C.2       1 RES1   0.0000
    63 N3A      8.6345   4.0632  17.4740   N.pl3     1 RES1   0.0000
    64 O1A      8.5082   5.2537  17.2486   O.2       1 RES1   0.0000
    65 O2A      8.7061   3.5308  18.5697   O.2       1 RES1   0.0000
    66 C3A      7.7130   2.2035  16.1536   C.2       1 RES1   0.0000
    67 N4A      6.7719   1.8778  17.2290   N.pl3     1 RES1   0.0000
    68 O3A      5.8814   2.6861  17.4544   O.2       1 RES1   0.0000
    69 O4A      6.9807   0.8588  17.8710   O.2       1 RES1   0.0000
    70 C4A      7.8682   1.6450  14.8197   C.2       1 RES1   0.0000
    71 C5A      6.9746   0.7424  14.2109   C.2       1 RES1   0.0000
    72 C6A      7.0458   0.3089  12.8697   C.2       1 RES1   0.0000
    73 N2A      8.0103   0.6602  11.9537   N.2       1 RES1   0.0000
    74 O9A     10.9144   0.4763  12.7385   O.3       1 RES1   0.0000
    75 H7A     11.0342  -0.1680  12.2130   H         1 RES1   0.0000
    76 C23A    11.9142   0.4427  13.7736   C.3       1 RES1   0.0000
    77 H8A     12.8108   0.5315  13.3621   H         1 RES1   0.0000
    78 H9A     11.7810   1.2155  14.3787   H         1 RES1   0.0000
    79 C24A    11.8676  -0.8176  14.5735   C.3       1 RES1   0.0000
    80 H10A    11.9472  -1.5905  13.9611   H         1 RES1   0.0000
    81 H11A    12.6419  -0.8376  15.1896   H         1 RES1   0.0000
    82 C25A    10.6062  -0.9523  15.3697   C.3       1 RES1   0.0000
    83 H12A    10.6262  -1.7924  15.8743   H         1 RES1   0.0000
    84 H13A    10.5308  -0.1995  15.9931   H         1 RES1   0.0000
    85 H14A     9.8353  -0.9536  14.7646   H         1 RES1   0.0000
    86 C9A      7.6696   0.1297  10.7360   C.2       1 RES1   0.0000
    87 C8A      6.4254  -0.5724  10.8842   C.2       1 RES1   0.0000
    88 N6A      5.5503  -1.1684   9.8749   N.pl3     1 RES1   0.0000
    89 O7A      5.1821  -2.3150  10.0660   O.2       1 RES1   0.0000
    90 O8A      5.2047  -0.4519   8.9366   O.2       1 RES1   0.0000
    91 C7A      6.0552  -0.5022  12.1911   C.2       1 RES1   0.0000
    92 N5A      4.8566  -1.1600  12.6970   N.pl3     1 RES1   0.0000
    93 O5A      5.0128  -2.1789  13.3539   O.2       1 RES1   0.0000
    94 O6A      3.7794  -0.6753  12.3932   O.2       1 RES1   0.0000
    95 C11A     5.7922   0.3210  15.0193   C.ar      1 RES1   0.0000
    96 C12A     4.6337   1.1015  15.0426   C.ar      1 RES1   0.0000
    97 Cl1A     4.5368   2.4882  14.0025   Cl        1 RES1   0.0000
    98 C13A     3.5641   0.8033  15.8657   C.ar      1 RES1   0.0000
    99 H1A      2.7955   1.3619  15.8804   H         1 RES1   0.0000
   100 C14A     3.6282  -0.3276  16.6741   C.ar      1 RES1   0.0000
   101 H2A      2.9048  -0.5345  17.2547   H         1 RES1   0.0000
   102 C15A     4.7346  -1.1522  16.6398   C.ar      1 RES1   0.0000
   103 H3A      4.7647  -1.9351  17.1763   H         1 RES1   0.0000
   104 C16A     5.7958  -0.8310  15.8192   C.ar      1 RES1   0.0000
   105 Cl2A     7.1986  -1.8520  15.8012   Cl        1 RES1   0.0000
   106 C10A    10.6147   3.9525  14.9324   C.2       1 RES1   0.0000
   107 C17A    11.0399   4.8453  16.0568   C.ar      1 RES1   0.0000
   108 C18A    10.8609   6.2264  15.9821   C.ar      1 RES1   0.0000
   109 Cl3A    10.1535   6.9207  14.5516   Cl        1 RES1   0.0000
   110 C19A    11.1746   7.0655  17.0355   C.ar      1 RES1   0.0000
   111 H4A     11.0248   8.0007  16.9657   H         1 RES1   0.0000
   112 C20A    11.7099   6.5281  18.1905   C.ar      1 RES1   0.0000
   113 H5A     11.9308   7.0997  18.9169   H         1 RES1   0.0000
   114 C21A    11.9289   5.1626  18.3008   C.ar      1 RES1   0.0000
   115 H6A     12.3028   4.7963  19.0945   H         1 RES1   0.0000
   116 C22A    11.5923   4.3410  17.2376   C.ar      1 RES1   0.0000
   117 Cl4A    11.8736   2.6245  17.3711   Cl        1 RES1   0.0000
   118 O10      7.1192   4.8774  13.9219   O.2       2 RES2   0.0000
   119 C26      6.5127   5.8878  14.2391   C.2       2 RES2   0.0000
   120 C27      5.8608   6.0068  15.5681   C.3       2 RES2   0.0000
   121 H15      6.0072   5.1841  16.0789   H         2 RES2   0.0000
   122 H16      4.8988   6.1502  15.4480   H         2 RES2   0.0000
   123 H17      6.2461   6.7659  16.0544   H         2 RES2   0.0000
   124 C28      6.3918   7.0599  13.3168   C.3       2 RES2   0.0000
   125 H18      6.8583   6.8653  12.4777   H         2 RES2   0.0000
   126 H19      6.7918   7.8492  13.7381   H         2 RES2   0.0000
   127 H20      5.4445   7.2335  13.1318   H         2 RES2   0.0000
@<TRIPOS>BOND
     1     1     6    1
     2     2    31    1
     3     3    38    1
     4     4    40    1
     5     5    47    1
     6     6    20    1
     7     7     1    1
     8     8    12    2
     9     9    14    2
    10    10    16    2
    11    11    18    2
    12    13     8    2
    13    15     9    2
    14    17    10    2
    15    19    11    2
    16    20    21    1
    17    21     8    1
    18    22     9    1
    19    23     6    1
    20    24    23    2
    21    25     7    2
    22    26    10    1
    23    27    11    1
    24    28     7    1
    25    29    20    2
    26    30    24    1
    27    31    30   ar
    28    32    31   ar
    29    33    32    1
    30    34    32   ar
    31    35    34    1
    32    36    34   ar
    33    37    36    1
    34    38    30   ar
    35    39    29    1
    36    40    39   ar
    37    41    40   ar
    38    42    41    1
    39    43    41   ar
    40    44    43    1
    41    45    43   ar
    42    46    45    1
    43    47    39   ar
    44    48     1    1
    45    49    48    1
    46    50    48    1
    47    51    50    1
    48    52    50    1
    49    53    50    1
    50    54    53    1
    51    55    53    1
    52    56    53    1
    53    57    56    1
    54    58    56    1
    55    59    56    1
    56    60     1    1
    57    61    60    1
    58    62    61    2
    59    63    62    1
    60    64    63    2
    61    65    63    2
    62    66    62    1
    63    67    66    1
    64    68    67    2
    65    69    67    2
    66    70    60    1
    67    71    70    1
    68    72    71    2
    69    73     1    1
    70    74     1    1
    71    75    74    1
    72    76    74    1
    73    77    76    1
    74    78    76    1
    75    79    76    1
    76    80    79    1
    77    81    79    1
    78    82    79    1
    79    83    82    1
    80    84    82    1
    81    85    82    1
    82    86    29    1
    83    87    86    1
    84    88    87    1
    85    89    88    2
    86    90    88    2
    87    91    72    1
    88    92    91    1
    89    93    92    2
    90    94    92    2
    91    95    71    1
    92    96    95   ar
    93    97    96    1
    94    98    96   ar
    95    99    98    1
    96   100    98   ar
    97   101   100    1
    98   102   100   ar
    99   103   102    1
   100   104    95   ar
   101   105   104    1
   102   106    28    2
   103   107   106    1
   104   108   107   ar
   105   109   108    1
   106   110   108   ar
   107   111   110    1
   108   112   110   ar
   109   113   112    1
   110   114   112   ar
   111   115   114    1
   112   116   107   ar
   113   117   116    1
   114    21    22    2
   115    22    23    1
   116    24    25    1
   117    25    26    1
   118    26    27    2
   119    27    28    1
   120    36    38   ar
   121    45    47   ar
   122    61   106    1
   123    66    70    2
   124    72    73    1
   125    73    86    2
   126    87    91    2
   127   102   104   ar
   128   114   116   ar
   129   118   119    2
   130   119   120    1
   131   120   121    1
   132   122   120    1
   133   123   120    1
   134   124   119    1
   135   125   124    1
   136   126   124    1
   137   127   124    1
@<TRIPOS>SUBSTRUCTURE
     1 RES1        1 GROUP             0 ****  ****    0  
     2 RES2      118 GROUP             0 ****  ****    0  
@<TRIPOS>CRYSIN
   11.3460   11.6550   12.7660  105.3600   91.5100  104.5800     2     1
