@<TRIPOS>MOLECULE
AGUYUY
    85    90     1     0     0
SMALL
NO_CHARGES
****
Generated from the CSD

@<TRIPOS>ATOM
     1 C1       8.0662   2.0717  12.2287   C.3       1 RES1   0.0000
     2 C2       8.4510  -0.1581  13.1314   C.3       1 RES1   0.0000
     3 H1       8.7963   0.3948  13.8642   H         1 RES1   0.0000
     4 C3       9.5685  -1.0650  12.6982   C.3       1 RES1   0.0000
     5 H2      10.3079  -0.5333  12.3637   H         1 RES1   0.0000
     6 H3       9.2623  -1.6391  11.9790   H         1 RES1   0.0000
     7 C4      10.0437  -1.9232  13.8749   C.3       1 RES1   0.0000
     8 H4      10.7150  -2.5526  13.5646   H         1 RES1   0.0000
     9 H5      10.4551  -1.3535  14.5423   H         1 RES1   0.0000
    10 C5       8.9090  -2.6735  14.4912   C.3       1 RES1   0.0000
    11 H6       8.5986  -3.3452  13.8642   H         1 RES1   0.0000
    12 H7       9.2303  -3.1340  15.2840   H         1 RES1   0.0000
    13 C6       7.7625  -1.7979  14.8723   C.3       1 RES1   0.0000
    14 H8       8.0316  -1.2064  15.5922   H         1 RES1   0.0000
    15 H9       7.0289  -2.3457  15.1905   H         1 RES1   0.0000
    16 C7       7.3015  -0.9733  13.6908   C.3       1 RES1   0.0000
    17 H10      6.5856  -0.3774  13.9684   H         1 RES1   0.0000
    18 H11      6.9516  -1.5590  13.0013   H         1 RES1   0.0000
    19 C8       7.4601   0.2002  10.8206   C.3       1 RES1   0.0000
    20 H12      6.7110   0.7460  10.5358   H         1 RES1   0.0000
    21 H13      7.1240  -0.6921  10.9949   H         1 RES1   0.0000
    22 C9       8.4606   0.1311   9.7065   C.3       1 RES1   0.0000
    23 H14      8.8644   0.9937   9.5836   H         1 RES1   0.0000
    24 H15      8.0199  -0.1340   8.8950   H         1 RES1   0.0000
    25 H16      9.1395  -0.5114   9.9258   H         1 RES1   0.0000
    26 N1       8.0057   0.7573  12.0723   N.pl3     1 RES1   0.0000
    27 S1       7.4871   3.1944  11.0774   S.2       1 RES1   0.0000
    28 S2       8.7490   2.8845  13.5837   S.2       1 RES1   0.0000
    29 Fe1      8.4127   4.8561  12.3883   Fe        1 RES1   0.0000
    30 C1A     10.9965   5.9497  12.2287   C.3       1 RES1   0.0000
    31 C2A     12.7351   7.3978  13.1314   C.3       1 RES1   0.0000
    32 H1A     12.0836   7.4204  13.8642   H         1 RES1   0.0000
    33 C3A     12.9618   8.8191  12.6982   C.3       1 RES1   0.0000
    34 H2A     12.1316   9.1935  12.3637   H         1 RES1   0.0000
    35 H3A     13.6121   8.8409  11.9790   H         1 RES1   0.0000
    36 C4A     13.4674   9.6597  13.8749   C.3       1 RES1   0.0000
    37 H4A     13.6768  10.5558  13.5646   H         1 RES1   0.0000
    38 H5A     12.7683   9.7311  14.5423   H         1 RES1   0.0000
    39 C5A     14.6846   9.0522  14.4912   C.3       1 RES1   0.0000
    40 H6A     15.4214   9.1192  13.8642   H         1 RES1   0.0000
    41 H7A     14.9226   9.5607  15.2840   H         1 RES1   0.0000
    42 C6A     14.4995   7.6214  14.8723   C.3       1 RES1   0.0000
    43 H8A     13.8526   7.5588  15.5922   H         1 RES1   0.0000
    44 H9A     15.3407   7.2601  15.1905   H         1 RES1   0.0000
    45 C7A     14.0158   6.8099  13.6908   C.3       1 RES1   0.0000
    46 H10A    13.8577   5.8920  13.9684   H         1 RES1   0.0000
    47 H11A    14.6980   6.7997  13.0013   H         1 RES1   0.0000
    48 C8A     12.9203   6.3606  10.8206   C.3       1 RES1   0.0000
    49 H12A    12.8222   5.4389  10.5358   H         1 RES1   0.0000
    50 H13A    13.8610   6.5156  10.9949   H         1 RES1   0.0000
    51 C9A     12.4798   7.2616   9.7065   C.3       1 RES1   0.0000
    52 H14A    11.5310   7.1800   9.5836   H         1 RES1   0.0000
    53 H15A    12.9299   7.0124   8.8950   H         1 RES1   0.0000
    54 H16A    12.6968   8.1707   9.9258   H         1 RES1   0.0000
    55 N1A     12.1650   6.5545  12.0723   N.pl3     1 RES1   0.0000
    56 S1A     10.3137   4.8868  11.0774   S.2       1 RES1   0.0000
    57 S2A      9.9511   6.1346  13.5837   S.2       1 RES1   0.0000
    58 C1B      6.1729   6.5484  12.2287   C.3       1 RES1   0.0000
    59 C2B      4.0495   7.3300  13.1314   C.3       1 RES1   0.0000
    60 H1B      4.3557   6.7545  13.8642   H         1 RES1   0.0000
    61 C3B      2.7053   6.8157  12.6982   C.3       1 RES1   0.0000
    62 H2B      2.7961   5.9095  12.3637   H         1 RES1   0.0000
    63 H3B      2.3612   7.3679  11.9790   H         1 RES1   0.0000
    64 C4B      1.7244   6.8332  13.8749   C.3       1 RES1   0.0000
    65 H4B      0.8437   6.5666  13.5646   H         1 RES1   0.0000
    66 H5B      2.0121   6.1921  14.5423   H         1 RES1   0.0000
    67 C5B      1.6420   8.1911  14.4912   C.3       1 RES1   0.0000
    68 H6B      1.2155   8.7958  13.8642   H         1 RES1   0.0000
    69 H7B      1.0826   8.1430  15.2840   H         1 RES1   0.0000
    70 C6B      2.9736   8.7462  14.8723   C.3       1 RES1   0.0000
    71 H8B      3.3513   8.2173  15.5922   H         1 RES1   0.0000
    72 H9B      2.8659   9.6554  15.1905   H         1 RES1   0.0000
    73 C7B      3.9182   8.7331  13.6908   C.3       1 RES1   0.0000
    74 H10B     4.7922   9.0551  13.9684   H         1 RES1   0.0000
    75 H11B     3.5860   9.3290  13.0013   H         1 RES1   0.0000
    76 C8B      4.8552   8.0090  10.8206   C.3       1 RES1   0.0000
    77 H12B     5.7024   8.3849  10.5358   H         1 RES1   0.0000
    78 H13B     4.2505   8.7462  10.9949   H         1 RES1   0.0000
    79 C9B      4.2951   7.1771   9.7065   C.3       1 RES1   0.0000
    80 H14B     4.8402   6.3961   9.5836   H         1 RES1   0.0000
    81 H15B     4.2858   7.6914   8.8950   H         1 RES1   0.0000
    82 H16B     3.3992   6.9104   9.9258   H         1 RES1   0.0000
    83 N1B      5.0649   7.2579  12.0723   N.pl3     1 RES1   0.0000
    84 S1B      7.4347   6.4885  11.0774   S.2       1 RES1   0.0000
    85 S2B      6.5354   5.5506  13.5837   S.2       1 RES1   0.0000
@<TRIPOS>BOND
     1     1    26    1
     2     2     3    1
     3     4     2    1
     4     5     4    1
     5     6     4    1
     6     7     4    1
     7     8     7    1
     8     9     7    1
     9    10     7    1
    10    11    10    1
    11    12    10    1
    12    13    10    1
    13    14    13    1
    14    15    13    1
    15    16     2    1
    16    17    16    1
    17    18    16    1
    18    19    20    1
    19    21    19    1
    20    22    19    1
    21    23    22    1
    22    24    22    1
    23    25    22    1
    24    26     2    1
    25    27     1   un
    26    28     1   un
    27    29    27    1
    28    30    55    1
    29    31    32    1
    30    33    31    1
    31    34    33    1
    32    35    33    1
    33    36    33    1
    34    37    36    1
    35    38    36    1
    36    39    36    1
    37    40    39    1
    38    41    39    1
    39    42    39    1
    40    43    42    1
    41    44    42    1
    42    45    31    1
    43    46    45    1
    44    47    45    1
    45    48    49    1
    46    50    48    1
    47    51    48    1
    48    52    51    1
    49    53    51    1
    50    54    51    1
    51    55    31    1
    52    56    29    1
    53    57    29    1
    54    58    83    1
    55    59    60    1
    56    61    59    1
    57    62    61    1
    58    63    61    1
    59    64    61    1
    60    65    64    1
    61    66    64    1
    62    67    64    1
    63    68    67    1
    64    69    67    1
    65    70    67    1
    66    71    70    1
    67    72    70    1
    68    73    59    1
    69    74    73    1
    70    75    73    1
    71    76    77    1
    72    78    76    1
    73    79    76    1
    74    80    79    1
    75    81    79    1
    76    82    79    1
    77    83    59    1
    78    84    29    1
    79    85    29    1
    80    13    16    1
    81    19    26    1
    82    28    29    1
    83    30    56   un
    84    30    57   un
    85    42    45    1
    86    48    55    1
    87    58    84   un
    88    58    85   un
    89    70    73    1
    90    76    83    1
@<TRIPOS>SUBSTRUCTURE
     1 RES1        1 GROUP             0 ****  ****    0  
@<TRIPOS>CRYSIN
   16.8237   16.8237   21.2544   90.0000   90.0000  120.0000   236     1
