@<TRIPOS>MOLECULE
AGUZAD
   109   119     2     0     0
SMALL
NO_CHARGES
****
Generated from the CSD

@<TRIPOS>ATOM
     1 Fe1     15.9482   6.2724   3.1737   Fe        1 RES1   0.0000
     2 Cl1     13.8125   3.8275   7.1217   Cl        1 RES1   0.0000
     3 Cl2     11.8322   2.2583   2.3117   Cl        1 RES1   0.0000
     4 Cl3     13.1093   8.5288  -0.3580   Cl        1 RES1   0.0000
     5 Cl4     12.1120  10.3356   4.6399   Cl        1 RES1   0.0000
     6 O1      14.6006   0.6710   5.1185   O.2       1 RES1   0.0000
     7 O2      14.4076   0.1434   3.0023   O.2       1 RES1   0.0000
     8 O3      10.6032   4.8510   5.6047   O.2       1 RES1   0.0000
     9 O4       9.7873   4.7346   3.5697   O.2       1 RES1   0.0000
    10 O5      10.2861   7.7134   1.7189   O.2       1 RES1   0.0000
    11 O6       9.8188   7.8216   3.8642   O.2       1 RES1   0.0000
    12 O7      14.4133  11.7662   1.2822   O.2       1 RES1   0.0000
    13 O8      14.4478  12.4588   3.3514   O.2       1 RES1   0.0000
    14 O9      15.8415   6.2578   1.2009   O.3       1 RES1   0.0000
    15 N1      15.9482   4.3234   3.1737   N.2       1 RES1   0.0000
    16 N2      14.0169   6.2741   3.3552   N.2       1 RES1   0.0000
    17 N3      15.9482   8.2247   3.1737   N.2       1 RES1   0.0000
    18 N4      14.7162   0.9063   3.9315   N.pl3     1 RES1   0.0000
    19 N5      10.6802   5.0214   4.3898   N.pl3     1 RES1   0.0000
    20 N6      10.5252   7.5429   2.9198   N.pl3     1 RES1   0.0000
    21 N7      14.6511  11.6309   2.4818   N.pl3     1 RES1   0.0000
    22 C1      14.9561   3.5199   3.6903   C.2       1 RES1   0.0000
    23 C2      15.3810   2.1428   3.5240   C.2       1 RES1   0.0000
    24 C3      13.6885   3.9527   4.1258   C.2       1 RES1   0.0000
    25 C4      13.2409   5.2487   3.8706   C.2       1 RES1   0.0000
    26 C5      11.8657   5.6870   3.8642   C.2       1 RES1   0.0000
    27 C6      11.7905   6.8801   3.2460   C.2       1 RES1   0.0000
    28 C7      13.1659   7.3103   2.9731   C.2       1 RES1   0.0000
    29 C8      13.5854   8.5846   2.5834   C.2       1 RES1   0.0000
    30 H1      15.1824   5.9900   0.9991   H         1 RES1   0.0000
    31 H2      16.1123   6.9396   0.8797   H         1 RES1   0.0000
    32 C9      14.8916   9.0201   2.7966   C.2       1 RES1   0.0000
    33 C10     11.8735   2.1401   4.0394   C.ar      1 RES1   0.0000
    34 C11     15.3373  10.3891   2.8918   C.2       1 RES1   0.0000
    35 C12     12.7589   2.9733   4.7681   C.ar      1 RES1   0.0000
    36 C13     12.7485   2.8327   6.1620   C.ar      1 RES1   0.0000
    37 C14     11.9156   1.9398   6.8208   C.ar      1 RES1   0.0000
    38 H3      11.9307   1.8749   7.7678   H         1 RES1   0.0000
    39 C15     11.0686   1.1471   6.0782   C.ar      1 RES1   0.0000
    40 H4      10.5020   0.5249   6.5200   H         1 RES1   0.0000
    41 C16     11.0316   1.2445   4.6907   C.ar      1 RES1   0.0000
    42 H5      10.4357   0.7007   4.1905   H         1 RES1   0.0000
    43 C17     12.5665   9.5666   2.0718   C.ar      1 RES1   0.0000
    44 C18     12.3175   9.6505   0.7007   C.ar      1 RES1   0.0000
    45 C19     11.4243  10.5866   0.1980   C.ar      1 RES1   0.0000
    46 H6      11.2518  10.6353  -0.7350   H         1 RES1   0.0000
    47 C20     10.7946  11.4416   1.0689   C.ar      1 RES1   0.0000
    48 H7      10.1993  12.0963   0.7236   H         1 RES1   0.0000
    49 C21     11.0001  11.3766   2.4196   C.ar      1 RES1   0.0000
    50 H8      10.5456  11.9718   3.0048   H         1 RES1   0.0000
    51 C22     11.8755  10.4324   2.9236   C.ar      1 RES1   0.0000
    52 O9F     16.0550   6.2578   5.1464   O.3       1 RES1   0.0000
    53 H1F     16.7140   5.9900   5.3482   H         1 RES1   0.0000
    54 H2F     15.7841   6.9396   5.4676   H         1 RES1   0.0000
    55 C2F     16.5155   2.1428   2.8233   C.2       1 RES1   0.0000
    56 N4F     17.1802   0.9063   2.4158   N.pl3     1 RES1   0.0000
    57 O1F     17.2958   0.6710   1.2288   O.2       1 RES1   0.0000
    58 O2F     17.4888   0.1434   3.3450   O.2       1 RES1   0.0000
    59 C1F     16.9403   3.5199   2.6570   C.2       1 RES1   0.0000
    60 C3F     18.2079   3.9527   2.2216   C.2       1 RES1   0.0000
    61 C4F     18.6555   5.2487   2.4767   C.2       1 RES1   0.0000
    62 N2F     17.8795   6.2741   2.9921   N.2       1 RES1   0.0000
    63 C9F     17.0048   9.0201   3.5507   C.2       1 RES1   0.0000
    64 C8F     18.3110   8.5846   3.7640   C.2       1 RES1   0.0000
    65 C7F     18.7305   7.3103   3.3742   C.2       1 RES1   0.0000
    66 C6F     20.1060   6.8801   3.1013   C.2       1 RES1   0.0000
    67 N6F     21.3712   7.5429   3.4276   N.pl3     1 RES1   0.0000
    68 O5F     21.6103   7.7134   4.6285   O.2       1 RES1   0.0000
    69 O6F     22.0776   7.8216   2.4831   O.2       1 RES1   0.0000
    70 C5F     20.0307   5.6870   2.4831   C.2       1 RES1   0.0000
    71 N5F     21.2162   5.0214   1.9575   N.pl3     1 RES1   0.0000
    72 O3F     21.2932   4.8510   0.7426   O.2       1 RES1   0.0000
    73 O4F     22.1091   4.7346   2.7776   O.2       1 RES1   0.0000
    74 C17F    19.3299   9.5666   4.2756   C.ar      1 RES1   0.0000
    75 C18F    19.5789   9.6505   5.6466   C.ar      1 RES1   0.0000
    76 Cl3F    18.7871   8.5288   6.7053   Cl        1 RES1   0.0000
    77 C19F    20.4721  10.5866   6.1493   C.ar      1 RES1   0.0000
    78 H6F     20.6446  10.6353   7.0823   H         1 RES1   0.0000
    79 C20F    21.1018  11.4416   5.2784   C.ar      1 RES1   0.0000
    80 H7F     21.6972  12.0963   5.6237   H         1 RES1   0.0000
    81 C21F    20.8963  11.3766   3.9277   C.ar      1 RES1   0.0000
    82 H8F     21.3508  11.9718   3.3425   H         1 RES1   0.0000
    83 C22F    20.0209  10.4324   3.4237   C.ar      1 RES1   0.0000
    84 Cl4F    19.7844  10.3356   1.7074   Cl        1 RES1   0.0000
    85 C11F    16.5591  10.3891   3.4555   C.2       1 RES1   0.0000
    86 N7F     17.2453  11.6309   3.8655   N.pl3     1 RES1   0.0000
    87 O7F     17.4832  11.7662   5.0652   O.2       1 RES1   0.0000
    88 O8F     17.4486  12.4588   2.9959   O.2       1 RES1   0.0000
    89 C12F    19.1375   2.9733   1.5792   C.ar      1 RES1   0.0000
    90 C10F    20.0230   2.1401   2.3079   C.ar      1 RES1   0.0000
    91 Cl2F    20.0642   2.2583   4.0356   Cl        1 RES1   0.0000
    92 C16F    20.8648   1.2445   1.6566   C.ar      1 RES1   0.0000
    93 C15F    20.8278   1.1471   0.2691   C.ar      1 RES1   0.0000
    94 C14F    19.9808   1.9398  -0.4735   C.ar      1 RES1   0.0000
    95 C13F    19.1479   2.8327   0.1853   C.ar      1 RES1   0.0000
    96 Cl1F    18.0839   3.8275  -0.7744   Cl        1 RES1   0.0000
    97 H3F     19.9657   1.8749  -1.4205   H         1 RES1   0.0000
    98 H4F     21.3944   0.5249  -0.1726   H         1 RES1   0.0000
    99 H5F     21.4607   0.7007   2.1568   H         1 RES1   0.0000
   100 O10     16.5824   8.6197   0.1930   O.2       2 RES2   0.0000
   101 C23     17.5465   8.7875  -0.5509   C.2       2 RES2   0.0000
   102 C24     18.4380   7.6241  -0.8886   C.3       2 RES2   0.0000
   103 H9      18.1115   6.8206  -0.4354   H         2 RES2   0.0000
   104 H10     19.3524   7.8189  -0.5941   H         2 RES2   0.0000
   105 H11     18.4305   7.4807  -1.8585   H         2 RES2   0.0000
   106 C25     17.8351  10.1213  -1.1184   C.3       2 RES2   0.0000
   107 H12     17.1663  10.7625  -0.8023   H         2 RES2   0.0000
   108 H13     17.8054  10.0726  -2.0972   H         2 RES2   0.0000
   109 H14     18.7256  10.4108  -0.8328   H         2 RES2   0.0000
@<TRIPOS>BOND
     1     1    14    1
     2     2    36    1
     3     3    33    1
     4     4    44    1
     5     5    51    1
     6     6    18    2
     7     7    18    2
     8     8    19    2
     9     9    19    2
    10    10    20    2
    11    11    20    2
    12    12    21    2
    13    13    21    2
    14    14    30    1
    15    15     1    1
    16    16     1    1
    17    17     1    1
    18    18    23    1
    19    19    26    1
    20    20    27    1
    21    21    34    1
    22    22    15    1
    23    23    22    1
    24    24    22    2
    25    25    16    2
    26    26    25    1
    27    27    26    2
    28    28    16    1
    29    29    28    2
    30    31    14    1
    31    32    17    1
    32    33    35   ar
    33    34    32    2
    34    35    24    1
    35    36    35   ar
    36    37    36   ar
    37    38    37    1
    38    39    37   ar
    39    40    39    1
    40    41    33   ar
    41    42    41    1
    42    43    29    1
    43    44    43   ar
    44    45    44   ar
    45    46    45    1
    46    47    45   ar
    47    48    47    1
    48    49    47   ar
    49    50    49    1
    50    51    43   ar
    51    52     1    1
    52    53    52    1
    53    54    52    1
    54    55    23    2
    55    56    55    1
    56    57    56    2
    57    58    56    2
    58    59    15    1
    59    60    59    2
    60    61    60    1
    61    62     1    1
    62    63    17    1
    63    64    63    1
    64    65    62    1
    65    66    65    1
    66    67    66    1
    67    68    67    2
    68    69    67    2
    69    70    61    1
    70    71    70    1
    71    72    71    2
    72    73    71    2
    73    74    64    1
    74    75    74   ar
    75    76    75    1
    76    77    75   ar
    77    78    77    1
    78    79    77   ar
    79    80    79    1
    80    81    79   ar
    81    82    81    1
    82    83    74   ar
    83    84    83    1
    84    85    34    1
    85    86    85    1
    86    87    86    2
    87    88    86    2
    88    89    60    1
    89    90    89   ar
    90    91    90    1
    91    92    90   ar
    92    93    92   ar
    93    94    93   ar
    94    95    89   ar
    95    96    95    1
    96    97    94    1
    97    98    93    1
    98    99    92    1
    99    24    25    1
   100    27    28    1
   101    29    32    1
   102    39    41   ar
   103    49    51   ar
   104    55    59    1
   105    61    62    2
   106    63    85    2
   107    64    65    2
   108    66    70    2
   109    81    83   ar
   110    94    95   ar
   111   100   101    2
   112   101   102    1
   113   102   103    1
   114   104   102    1
   115   105   102    1
   116   106   101    1
   117   107   106    1
   118   108   106    1
   119   109   106    1
@<TRIPOS>SUBSTRUCTURE
     1 RES1        1 GROUP             0 ****  ****    0  
     2 RES2      100 GROUP             0 ****  ****    0  
@<TRIPOS>CRYSIN
   17.2440   27.0550   13.7120   90.0000  112.2100   90.0000    15     1
