@<TRIPOS>MOLECULE
AHAREG
    79    84     3     0     0
SMALL
USER_CHARGES
****
Generated from the CSD

@<TRIPOS>ATOM
     1 Fe1     11.4089   4.1492  16.6435   Fe        1 RES1   0.0000
     2 O1      12.4799   5.7420  16.2630   O.3       1 RES1  -1.0000
     3 O2      11.2410   5.0083  18.4454   O.3       1 RES1   0.0000
     4 O3      11.3066   3.6331  14.6989   O.3       1 RES1   0.0000
     5 O4      12.8129   2.9731  17.1499   O.3       1 RES1   0.0000
     6 N1       9.9661   2.5771  17.1334   N.3       1 RES1   0.0000
     7 N2       9.4760   5.0943  16.2335   N.ar      1 RES1   0.0000
     8 Br1     14.4046   8.0638  15.7943   Br        1 RES1   0.0000
     9 Br2     14.3951  10.1192  18.3848   Br        1 RES1   0.0000
    10 Br3     12.7447   9.2483  21.1288   Br        1 RES1   0.0000
    11 Br4     11.0882   6.3605  21.1553   Br        1 RES1   0.0000
    12 Cl1     10.5466   5.1658  12.2537   Cl        1 RES1   0.0000
    13 Cl2      6.1849   2.0920  12.3257   Cl        1 RES1   0.0000
    14 C1      12.5789   6.5463  17.2916   C.ar      1 RES1   0.0000
    15 C2      13.3699   7.6974  17.3284   C.ar      1 RES1   0.0000
    16 C3      13.3736   8.5109  18.4564   C.ar      1 RES1   0.0000
    17 C4      12.7040   8.1686  19.5807   C.ar      1 RES1   0.0000
    18 C5      11.9712   6.9714  19.5918   C.ar      1 RES1   0.0000
    19 C6      11.8660   6.1242  18.4766   C.ar      1 RES1   0.0000
    20 C7       9.8238   1.6086  15.9833   C.3       1 RES1   0.0000
    21 C8       9.3609   2.2639  14.7173   C.ar      1 RES1   0.0000
    22 C9       8.1417   1.9186  14.1689   C.ar      1 RES1   0.0000
    23 C10      7.7271   2.5494  13.0225   C.ar      1 RES1   0.0000
    24 C11      8.4437   3.5272  12.4282   C.ar      1 RES1   0.0000
    25 C12      9.6728   3.8664  12.9968   C.ar      1 RES1   0.0000
    26 C13     10.1703   3.2739  14.1376   C.ar      1 RES1   0.0000
    27 C14      8.6616   3.1787  17.4609   C.3       1 RES1   0.0000
    28 C15      8.3930   4.4005  16.5960   C.ar      1 RES1   0.0000
    29 C16      7.1206   4.7950  16.2740   C.ar      1 RES1   0.0000
    30 C17      6.9585   5.9507  15.5564   C.ar      1 RES1   0.0000
    31 C18      8.0984   6.6691  15.1810   C.ar      1 RES1   0.0000
    32 C19      9.3237   6.2101  15.5251   C.ar      1 RES1   0.0000
    33 C20     10.4637   1.8173  18.3239   C.3       1 RES1   0.0000
    34 C21     11.7361   1.0806  18.0718   C.ar      1 RES1   0.0000
    35 C22     11.8561  -0.2625  18.4619   C.ar      1 RES1   0.0000
    36 C23     13.0864  -0.9117  18.3589   C.ar      1 RES1   0.0000
    37 C24     14.1657  -0.2379  17.9485   C.ar      1 RES1   0.0000
    38 C25     14.1632   1.0606  17.5566   C.ar      1 RES1   0.0000
    39 C26     12.8698   1.7145  17.5731   C.ar      1 RES1   0.0000
    40 H1      10.6989   1.1742  15.8195   H         1 RES1   0.0000
    41 H2       9.1777   0.9025  16.2354   H         1 RES1   0.0000
    42 H3       7.5996   1.2540  14.5774   H         1 RES1   0.0000
    43 H4       8.1232   3.9692  11.6498   H         1 RES1   0.0000
    44 H5       8.6504   3.4427  18.4141   H         1 RES1   0.0000
    45 H6       7.9449   2.5111  17.3174   H         1 RES1   0.0000
    46 H7       6.3693   4.2792  16.5408   H         1 RES1   0.0000
    47 H8       6.0908   6.2592  15.3208   H         1 RES1   0.0000
    48 H9       8.0130   7.4764  14.6860   H         1 RES1   0.0000
    49 H10     10.0948   6.6967  15.2546   H         1 RES1   0.0000
    50 H11     10.6023   2.4497  19.0728   H         1 RES1   0.0000
    51 H12      9.7681   1.1696  18.6036   H         1 RES1   0.0000
    52 H13     11.0999  -0.7291  18.7987   H         1 RES1   0.0000
    53 H14     13.1570  -1.8326  18.5815   H         1 RES1   0.0000
    54 H15     14.9950  -0.7014  17.9301   H         1 RES1   0.0000
    55 H16     14.9554   1.5119  17.2898   H         1 RES1   0.0000
    56 N3       1.2959   3.4704  13.3059   N.4       2 RES2   1.0000
    57 C27      1.0013   3.1020  11.8706   C.3       2 RES2   0.0000
    58 C28      2.1994   2.5832  11.1143   C.3       2 RES2   0.0000
    59 C29      2.1536   4.6676  13.4954   C.3       2 RES2   0.0000
    60 C30      1.6734   5.8970  12.7686   C.3       2 RES2   0.0000
    61 C31      1.8553   2.3146  14.0916   C.3       2 RES2   0.0000
    62 C32      1.0075   1.1005  14.0732   C.3       2 RES2   0.0000
    63 H17      0.4765   3.6745  13.6942   H         2 RES2   0.0000
    64 H18      0.2933   2.4098  11.8577   H         2 RES2   0.0000
    65 H19      0.6498   3.9001  11.4014   H         2 RES2   0.0000
    66 H20      1.9395   2.3760  10.1924   H         2 RES2   0.0000
    67 H21      2.5349   1.7713  11.5504   H         2 RES2   0.0000
    68 H22      2.9037   3.2662  11.1106   H         2 RES2   0.0000
    69 H23      3.0695   4.4527  13.1881   H         2 RES2   0.0000
    70 H24      2.2031   4.8702  14.4633   H         2 RES2   0.0000
    71 H25      2.2885   6.6399  12.9416   H         2 RES2   0.0000
    72 H26      0.7773   6.1334  13.0833   H         2 RES2   0.0000
    73 H27      1.6449   5.7144  11.8044   H         2 RES2   0.0000
    74 H28      2.7465   2.0859  13.7273   H         2 RES2   0.0000
    75 H29      1.9791   2.6016  15.0319   H         2 RES2   0.0000
    76 H30      1.4395   0.3914  14.5940   H         2 RES2   0.0000
    77 H31      0.8874   0.7997  13.1477   H         2 RES2   0.0000
    78 H32      0.1324   1.3062  14.4652   H         2 RES2   0.0000
    79 O5      11.6841  12.3097   0.2668   O.3       3 RES3   0.0000
@<TRIPOS>BOND
     1     1     2    1
     2     2    14    1
     3     3     1    1
     4     4     1    1
     5     5     1    1
     6     6     1    1
     7     7     1    1
     8     8    15    1
     9     9    16    1
    10    10    17    1
    11    11    18    1
    12    12    25    1
    13    13    23    1
    14    14    15   ar
    15    15    16   ar
    16    16    17   ar
    17    17    18   ar
    18    18    19   ar
    19    19     3    1
    20    20     6    1
    21    21    20    1
    22    22    21   ar
    23    23    22   ar
    24    24    23   ar
    25    25    24   ar
    26    26     4    1
    27    27     6    1
    28    28     7   ar
    29    29    28   ar
    30    30    29   ar
    31    31    30   ar
    32    32     7   ar
    33    33     6    1
    34    34    33    1
    35    35    34   ar
    36    36    35   ar
    37    37    36   ar
    38    38    37   ar
    39    39     5    1
    40    40    20    1
    41    41    20    1
    42    42    22    1
    43    43    24    1
    44    44    27    1
    45    45    27    1
    46    46    29    1
    47    47    30    1
    48    48    31    1
    49    49    32    1
    50    50    33    1
    51    51    33    1
    52    52    35    1
    53    53    36    1
    54    54    37    1
    55    55    38    1
    56    14    19   ar
    57    21    26   ar
    58    25    26   ar
    59    27    28    1
    60    31    32   ar
    61    34    39   ar
    62    38    39   ar
    63    56    57    1
    64    57    58    1
    65    58    66    1
    66    59    56    1
    67    60    59    1
    68    61    56    1
    69    62    61    1
    70    63    56    1
    71    64    57    1
    72    65    57    1
    73    67    58    1
    74    68    58    1
    75    69    59    1
    76    70    59    1
    77    71    60    1
    78    72    60    1
    79    73    60    1
    80    74    61    1
    81    75    61    1
    82    76    62    1
    83    77    62    1
    84    78    62    1
@<TRIPOS>SUBSTRUCTURE
     1 RES1        1 GROUP             0 ****  ****    0  
     2 RES2       56 GROUP             0 ****  ****    0  
     3 RES3       79 GROUP             0 ****  ****    0  
@<TRIPOS>CRYSIN
   12.3772   15.3488   18.4012   90.0000   90.0000   90.0000    19     1
