@<TRIPOS>MOLECULE
AHARIK
    80    86     2     0     0
SMALL
USER_CHARGES
****
Generated from the CSD

@<TRIPOS>ATOM
     1 Fe1      1.1053   4.3158   1.8285   Fe        1 RES1   0.0000
     2 O1       0.0173   5.8629   2.2445   O.3       1 RES1  -1.0000
     3 O2       1.2611   5.2021   0.0402   O.3       1 RES1   0.0000
     4 O3       1.2005   3.7558   3.7482   O.3       1 RES1   0.0000
     5 O4      -0.3388   3.1772   1.2622   O.3       1 RES1   0.0000
     6 N1       2.4863   2.6667   1.3079   N.3       1 RES1   0.0000
     7 N2       3.0637   5.1626   2.2061   N.ar      1 RES1   0.0000
     8 Br1     -2.0830   8.0464   2.6974   Br        1 RES1   0.0000
     9 Br2     -2.2353  10.0778   0.0845   Br        1 RES1   0.0000
    10 Br3     -0.4411   9.3942  -2.5994   Br        1 RES1   0.0000
    11 Br4      1.3716   6.6112  -2.6530   Br        1 RES1   0.0000
    12 Cl1      2.0871   5.3118   6.1256   Cl        1 RES1   0.0000
    13 Cl2      6.3325   2.0646   5.9991   Cl        1 RES1   0.0000
    14 O5       0.2646  -2.8168  -0.0915   O.2       1 RES1   0.0000
    15 O6      -1.8496  -2.5876  -0.3750   O.2       1 RES1   0.0000
    16 N3      -0.7517  -2.1371  -0.1116   N.pl3     1 RES1   0.0000
    17 C1      -0.1583   6.6374   1.1982   C.ar      1 RES1   0.0000
    18 C2      -1.0150   7.7376   1.1707   C.ar      1 RES1   0.0000
    19 C3      -1.1140   8.5501   0.0329   C.ar      1 RES1   0.0000
    20 C4      -0.3623   8.2529  -1.0884   C.ar      1 RES1   0.0000
    21 C5       0.4476   7.1306  -1.1067   C.ar      1 RES1   0.0000
    22 C6       0.5737   6.3023   0.0073   C.ar      1 RES1   0.0000
    23 C7       2.6124   1.7198   2.4347   C.3       1 RES1   0.0000
    24 C8       3.1008   2.3331   3.7006   C.ar      1 RES1   0.0000
    25 C9       4.3074   1.9269   4.2457   C.ar      1 RES1   0.0000
    26 C10      4.8020   2.5402   5.3670   C.ar      1 RES1   0.0000
    27 C11      4.1084   3.5661   5.9597   C.ar      1 RES1   0.0000
    28 C12      2.9079   3.9549   5.4091   C.ar      1 RES1   0.0000
    29 C13      2.3565   3.3574   4.2841   C.ar      1 RES1   0.0000
    30 C14      3.8228   3.2515   1.0006   C.3       1 RES1   0.0000
    31 C15      4.1245   4.4355   1.8567   C.ar      1 RES1   0.0000
    32 C16      5.4103   4.8275   2.2024   C.ar      1 RES1   0.0000
    33 C17      5.6118   5.9466   2.9012   C.ar      1 RES1   0.0000
    34 C18      4.5028   6.7212   3.2744   C.ar      1 RES1   0.0000
    35 C19      3.2603   6.2896   2.9286   C.ar      1 RES1   0.0000
    36 C20      1.9757   1.9569   0.1134   C.3       1 RES1   0.0000
    37 C21      0.6936   1.2393   0.3585   C.ar      1 RES1   0.0000
    38 C22      0.5625  -0.0901   0.0439   C.ar      1 RES1   0.0000
    39 C23     -0.6602  -0.7050   0.1354   C.ar      1 RES1   0.0000
    40 C24     -1.7890  -0.0174   0.4866   C.ar      1 RES1   0.0000
    41 C25     -1.6901   1.3057   0.8305   C.ar      1 RES1   0.0000
    42 C26     -0.4389   1.9380   0.8415   C.ar      1 RES1   0.0000
    43 H1       3.2343   0.9958   2.1713   H         1 RES1   0.0000
    44 H2       1.7284   1.3088   2.6030   H         1 RES1   0.0000
    45 H3       4.7958   1.2187   3.8414   H         1 RES1   0.0000
    46 H4       4.4496   3.9992   6.7353   H         1 RES1   0.0000
    47 H5       3.8488   3.5218   0.0476   H         1 RES1   0.0000
    48 H6       4.5201   2.5623   1.1396   H         1 RES1   0.0000
    49 H7       6.1521   4.2964   1.9372   H         1 RES1   0.0000
    50 H8       6.4908   6.2154   3.1408   H         1 RES1   0.0000
    51 H9       4.6165   7.5289   3.7591   H         1 RES1   0.0000
    52 H10      2.5061   6.7971   3.2030   H         1 RES1   0.0000
    53 H11      2.6569   1.3041  -0.1866   H         1 RES1   0.0000
    54 H12      1.8422   2.6113  -0.6165   H         1 RES1   0.0000
    55 H13      1.3217  -0.5880  -0.2360   H         1 RES1   0.0000
    56 H14     -2.6334  -0.4521   0.4902   H         1 RES1   0.0000
    57 H15     -2.4715   1.7941   1.0628   H         1 RES1   0.0000
    58 N4      11.2038   3.5519   5.1603   N.4       2 RES2   1.0000
    59 C27     10.3408   4.6915   5.0762   C.3       2 RES2   0.0000
    60 C28     10.9479   5.9387   5.7969   C.3       2 RES2   0.0000
    61 C29     11.6637   3.0713   6.4792   C.3       2 RES2   0.0000
    62 C30     10.5893   2.6034   7.4286   C.3       2 RES2   0.0000
    63 C31     10.5572   2.4216   4.4323   C.3       2 RES2   0.0000
    64 C32     11.3398   1.1318   4.4067   C.3       2 RES2   0.0000
    65 H16     11.9703   3.7684   4.6811   H         2 RES2   0.0000
    66 H17      9.4680   4.4702   5.4896   H         2 RES2   0.0000
    67 H18     10.1813   4.9097   4.1250   H         2 RES2   0.0000
    68 H19     10.3297   6.6943   5.7183   H         2 RES2   0.0000
    69 H20     11.8034   6.1711   5.3799   H         2 RES2   0.0000
    70 H21     11.0913   5.7317   6.7445   H         2 RES2   0.0000
    71 H22     12.1682   3.8016   6.9183   H         2 RES2   0.0000
    72 H23     12.2955   2.3236   6.3347   H         2 RES2   0.0000
    73 H24     11.0010   2.3078   8.2683   H         2 RES2   0.0000
    74 H25     10.0997   1.8573   7.0244   H         2 RES2   0.0000
    75 H26      9.9699   3.3416   7.6097   H         2 RES2   0.0000
    76 H27     10.3940   2.7062   3.4975   H         2 RES2   0.0000
    77 H28      9.6757   2.2462   4.8475   H         2 RES2   0.0000
    78 H29     10.8354   0.4537   3.9091   H         2 RES2   0.0000
    79 H30     11.4845   0.8204   5.3250   H         2 RES2   0.0000
    80 H31     12.2040   1.2820   3.9713   H         2 RES2   0.0000
@<TRIPOS>BOND
     1     1     2    1
     2     2    17    1
     3     3     1    1
     4     4     1    1
     5     5     1    1
     6     6     1    1
     7     7     1    1
     8     8    18    1
     9     9    19    1
    10    10    20    1
    11    11    21    1
    12    12    28    1
    13    13    26    1
    14    14    16    2
    15    15    16    2
    16    16    39    1
    17    17    18   ar
    18    18    19   ar
    19    19    20   ar
    20    20    21   ar
    21    21    22   ar
    22    22     3    1
    23    23     6    1
    24    24    23    1
    25    25    24   ar
    26    26    25   ar
    27    27    26   ar
    28    28    27   ar
    29    29     4    1
    30    30     6    1
    31    31     7   ar
    32    32    31   ar
    33    33    32   ar
    34    34    33   ar
    35    35     7   ar
    36    36     6    1
    37    37    36    1
    38    38    37   ar
    39    39    38   ar
    40    40    39   ar
    41    41    40   ar
    42    42     5    1
    43    43    23    1
    44    44    23    1
    45    45    25    1
    46    46    27    1
    47    47    30    1
    48    48    30    1
    49    49    32    1
    50    50    33    1
    51    51    34    1
    52    52    35    1
    53    53    36    1
    54    54    36    1
    55    55    38    1
    56    56    40    1
    57    57    41    1
    58    17    22   ar
    59    24    29   ar
    60    28    29   ar
    61    30    31    1
    62    34    35   ar
    63    37    42   ar
    64    41    42   ar
    65    58    59    1
    66    59    60    1
    67    60    68    1
    68    61    58    1
    69    62    61    1
    70    63    58    1
    71    64    63    1
    72    65    58    1
    73    66    59    1
    74    67    59    1
    75    69    60    1
    76    70    60    1
    77    71    61    1
    78    72    61    1
    79    73    62    1
    80    74    62    1
    81    75    62    1
    82    76    63    1
    83    77    63    1
    84    78    64    1
    85    79    64    1
    86    80    64    1
@<TRIPOS>SUBSTRUCTURE
     1 RES1        1 GROUP             0 ****  ****    0  
     2 RES2       58 GROUP             0 ****  ****    0  
@<TRIPOS>CRYSIN
   12.3635   15.8071   18.2926   90.0000   90.0000   90.0000    19     1
