@<TRIPOS>MOLECULE
AHINOX
    81    81     5     0     0
SMALL
USER_CHARGES
****
Generated from the CSD

@<TRIPOS>ATOM
     1 Fe1      4.3444  17.3274   7.1375   Fe        1 RES1   2.0000
     2 N1       4.4093  16.3358   5.4063   N.ar      1 RES1   0.0000
     3 N2       3.0527  16.0196   7.7732   N.1       1 RES1   0.0000
     4 N3       5.8898  16.0461   7.5423   N.3       1 RES1   0.0000
     5 C1       2.3306  15.2380   8.1715   C.1       1 RES1   0.0000
     6 N4       5.7767  18.7182   6.7281   N.3       1 RES1   0.0000
     7 N5       4.3312  18.3212   8.8709   N.ar      1 RES1   0.0000
     8 N6       2.9651  18.5388   6.5000   N.1       1 RES1   0.0000
     9 C2       5.0142  15.1280   5.4616   C.ar      1 RES1   0.0000
    10 C3       3.8381  16.6906   4.2262   C.ar      1 RES1   0.0000
    11 H1       3.4218  17.5419   4.1614   H         1 RES1   0.0000
    12 C4       3.8354  15.8720   3.1204   C.ar      1 RES1   0.0000
    13 H2       3.4259  16.1561   2.3116   H         1 RES1   0.0000
    14 C5       4.8471  20.4288   9.8944   C.ar      1 RES1   0.0000
    15 H3       5.2338  21.2930   9.8229   H         1 RES1   0.0000
    16 C6       4.2678  20.0174  11.0840   C.ar      1 RES1   0.0000
    17 H4       4.2301  20.6027  11.8320   H         1 RES1   0.0000
    18 C7       6.1188  15.7137   8.9736   C.3       1 RES1   0.0000
    19 H5       6.8638  15.0802   9.0465   H         1 RES1   0.0000
    20 H6       5.3092  15.3091   9.3503   H         1 RES1   0.0000
    21 H7       6.3371  16.5314   9.4691   H         1 RES1   0.0000
    22 C8       5.6231  14.7984   6.7997   C.3       1 RES1   0.0000
    23 H8       5.0020  14.2263   7.3182   H         1 RES1   0.0000
    24 H9       6.4678  14.2986   6.6701   H         1 RES1   0.0000
    25 C9       4.8539  19.5684   8.8129   C.ar      1 RES1   0.0000
    26 C10      5.4156  19.9509   7.4775   C.3       1 RES1   0.0000
    27 H10      4.7434  20.4701   6.9685   H         1 RES1   0.0000
    28 H11      6.2172  20.5166   7.6004   H         1 RES1   0.0000
    29 C11      1.2906  20.2997   5.5481   C.3       1 RES1   0.0000
    30 H12      1.7715  20.9091   4.9513   H         1 RES1   0.0000
    31 H13      0.8945  20.8075   6.2853   H         1 RES1   0.0000
    32 H14      0.5820  19.8435   5.0471   H         1 RES1   0.0000
    33 C12      3.7977  17.9196  10.0470   C.ar      1 RES1   0.0000
    34 H15      3.4434  17.0409  10.1104   H         1 RES1   0.0000
    35 C13      1.4051  14.2487   8.7035   C.3       1 RES1   0.0000
    36 H16      1.0441  13.7099   7.9676   H         1 RES1   0.0000
    37 H17      0.6695  14.7049   9.1653   H         1 RES1   0.0000
    38 H18      1.8766  13.6668   9.3354   H         1 RES1   0.0000
    39 C14      7.1131  16.7018   6.9820   C.3       1 RES1   0.0000
    40 H19      7.1562  16.5572   6.0031   H         1 RES1   0.0000
    41 H20      7.9241  16.3110   7.3925   H         1 RES1   0.0000
    42 C15      4.4389  14.6274   3.2027   C.ar      1 RES1   0.0000
    43 H21      4.4349  14.0369   2.4588   H         1 RES1   0.0000
    44 C16      2.2255  19.3062   6.0854   C.1       1 RES1   0.0000
    45 C17      5.9707  19.0826   5.3010   C.3       1 RES1   0.0000
    46 H22      6.2845  18.2993   4.8041   H         1 RES1   0.0000
    47 H23      6.6348  19.8005   5.2348   H         1 RES1   0.0000
    48 H24      5.1192  19.3890   4.9243   H         1 RES1   0.0000
    49 C18      7.0444  18.1685   7.2804   C.3       1 RES1   0.0000
    50 H25      7.0767  18.3148   8.2593   H         1 RES1   0.0000
    51 H26      7.8190  18.6316   6.8713   H         1 RES1   0.0000
    52 C19      5.0546  14.2573   4.3963   C.ar      1 RES1   0.0000
    53 H27      5.4938  13.4189   4.4746   H         1 RES1   0.0000
    54 C20      3.7478  18.7349  11.1596   C.ar      1 RES1   0.0000
    55 H28      3.3598  18.4216  11.9684   H         1 RES1   0.0000
    56 C21      6.7049   9.3235   5.6439   C.3       2 RES2   0.0000
    57 H29      6.5419   9.2254   6.6026   H         2 RES2   0.0000
    58 H30      7.3178   8.6195   5.3415   H         2 RES2   0.0000
    59 H31      5.8575   9.2461   5.1551   H         2 RES2   0.0000
    60 N7       7.7301  11.6544   5.2294   N.1       2 RES2   0.0000
    61 C22      7.2990  10.6301   5.3793   C.1       2 RES2   0.0000
    62 P1       4.0967  11.2438   8.4656   P.3       3 RES3  -1.0000
    63 F1       4.9933  10.3664   9.4650   F         3 RES3   0.0000
    64 F2       5.2553  11.2258   7.3736   F         3 RES3   0.0000
    65 F3       3.2063  12.1149   7.4681   F         3 RES3   0.0000
    66 F4       3.5107   9.9180   7.8407   F         3 RES3   0.0000
    67 F5       4.7137  12.5656   9.0829   F         3 RES3   0.0000
    68 F6       2.9409  11.2640   9.5569   F         3 RES3   0.0000
    69 P2       4.0123   6.2008   5.7727   P.3       4 RES4  -1.0000
    70 F7       2.8439   6.1973   4.6920   F         4 RES4   0.0000
    71 F8       3.0914   5.3357   6.7670   F         4 RES4   0.0000
    72 F9       3.4339   7.5394   6.4000   F         4 RES4   0.0000
    73 F10      4.6100   4.8627   5.1538   F         4 RES4   0.0000
    74 F11      4.9282   7.0608   4.7717   F         4 RES4   0.0000
    75 F12      5.1704   6.2025   6.8645   F         4 RES4   0.0000
    76 N8       5.8413  11.7646   2.2981   N.1       5 RES5   0.0000
    77 C23      6.2266  10.7197   2.3791   C.1       5 RES5   0.0000
    78 C24      6.6981   9.3562   2.4398   C.3       5 RES5   0.0000
    79 H32      7.1804   9.1393   1.6149   H         5 RES5   0.0000
    80 H33      5.9343   8.7503   2.5398   H         5 RES5   0.0000
    81 H34      7.3003   9.2530   3.2068   H         5 RES5   0.0000
@<TRIPOS>BOND
     1     1     2    1
     2     2     9   ar
     3     3     1    1
     4     4     1    1
     5     5     3    3
     6     6     1    1
     7     7     1    1
     8     8     1    1
     9     9    22    1
    10    10     2   ar
    11    11    10    1
    12    12    10   ar
    13    13    12    1
    14    14    15    1
    15    16    14   ar
    16    17    16    1
    17    18     4    1
    18    19    18    1
    19    20    18    1
    20    21    18    1
    21    22     4    1
    22    23    22    1
    23    24    22    1
    24    25     7   ar
    25    26     6    1
    26    27    26    1
    27    28    26    1
    28    29    30    1
    29    31    29    1
    30    32    29    1
    31    33     7   ar
    32    34    33    1
    33    35     5    1
    34    36    35    1
    35    37    35    1
    36    38    35    1
    37    39     4    1
    38    40    39    1
    39    41    39    1
    40    42    12   ar
    41    43    42    1
    42    44     8    3
    43    45     6    1
    44    46    45    1
    45    47    45    1
    46    48    45    1
    47    49     6    1
    48    50    49    1
    49    51    49    1
    50    52     9   ar
    51    53    52    1
    52    54    16   ar
    53    55    54    1
    54    14    25   ar
    55    25    26    1
    56    29    44    1
    57    33    54   ar
    58    39    49    1
    59    42    52   ar
    60    56    57    1
    61    58    56    1
    62    59    56    1
    63    60    61    3
    64    61    56    1
    65    62    63    1
    66    64    62    1
    67    65    62    1
    68    66    62    1
    69    67    62    1
    70    68    62    1
    71    69    70    1
    72    71    69    1
    73    72    69    1
    74    73    69    1
    75    74    69    1
    76    75    69    1
    77    76    77    3
    78    77    78    1
    79    78    79    1
    80    80    78    1
    81    81    78    1
@<TRIPOS>SUBSTRUCTURE
     1 RES1        1 GROUP             0 ****  ****    0  
     2 RES2       56 GROUP             0 ****  ****    0  
     3 RES3       62 GROUP             0 ****  ****    0  
     4 RES4       69 GROUP             0 ****  ****    0  
     5 RES5       76 GROUP             0 ****  ****    0  
@<TRIPOS>CRYSIN
   13.4717   17.2148   13.5022   90.0000   90.0000   90.0000    33     1
