@<TRIPOS>MOLECULE
AJAXEP
   101   106     3     0     0
SMALL
NO_CHARGES
****
Generated from the CSD

@<TRIPOS>ATOM
     1 C1      -3.2922  -3.2790  10.6841   C.1       1 RES1   0.0000
     2 C2      -5.6435  -1.1427   8.4351   C.1       1 RES1   0.0000
     3 C3      -5.1565  -0.4567  12.2014   C.ar      1 RES1   0.0000
     4 H1      -5.4426  -1.1154  11.6107   H         1 RES1   0.0000
     5 C4      -5.9529  -0.2251  13.3772   C.ar      1 RES1   0.0000
     6 H2      -6.7063  -0.7440  13.5437   H         1 RES1   0.0000
     7 C5      -5.6245   0.6751  14.1686   C.ar      1 RES1   0.0000
     8 H3      -6.1486   0.8335  14.9202   H         1 RES1   0.0000
     9 C6      -4.4440   1.4839  13.9451   C.ar      1 RES1   0.0000
    10 H4      -4.1844   2.1531  14.5358   H         1 RES1   0.0000
    11 C7      -3.7200   1.1912  12.7893   C.ar      1 RES1   0.0000
    12 C8      -2.4302   1.9426  12.5786   C.2       1 RES1   0.0000
    13 C9      -1.2516   1.1272  12.3153   C.ar      1 RES1   0.0000
    14 C10     -0.1813   1.1790  13.2078   C.ar      1 RES1   0.0000
    15 H5      -0.2206   1.7308  13.9551   H         1 RES1   0.0000
    16 C11      0.9592   0.3853  12.9701   C.ar      1 RES1   0.0000
    17 H6       1.6852   0.4165  13.5508   H         1 RES1   0.0000
    18 C12      0.9822  -0.4103  11.8983   C.ar      1 RES1   0.0000
    19 H7       1.7467  -0.9044  11.7061   H         1 RES1   0.0000
    20 C13     -0.1371  -0.5045  11.0641   C.ar      1 RES1   0.0000
    21 H8      -0.1305  -1.1055  10.3539   H         1 RES1   0.0000
    22 C14     -2.3282   3.2472  12.6626   C.2       1 RES1   0.0000
    23 C15     -2.7469   5.8340  12.6683   C.2       1 RES1   0.0000
    24 C16     -1.4376   5.7652  12.4804   C.2       1 RES1   0.0000
    25 C17     -4.9862   7.2489  11.8556   C.3       1 RES1   0.0000
    26 H9      -4.7057   6.9673  10.9702   H         1 RES1   0.0000
    27 H10     -5.6247   6.6036  12.1958   H         1 RES1   0.0000
    28 C18     -5.6235   8.6548  11.7915   C.3       1 RES1   0.0000
    29 H11     -5.0263   9.2518  11.3161   H         1 RES1   0.0000
    30 H12     -6.4526   8.6025  11.2905   H         1 RES1   0.0000
    31 C19     -5.9034   9.2147  13.1138   C.1       1 RES1   0.0000
    32 C20     -0.0733   7.4603  10.6627   C.3       1 RES1   0.0000
    33 H13      0.8581   7.6610  10.4862   H         1 RES1   0.0000
    34 H14     -0.2952   6.6588  10.1631   H         1 RES1   0.0000
    35 C21     -0.9163   8.6076  10.1119   C.3       1 RES1   0.0000
    36 H15     -1.0229   9.2907  10.7923   H         1 RES1   0.0000
    37 H16     -0.4692   9.0049   9.3489   H         1 RES1   0.0000
    38 C22     -2.2343   8.0964   9.7076   C.1       1 RES1   0.0000
    39 C23     -4.1282   2.6478   9.6906   C.ar      1 RES1   0.0000
    40 H17     -4.7903   2.2683  10.2243   H         1 RES1   0.0000
    41 C24     -4.3185   3.9188   9.2948   C.ar      1 RES1   0.0000
    42 H18     -5.0697   4.4069   9.5454   H         1 RES1   0.0000
    43 C25     -3.2864   4.4823   8.4579   C.ar      1 RES1   0.0000
    44 H19     -3.3989   5.3364   8.1063   H         1 RES1   0.0000
    45 C26     -2.1532   3.7907   8.1718   C.ar      1 RES1   0.0000
    46 H20     -1.4475   4.1810   7.7063   H         1 RES1   0.0000
    47 C27     -2.0998   2.4328   8.6216   C.ar      1 RES1   0.0000
    48 C28     -0.8783   1.6288   8.3170   C.2       1 RES1   0.0000
    49 C29     -1.0882   0.3542   7.6494   C.ar      1 RES1   0.0000
    50 C30     -0.4586   0.0991   6.4196   C.ar      1 RES1   0.0000
    51 H21      0.0948   0.7479   6.0481   H         1 RES1   0.0000
    52 C31     -0.6453  -1.1010   5.7463   C.ar      1 RES1   0.0000
    53 H22     -0.2280  -1.2587   4.9293   H         1 RES1   0.0000
    54 C32     -1.5133  -2.1163   6.3527   C.ar      1 RES1   0.0000
    55 H23     -1.6923  -2.9250   5.9285   H         1 RES1   0.0000
    56 C33     -2.0531  -1.8043   7.5953   C.ar      1 RES1   0.0000
    57 H24     -2.5664  -2.4436   8.0351   H         1 RES1   0.0000
    58 C34      0.3574   2.1167   8.5234   C.2       1 RES1   0.0000
    59 C35      2.4510   3.4589   9.3859   C.2       1 RES1   0.0000
    60 C36      2.9229   2.2862   8.9276   C.2       1 RES1   0.0000
    61 C37      2.7394   5.2358  11.6734   C.3       1 RES1   0.0000
    62 H25      2.8896   6.1722  11.8769   H         1 RES1   0.0000
    63 H26      1.8074   5.0074  11.8086   H         1 RES1   0.0000
    64 C38      3.6707   4.3275  12.4121   C.3       1 RES1   0.0000
    65 H27      3.3025   4.0387  13.2605   H         1 RES1   0.0000
    66 H28      3.9254   3.5560  11.8826   H         1 RES1   0.0000
    67 C39      4.7768   5.2749  12.5801   C.1       1 RES1   0.0000
    68 C40      4.7398   0.4243   9.8044   C.3       1 RES1   0.0000
    69 H29      4.2885  -0.2934   9.3333   H         1 RES1   0.0000
    70 H30      5.6735   0.1753   9.8728   H         1 RES1   0.0000
    71 C41      4.1709   0.4631  11.2307   C.3       1 RES1   0.0000
    72 H31      4.6824   1.0725  11.7844   H         1 RES1   0.0000
    73 H32      3.2458   0.7529  11.2207   H         1 RES1   0.0000
    74 C42      4.2771  -0.9073  11.7388   C.1       1 RES1   0.0000
    75 Fe1     -2.9941  -0.1745  10.0719   Fe        1 RES1   0.0000
    76 N1      -3.2626  -2.1228  10.8948   N.2       1 RES1   0.0000
    77 N2      -4.8069  -0.6017   9.0472   N.2       1 RES1   0.0000
    78 N3      -4.0648   0.1884  11.9040   N.ar      1 RES1   0.0000
    79 N4      -1.2150   0.2533  11.2762   N.ar      1 RES1   0.0000
    80 N5      -6.1645   9.7393  14.1401   N.1       1 RES1   0.0000
    81 N6      -3.3631   7.7684   9.4913   N.1       1 RES1   0.0000
    82 N7      -3.0547   1.8621   9.3831   N.ar      1 RES1   0.0000
    83 N8      -1.8419  -0.5120   8.2316   N.ar      1 RES1   0.0000
    84 N9       5.7131   6.0056  12.6954   N.1       1 RES1   0.0000
    85 N10      4.3558  -2.0163  12.1402   N.1       1 RES1   0.0000
    86 S1      -3.3242  -5.0059  10.3493   S.2       1 RES1   0.0000
    87 S2      -6.8913  -1.8459   7.4115   S.2       1 RES1   0.0000
    88 S3      -3.6708   4.3502  12.8840   S.3       1 RES1   0.0000
    89 S4      -0.7931   4.1057  12.4675   S.3       1 RES1   0.0000
    90 S5      -3.5542   7.3617  12.9630   S.3       1 RES1   0.0000
    91 S6      -0.2369   7.0885  12.3966   S.3       1 RES1   0.0000
    92 S7       0.7352   3.6513   9.2547   S.3       1 RES1   0.0000
    93 S8       1.8112   1.1923   8.1807   S.3       1 RES1   0.0000
    94 S9       3.3398   4.7755  10.0366   S.3       1 RES1   0.0000
    95 S10      4.6509   1.8917   8.7554   S.3       1 RES1   0.0000
    96 O1       1.9653  -2.4066   8.3454   O.3       2 RES2   0.0000
    97 H33      1.1974  -2.5335   8.6856   H         2 RES2   0.0000
    98 H34      2.5402  -2.8789   8.7568   H         2 RES2   0.0000
    99 O2       6.8981   2.8864  11.7104   O.3       3 RES3   0.0000
   100 H35      7.0848   3.5451  11.2065   H         3 RES3   0.0000
   101 H36      6.4886   3.1659  12.4021   H         3 RES3   0.0000
@<TRIPOS>BOND
     1     1    76    2
     2     2    77    2
     3     3     4    1
     4     5     3   ar
     5     6     5    1
     6     7     5   ar
     7     8     7    1
     8     9     7   ar
     9    10     9    1
    10    11     9   ar
    11    12    11    1
    12    13    12    1
    13    14    13   ar
    14    15    14    1
    15    16    14   ar
    16    17    16    1
    17    18    16   ar
    18    19    18    1
    19    20    18   ar
    20    21    20    1
    21    22    12    2
    22    23    24    2
    23    24    89    1
    24    25    26    1
    25    27    25    1
    26    28    25    1
    27    29    28    1
    28    30    28    1
    29    31    28    1
    30    32    33    1
    31    34    32    1
    32    35    32    1
    33    36    35    1
    34    37    35    1
    35    38    35    1
    36    39    40    1
    37    41    39   ar
    38    42    41    1
    39    43    41   ar
    40    44    43    1
    41    45    43   ar
    42    46    45    1
    43    47    45   ar
    44    48    47    1
    45    49    48    1
    46    50    49   ar
    47    51    50    1
    48    52    50   ar
    49    53    52    1
    50    54    52   ar
    51    55    54    1
    52    56    54   ar
    53    57    56    1
    54    58    48    2
    55    59    60    2
    56    60    93    1
    57    61    62    1
    58    63    61    1
    59    64    61    1
    60    65    64    1
    61    66    64    1
    62    67    64    1
    63    68    69    1
    64    70    68    1
    65    71    68    1
    66    72    71    1
    67    73    71    1
    68    74    71    1
    69    75    76    1
    70    77    75    1
    71    78     3   ar
    72    79    13   ar
    73    80    31    3
    74    81    38    3
    75    82    39   ar
    76    83    49   ar
    77    84    67    3
    78    85    74    3
    79    86     1    2
    80    87     2    2
    81    88    22    1
    82    89    22    1
    83    90    23    1
    84    91    24    1
    85    92    58    1
    86    93    58    1
    87    94    59    1
    88    95    60    1
    89    11    78   ar
    90    20    79   ar
    91    23    88    1
    92    25    90    1
    93    32    91    1
    94    47    82   ar
    95    56    83   ar
    96    59    92    1
    97    61    94    1
    98    68    95    1
    99    75    78    1
   100    75    79    1
   101    75    82    1
   102    75    83    1
   103    96    97    1
   104    98    96    1
   105    99   100    1
   106   101    99    1
@<TRIPOS>SUBSTRUCTURE
     1 RES1        1 GROUP             0 ****  ****    0  
     2 RES2       96 GROUP             0 ****  ****    0  
     3 RES3       99 GROUP             0 ****  ****    0  
@<TRIPOS>CRYSIN
   13.4920   14.3920   16.1480  112.3120   95.1840  115.4600     2     1
