@<TRIPOS>MOLECULE
AJEFIG
   113   120     1     0     0
SMALL
NO_CHARGES
****
Generated from the CSD

@<TRIPOS>ATOM
     1 Fe1     -3.0099   2.8149   6.8268   Fe        1 RES1   0.0000
     2 P1      -3.3332   3.5397   3.9239   P.3       1 RES1   0.0000
     3 S1      -4.3500   2.0690   4.7633   S.2       1 RES1   0.0000
     4 S2      -2.4811   4.7507   5.2226   S.2       1 RES1   0.0000
     5 O1      -4.1857   4.3374   2.8188   O.3       1 RES1   0.0000
     6 O2      -2.2842   2.8481   2.9425   O.3       1 RES1   0.0000
     7 N1      -1.2702   1.6929   6.0973   N.ar      1 RES1   0.0000
     8 C1      -5.0973   5.3723   3.0406   C.ar      1 RES1   0.0000
     9 C2      -1.2787   4.6961   1.7040   C.ar      1 RES1   0.0000
    10 H1      -2.0952   5.1384   1.6630   H         1 RES1   0.0000
    11 C3       0.0053   2.8010   2.3976   C.ar      1 RES1   0.0000
    12 H2       0.0473   1.9758   2.8235   H         1 RES1   0.0000
    13 C4      -1.1728   3.4869   2.3498   C.ar      1 RES1   0.0000
    14 C5      -0.0727   2.2719   5.9734   C.ar      1 RES1   0.0000
    15 H3       0.0040   3.1773   6.1700   H         1 RES1   0.0000
    16 C6      -0.2626  -0.3451   5.3795   C.ar      1 RES1   0.0000
    17 H4      -0.3672  -1.2476   5.1788   H         1 RES1   0.0000
    18 C7       1.0488   1.5954   5.5693   C.ar      1 RES1   0.0000
    19 H5       1.8586   2.0461   5.4983   H         1 RES1   0.0000
    20 C8      -1.3385   0.3948   5.7836   C.ar      1 RES1   0.0000
    21 H6      -2.1639  -0.0291   5.8451   H         1 RES1   0.0000
    22 C9      -5.0209   6.4425   2.1654   C.ar      1 RES1   0.0000
    23 H7      -4.3606   6.4690   1.5114   H         1 RES1   0.0000
    24 C10     -6.0790   5.2984   3.9950   C.ar      1 RES1   0.0000
    25 H8      -6.1128   4.5762   4.5808   H         1 RES1   0.0000
    26 C11      1.0372   4.5631   1.1838   C.ar      1 RES1   0.0000
    27 H9       1.7964   4.9384   0.8001   H         1 RES1   0.0000
    28 C12      1.1457   3.3384   1.8050   C.ar      1 RES1   0.0000
    29 C13      0.9862   0.2500   5.2675   C.ar      1 RES1   0.0000
    30 C14     -0.1472   5.2467   1.1128   C.ar      1 RES1   0.0000
    31 C15     -6.9191   7.3851   3.2345   C.ar      1 RES1   0.0000
    32 H10     -7.5322   8.0793   3.3123   H         1 RES1   0.0000
    33 C16      2.4566   2.6003   1.8405   C.3       1 RES1   0.0000
    34 H11      2.3586   1.7527   1.3995   H         1 RES1   0.0000
    35 H12      2.7184   2.4574   2.7526   H         1 RES1   0.0000
    36 H13      3.1288   3.1189   1.3913   H         1 RES1   0.0000
    37 C17     -7.0233   6.3150   4.0769   C.ar      1 RES1   0.0000
    38 C18     -5.9390   7.4687   2.2774   C.ar      1 RES1   0.0000
    39 C19     -0.2422   6.5736   0.3878   C.3       1 RES1   0.0000
    40 H14      0.3513   7.2065   0.8001   H         1 RES1   0.0000
    41 H15     -1.1431   6.9015   0.4383   H         1 RES1   0.0000
    42 H16      0.0049   6.4547  -0.5311   H         1 RES1   0.0000
    43 C20      2.2029  -0.5370   4.8484   C.3       1 RES1   0.0000
    44 H17      2.9914   0.0184   4.9562   H         1 RES1   0.0000
    45 H18      2.2994  -1.3045   5.4341   H         1 RES1   0.0000
    46 C21      2.1338  -1.0166   3.4216   C.3       1 RES1   0.0000
    47 H19      1.3821  -1.6047   3.3178   H         1 RES1   0.0000
    48 H20      2.9413  -1.4868   3.2018   H         1 RES1   0.0000
    49 H21      2.0328  -0.2623   2.8345   H         1 RES1   0.0000
    50 C22     -8.1630   6.2028   5.0614   C.3       1 RES1   0.0000
    51 H22     -8.3945   7.0775   5.3836   H         1 RES1   0.0000
    52 H23     -7.8966   5.6490   5.7987   H         1 RES1   0.0000
    53 H24     -8.9244   5.8112   4.6258   H         1 RES1   0.0000
    54 C23     -5.8523   8.6679   1.3503   C.3       1 RES1   0.0000
    55 H25     -6.6150   8.6775   0.7673   H         1 RES1   0.0000
    56 H26     -5.0499   8.6084   0.8260   H         1 RES1   0.0000
    57 H27     -5.8359   9.4739   1.8705   H         1 RES1   0.0000
    58 P1A     -2.6866   2.0901   9.7296   P.3       1 RES1   0.0000
    59 S1A     -1.6698   3.5609   8.8902   S.2       1 RES1   0.0000
    60 S2A     -3.5386   0.8792   8.4309   S.2       1 RES1   0.0000
    61 O1A     -1.8340   1.2924  10.8348   O.3       1 RES1   0.0000
    62 O2A     -3.7355   2.7818  10.7111   O.3       1 RES1   0.0000
    63 N1A     -4.7495   3.9370   7.5563   N.ar      1 RES1   0.0000
    64 C1A     -0.9224   0.2576  10.6129   C.ar      1 RES1   0.0000
    65 C2A     -4.7411   0.9337  11.9496   C.ar      1 RES1   0.0000
    66 H1A     -3.9246   0.4914  11.9905   H         1 RES1   0.0000
    67 C3A     -6.0251   2.8288  11.2560   C.ar      1 RES1   0.0000
    68 H2A     -6.0671   3.6540  10.8300   H         1 RES1   0.0000
    69 C4A     -4.8470   2.1429  11.3038   C.ar      1 RES1   0.0000
    70 C5A     -5.9471   3.3579   7.6801   C.ar      1 RES1   0.0000
    71 H3A     -6.0238   2.4526   7.4835   H         1 RES1   0.0000
    72 C6A     -5.7571   5.9750   8.2740   C.ar      1 RES1   0.0000
    73 H4A     -5.6526   6.8775   8.4747   H         1 RES1   0.0000
    74 C7A     -7.0686   4.0345   8.0843   C.ar      1 RES1   0.0000
    75 H5A     -7.8784   3.5837   8.1553   H         1 RES1   0.0000
    76 C8A     -4.6813   5.2350   7.8699   C.ar      1 RES1   0.0000
    77 H6A     -3.8559   5.6589   7.8085   H         1 RES1   0.0000
    78 C9A     -0.9989  -0.8126  11.4881   C.ar      1 RES1   0.0000
    79 H7A     -1.6591  -0.8392  12.1421   H         1 RES1   0.0000
    80 C10A     0.0593   0.3314   9.6585   C.ar      1 RES1   0.0000
    81 H8A      0.0931   1.0536   9.0728   H         1 RES1   0.0000
    82 C11A    -7.0570   1.0667  12.4698   C.ar      1 RES1   0.0000
    83 H9A     -7.8162   0.6914  12.8534   H         1 RES1   0.0000
    84 C12A    -7.1655   2.2915  11.8485   C.ar      1 RES1   0.0000
    85 C13A    -7.0060   5.3799   8.3860   C.ar      1 RES1   0.0000
    86 C14A    -5.8726   0.3832  12.5408   C.ar      1 RES1   0.0000
    87 C15A     0.8994  -1.7553  10.4190   C.ar      1 RES1   0.0000
    88 H10A     1.5124  -2.4495  10.3412   H         1 RES1   0.0000
    89 C16A    -8.4763   3.0295  11.8130   C.3       1 RES1   0.0000
    90 H11A    -8.3784   3.8771  12.2540   H         1 RES1   0.0000
    91 H12A    -8.7382   3.1725  10.9010   H         1 RES1   0.0000
    92 H13A    -9.1486   2.5110  12.2622   H         1 RES1   0.0000
    93 C17A     1.0035  -0.6851   9.5766   C.ar      1 RES1   0.0000
    94 C18A    -0.0808  -1.8388  11.3761   C.ar      1 RES1   0.0000
    95 C19A    -5.7776  -0.9437  13.2658   C.3       1 RES1   0.0000
    96 H14A    -6.3710  -1.5766  12.8534   H         1 RES1   0.0000
    97 H15A    -4.8767  -1.2716  13.2152   H         1 RES1   0.0000
    98 H16A    -6.0247  -0.8248  14.1846   H         1 RES1   0.0000
    99 C20A    -8.2226   6.1668   8.8052   C.3       1 RES1   0.0000
   100 H17A    -9.0112   5.6115   8.6973   H         1 RES1   0.0000
   101 H18A    -8.3192   6.9343   8.2194   H         1 RES1   0.0000
   102 C21A    -8.1536   6.6465  10.2320   C.3       1 RES1   0.0000
   103 H19A    -7.4019   7.2345  10.3357   H         1 RES1   0.0000
   104 H20A    -8.9610   7.1166  10.4518   H         1 RES1   0.0000
   105 H21A    -8.0525   5.8922  10.8191   H         1 RES1   0.0000
   106 C22A     2.1433  -0.5729   8.5922   C.3       1 RES1   0.0000
   107 H22A     2.3747  -1.4476   8.2699   H         1 RES1   0.0000
   108 H23A     1.8768  -0.0192   7.8549   H         1 RES1   0.0000
   109 H24A     2.9046  -0.1814   9.0277   H         1 RES1   0.0000
   110 C23A    -0.1675  -3.0380  12.3032   C.3       1 RES1   0.0000
   111 H25A     0.5952  -3.0476  12.8862   H         1 RES1   0.0000
   112 H26A    -0.9699  -2.9785  12.8275   H         1 RES1   0.0000
   113 H27A    -0.1838  -3.8440  11.7830   H         1 RES1   0.0000
@<TRIPOS>BOND
     1     1     3    1
     2     2     3   un
     3     4     1    1
     4     5     2    1
     5     6     2    1
     6     7     1    1
     7     8     5    1
     8     9    10    1
     9    11    12    1
    10    13     6    1
    11    14     7   ar
    12    15    14    1
    13    16    17    1
    14    18    14   ar
    15    19    18    1
    16    20     7   ar
    17    21    20    1
    18    22     8   ar
    19    23    22    1
    20    24     8   ar
    21    25    24    1
    22    26    27    1
    23    28    11   ar
    24    29    16   ar
    25    30     9   ar
    26    31    32    1
    27    33    28    1
    28    34    33    1
    29    35    33    1
    30    36    33    1
    31    37    24   ar
    32    38    22   ar
    33    39    30    1
    34    40    39    1
    35    41    39    1
    36    42    39    1
    37    43    29    1
    38    44    43    1
    39    45    43    1
    40    46    43    1
    41    47    46    1
    42    48    46    1
    43    49    46    1
    44    50    37    1
    45    51    50    1
    46    52    50    1
    47    53    50    1
    48    54    38    1
    49    55    54    1
    50    56    54    1
    51    57    54    1
    52    58    59   un
    53    59     1    1
    54    60     1    1
    55    61    58    1
    56    62    58    1
    57    63     1    1
    58    64    61    1
    59    65    66    1
    60    67    68    1
    61    69    62    1
    62    70    63   ar
    63    71    70    1
    64    72    73    1
    65    74    70   ar
    66    75    74    1
    67    76    63   ar
    68    77    76    1
    69    78    64   ar
    70    79    78    1
    71    80    64   ar
    72    81    80    1
    73    82    83    1
    74    84    67   ar
    75    85    72   ar
    76    86    65   ar
    77    87    88    1
    78    89    84    1
    79    90    89    1
    80    91    89    1
    81    92    89    1
    82    93    80   ar
    83    94    78   ar
    84    95    86    1
    85    96    95    1
    86    97    95    1
    87    98    95    1
    88    99    85    1
    89   100    99    1
    90   101    99    1
    91   102    99    1
    92   103   102    1
    93   104   102    1
    94   105   102    1
    95   106    93    1
    96   107   106    1
    97   108   106    1
    98   109   106    1
    99   110    94    1
   100   111   110    1
   101   112   110    1
   102   113   110    1
   103     2     4   un
   104     9    13   ar
   105    11    13   ar
   106    16    20   ar
   107    18    29   ar
   108    26    28   ar
   109    26    30   ar
   110    31    37   ar
   111    31    38   ar
   112    58    60   un
   113    65    69   ar
   114    67    69   ar
   115    72    76   ar
   116    74    85   ar
   117    82    84   ar
   118    82    86   ar
   119    87    93   ar
   120    87    94   ar
@<TRIPOS>SUBSTRUCTURE
     1 RES1        1 GROUP             0 ****  ****    0  
@<TRIPOS>CRYSIN
    9.5688    9.8506   14.2401   99.3260   98.6740  113.1470     2     1
