@<TRIPOS>MOLECULE
AJURII
    95    97     3     0     0
SMALL
NO_CHARGES
****
Generated from the CSD

@<TRIPOS>ATOM
     1 Ga1      5.0762   7.4866  16.6273   Ga        1 RES1   0.0000
     2 Fe1      3.8605   9.6491  16.7438   Fe        1 RES1   0.0000
     3 Cl1      7.2607   7.4251  17.0152   Cl        1 RES1   0.0000
     4 P1       1.8489   8.5242  16.8198   P.3       1 RES1   0.0000
     5 O1       3.9814   8.9754  19.6105   O.2       1 RES1   0.0000
     6 N1       6.2645  11.1600  15.5494   N.pl3     1 RES1   0.0000
     7 C1       4.0221   9.2579  18.5006   C.1       1 RES1   0.0000
     8 Cl2      4.2619   6.0360  18.1325   Cl        1 RES1   0.0000
     9 O2       2.2676  12.1234  16.8643   O.2       1 RES1   0.0000
    10 N2       6.3240  11.2551  17.6975   N.pl3     1 RES1   0.0000
    11 C2       2.9136  11.1809  16.8276   C.1       1 RES1   0.0000
    12 O3       3.4936   9.0820  13.8858   O.2       1 RES1   0.0000
    13 Cl3      4.9467   6.3095  14.7385   Cl        1 RES1   0.0000
    14 C3       3.7411   9.3382  14.9738   C.1       1 RES1   0.0000
    15 C4       1.2240   8.0521  18.4542   C.3       1 RES1   0.0000
    16 H1       0.3408   7.6382  18.3591   H         1 RES1   0.0000
    17 H2       1.1516   8.8494  19.0187   H         1 RES1   0.0000
    18 H3       1.8409   7.4135  18.8672   H         1 RES1   0.0000
    19 C5       0.4859   9.5255  16.1553   C.3       1 RES1   0.0000
    20 H4       0.7326   9.8680  15.2707   H         1 RES1   0.0000
    21 H5       0.3085  10.2765  16.7592   H         1 RES1   0.0000
    22 H6      -0.3186   8.9725  16.0795   H         1 RES1   0.0000
    23 C6       1.6587   6.9818  15.8745   C.3       1 RES1   0.0000
    24 H7       1.8998   7.1406  14.9386   H         1 RES1   0.0000
    25 H8       0.7268   6.6803  15.9258   H         1 RES1   0.0000
    26 H9       2.2454   6.2932  16.2511   H         1 RES1   0.0000
    27 C7       5.5919  10.7206  16.6551   C.3       1 RES1   0.0000
    28 C8       7.3790  11.9176  15.9013   C.2       1 RES1   0.0000
    29 H10      7.9991  12.3171  15.2996   H         1 RES1   0.0000
    30 C9       7.4185  11.9764  17.2115   C.2       1 RES1   0.0000
    31 H11      8.0710  12.4277  17.7329   H         1 RES1   0.0000
    32 C10      5.8732  11.1024  14.1500   C.ar      1 RES1   0.0000
    33 C11      5.0609  12.1316  13.6618   C.ar      1 RES1   0.0000
    34 C12      4.7151  12.0995  12.3101   C.ar      1 RES1   0.0000
    35 H12      4.1522  12.7774  11.9571   H         1 RES1   0.0000
    36 C13      5.1792  11.0917  11.4642   C.ar      1 RES1   0.0000
    37 C14      6.0456  10.1409  11.9721   C.ar      1 RES1   0.0000
    38 H13      6.3958   9.4791  11.3889   H         1 RES1   0.0000
    39 C15      6.4222  10.1266  13.3218   C.ar      1 RES1   0.0000
    40 C16      4.6153  13.2964  14.5086   C.3       1 RES1   0.0000
    41 H14      4.0700  13.9029  13.9671   H         1 RES1   0.0000
    42 H15      5.4016  13.7745  14.8450   H         1 RES1   0.0000
    43 H16      4.0856  12.9664  15.2640   H         1 RES1   0.0000
    44 C17      7.4266   9.1241  13.7977   C.3       1 RES1   0.0000
    45 H17      7.2845   8.2733  13.3342   H         1 RES1   0.0000
    46 H18      7.3218   8.9904  14.7648   H         1 RES1   0.0000
    47 H19      8.3303   9.4524  13.6106   H         1 RES1   0.0000
    48 C18      4.7550  11.0292  10.0074   C.3       1 RES1   0.0000
    49 H20      5.5473  11.0756   9.4347   H         1 RES1   0.0000
    50 H21      4.1629  11.7838   9.8068   H         1 RES1   0.0000
    51 H22      4.2787  10.1891   9.8425   H         1 RES1   0.0000
    52 C19      5.9934  11.2986  19.1007   C.ar      1 RES1   0.0000
    53 C20      6.6391  10.4673  20.0040   C.ar      1 RES1   0.0000
    54 C21      6.2302  10.5155  21.3408   C.ar      1 RES1   0.0000
    55 H23      6.6493   9.9393  21.9690   H         1 RES1   0.0000
    56 C22      5.2402  11.3717  21.7805   C.ar      1 RES1   0.0000
    57 C23      4.7137  12.2815  20.8807   C.ar      1 RES1   0.0000
    58 H24      4.0797  12.9201  21.1846   H         1 RES1   0.0000
    59 C24      5.0914  12.2832  19.5328   C.ar      1 RES1   0.0000
    60 C25      7.7789   9.5665  19.6114   C.3       1 RES1   0.0000
    61 H25      8.1191   9.8341  18.7312   H         1 RES1   0.0000
    62 H26      7.4631   8.6389  19.5691   H         1 RES1   0.0000
    63 H27      8.4960   9.6379  20.2732   H         1 RES1   0.0000
    64 C26      4.7475  11.3360  23.2079   C.3       1 RES1   0.0000
    65 H28      4.2082  12.1334  23.3862   H         1 RES1   0.0000
    66 H29      5.5141  11.3164  23.8185   H         1 RES1   0.0000
    67 H30      4.2009  10.5333  23.3438   H         1 RES1   0.0000
    68 C27      4.6111  13.4017  18.6325   C.3       1 RES1   0.0000
    69 H31      4.7121  13.1341  17.6951   H         1 RES1   0.0000
    70 H32      5.1429  14.2080  18.8003   H         1 RES1   0.0000
    71 H33      3.6675  13.5890  18.8181   H         1 RES1   0.0000
    72 C28      1.5242  10.6867  21.4565   C.ar      2 RES2   0.0000
    73 H34      2.2173  10.0428  21.5345   H         2 RES2   0.0000
    74 C29      0.5852  10.8223  22.4681   C.ar      2 RES2   0.0000
    75 H35      0.6377  10.2783  23.2458   H         2 RES2   0.0000
    76 C30     -0.4233  11.7499  22.3456   C.ar      2 RES2   0.0000
    77 H36     -1.0720  11.8391  23.0319   H         2 RES2   0.0000
    78 C31     -0.4948  12.5472  21.2269   C.ar      2 RES2   0.0000
    79 H37     -1.1908  13.1894  21.1490   H         2 RES2   0.0000
    80 C32      0.4389  12.4206  20.2175   C.ar      2 RES2   0.0000
    81 H38      0.3845  12.9718  19.4443   H         2 RES2   0.0000
    82 C33      1.4526  11.4895  20.3334   C.ar      2 RES2   0.0000
    83 H39      2.0983  11.4003  19.6426   H         2 RES2   0.0000
    84 C34      1.4130  11.5055  13.0780   C.ar      3 RES3   0.0000
    85 H40      2.1278  11.4538  13.7019   H         3 RES3   0.0000
    86 C35      0.3275  12.3082  13.3498   C.ar      3 RES3   0.0000
    87 H41      0.3025  12.8148  14.1520   H         3 RES3   0.0000
    88 C36     -0.7240  12.3796  12.4563   C.ar      3 RES3   0.0000
    89 H42     -1.4844  12.9129  12.6546   H         3 RES3   0.0000
    90 C37     -0.6612  11.6607  11.2597   C.ar      3 RES3   0.0000
    91 H43     -1.3687  11.7249  10.6291   H         3 RES3   0.0000
    92 C38      0.4318  10.8509  10.9901   C.ar      3 RES3   0.0000
    93 H44      0.4709  10.3532  10.1812   H         3 RES3   0.0000
    94 C39      1.4691  10.7759  11.9104   C.ar      3 RES3   0.0000
    95 H45      2.2197  10.2212  11.7321   H         3 RES3   0.0000
@<TRIPOS>BOND
     1     1     2    1
     2     2     4    1
     3     3     1    1
     4     4    15    1
     5     5     7    3
     6     6    27    1
     7     7     2    1
     8     8     1    1
     9     9    11    3
    10    10    27    1
    11    11     2    1
    12    12    14    3
    13    13     1    1
    14    14     2    1
    15    15    16    1
    16    17    15    1
    17    18    15    1
    18    19     4    1
    19    20    19    1
    20    21    19    1
    21    22    19    1
    22    23     4    1
    23    24    23    1
    24    25    23    1
    25    26    23    1
    26    27     2    1
    27    28     6    1
    28    29    28    1
    29    30    10    1
    30    31    30    1
    31    32     6    1
    32    33    32   ar
    33    34    33   ar
    34    35    34    1
    35    36    34   ar
    36    37    36   ar
    37    38    37    1
    38    39    32   ar
    39    40    33    1
    40    41    40    1
    41    42    40    1
    42    43    40    1
    43    44    39    1
    44    45    44    1
    45    46    44    1
    46    47    44    1
    47    48    36    1
    48    49    48    1
    49    50    48    1
    50    51    48    1
    51    52    10    1
    52    53    52   ar
    53    54    53   ar
    54    55    54    1
    55    56    54   ar
    56    57    56   ar
    57    58    57    1
    58    59    52   ar
    59    60    53    1
    60    61    60    1
    61    62    60    1
    62    63    60    1
    63    64    56    1
    64    65    64    1
    65    66    64    1
    66    67    64    1
    67    68    59    1
    68    69    68    1
    69    70    68    1
    70    71    68    1
    71    28    30    2
    72    37    39   ar
    73    57    59   ar
    74    72    73    1
    75    74    72   ar
    76    75    74    1
    77    76    74   ar
    78    77    76    1
    79    78    76   ar
    80    79    78    1
    81    80    78   ar
    82    81    80    1
    83    82    72   ar
    84    83    82    1
    85    80    82   ar
    86    84    85    1
    87    86    84   ar
    88    87    86    1
    89    88    86   ar
    90    89    88    1
    91    90    88   ar
    92    91    90    1
    93    92    90   ar
    94    93    92    1
    95    94    84   ar
    96    95    94    1
    97    92    94   ar
@<TRIPOS>SUBSTRUCTURE
     1 RES1        1 GROUP             0 ****  ****    0  
     2 RES2       72 GROUP             0 ****  ****    0  
     3 RES3       84 GROUP             0 ****  ****    0  
@<TRIPOS>CRYSIN
    9.8260   17.8380   22.7150   90.0000  101.1900   90.0000    14     1
