@<TRIPOS>MOLECULE
AKEQEM
    91   102     1     0     0
SMALL
NO_CHARGES
****
Generated from the CSD

@<TRIPOS>ATOM
     1 Fe1      8.0145   0.0000  14.1059   Fe        1 RES1   0.0000
     2 N1       8.4136  -2.1624  14.0721   N.ar      1 RES1   0.0000
     3 N2       7.4265  -3.0288  13.6686   N.ar      1 RES1   0.0000
     4 N3       6.0539  -0.5101  14.8507   N.ar      1 RES1   0.0000
     5 N4       5.4582  -1.5815  14.2540   N.ar      1 RES1   0.0000
     6 N5       7.1432  -0.2709  12.1367   N.ar      1 RES1   0.0000
     7 N6       6.5183  -1.4668  11.9350   N.ar      1 RES1   0.0000
     8 N7       5.0832  -4.7250  12.8703   N.ar      1 RES1   0.0000
     9 N8       5.0932  -3.3900  12.6051   N.ar      1 RES1   0.0000
    10 C1       9.4309  -2.9226  14.4967   C.ar      1 RES1   0.0000
    11 C2       9.0999  -4.2625  14.3711   C.ar      1 RES1   0.0000
    12 C3       7.8276  -4.2833  13.8534   C.ar      1 RES1   0.0000
    13 C4      10.7087  -2.3369  14.9974   C.3       1 RES1   0.0000
    14 C5       5.2416  -0.1110  15.8311   C.ar      1 RES1   0.0000
    15 C6       4.1266  -0.9335  15.8889   C.ar      1 RES1   0.0000
    16 C7       4.3071  -1.8427  14.8888   C.ar      1 RES1   0.0000
    17 C8       5.5484   1.0665  16.6930   C.3       1 RES1   0.0000
    18 C9       7.3917   0.2465  10.9307   C.ar      1 RES1   0.0000
    19 C10      6.9572  -0.6382   9.9348   C.ar      1 RES1   0.0000
    20 C11      6.4347  -1.6999  10.6175   C.ar      1 RES1   0.0000
    21 C12      8.0458   1.5766  10.7445   C.3       1 RES1   0.0000
    22 C13      3.9131  -5.1692  12.4132   C.ar      1 RES1   0.0000
    23 C14      3.1622  -4.1429  11.8617   C.ar      1 RES1   0.0000
    24 C15      3.9340  -3.0361  11.9929   C.ar      1 RES1   0.0000
    25 C16      3.5770  -6.6201  12.4922   C.3       1 RES1   0.0000
    26 B1       6.1350  -2.3930  13.1101   B         1 RES1   0.0000
    27 H1       9.7134  -5.0789  14.6152   H         1 RES1   0.0000
    28 H2       7.3946  -5.1143  13.5770   H         1 RES1   0.0000
    29 H3       3.3999  -0.9726  16.5307   H         1 RES1   0.0000
    30 H4       3.6237  -2.5834  14.6250   H         1 RES1   0.0000
    31 H5       7.0290  -0.5272   8.9051   H         1 RES1   0.0000
    32 H6       6.0108  -2.5028  10.1774   H         1 RES1   0.0000
    33 H7       2.2274  -4.2381  11.4188   H         1 RES1   0.0000
    34 H8       3.6924  -2.1917  11.5161   H         1 RES1   0.0000
    35 H9      11.3259  -3.0495  15.3331   H         1 RES1   0.0000
    36 H10     11.1527  -1.7951  14.4360   H         1 RES1   0.0000
    37 H11     10.5309  -1.8243  15.8565   H         1 RES1   0.0000
    38 H12      6.3229   0.9323  17.2628   H         1 RES1   0.0000
    39 H13      5.6903   1.9037  16.2331   H         1 RES1   0.0000
    40 H14      4.8158   1.2850  17.3545   H         1 RES1   0.0000
    41 H15      8.9235   1.5742  11.2311   H         1 RES1   0.0000
    42 H16      8.2239   1.8219   9.8699   H         1 RES1   0.0000
    43 H17      7.5325   2.2588  11.1874   H         1 RES1   0.0000
    44 H18      2.6447  -6.7739  12.1762   H         1 RES1   0.0000
    45 H19      4.1332  -7.2071  12.1283   H         1 RES1   0.0000
    46 H20      3.4689  -6.8666  13.4881   H         1 RES1   0.0000
    47 N1B      7.6154   2.1624  14.1398   N.ar      1 RES1   0.0000
    48 N2B      8.6024   3.0288  14.5432   N.ar      1 RES1   0.0000
    49 C3B      8.2014   4.2833  14.3584   C.ar      1 RES1   0.0000
    50 C2B      6.9291   4.2625  13.8407   C.ar      1 RES1   0.0000
    51 C1B      6.5981   2.9226  13.7152   C.ar      1 RES1   0.0000
    52 C4B      5.3202   2.3369  13.2144   C.3       1 RES1   0.0000
    53 H9B      4.7030   3.0495  12.8787   H         1 RES1   0.0000
    54 H10B     4.8763   1.7951  13.7759   H         1 RES1   0.0000
    55 H11B     5.4981   1.8243  12.3554   H         1 RES1   0.0000
    56 H1B      6.3155   5.0789  13.5967   H         1 RES1   0.0000
    57 H2B      8.6343   5.1143  14.6349   H         1 RES1   0.0000
    58 B1B      9.8939   2.3930  15.1018   B         1 RES1   0.0000
    59 N4B     10.5708   1.5815  13.9578   N.ar      1 RES1   0.0000
    60 N3B      9.9751   0.5101  13.3611   N.ar      1 RES1   0.0000
    61 N5B      8.8857   0.2709  16.0751   N.ar      1 RES1   0.0000
    62 N6B      9.5106   1.4668  16.2768   N.ar      1 RES1   0.0000
    63 C11B     9.5943   1.6999  17.5943   C.ar      1 RES1   0.0000
    64 C10B     9.0717   0.6382  18.2771   C.ar      1 RES1   0.0000
    65 C9B      8.6373  -0.2465  17.2812   C.ar      1 RES1   0.0000
    66 C12B     7.9831  -1.5766  17.4674   C.3       1 RES1   0.0000
    67 H15B     7.1054  -1.5742  16.9807   H         1 RES1   0.0000
    68 H16B     7.8050  -1.8219  18.3419   H         1 RES1   0.0000
    69 H17B     8.4964  -2.2588  17.0244   H         1 RES1   0.0000
    70 H5B      8.9999   0.5272  19.3068   H         1 RES1   0.0000
    71 H6B     10.0181   2.5028  18.0344   H         1 RES1   0.0000
    72 N8B     10.9357   3.3900  15.6068   N.ar      1 RES1   0.0000
    73 N7B     10.9457   4.7250  15.3416   N.ar      1 RES1   0.0000
    74 C13B    12.1158   5.1692  15.7986   C.ar      1 RES1   0.0000
    75 C14B    12.8667   4.1429  16.3502   C.ar      1 RES1   0.0000
    76 C15B    12.0950   3.0361  16.2190   C.ar      1 RES1   0.0000
    77 H8B     12.3365   2.1917  16.6958   H         1 RES1   0.0000
    78 H7B     13.8015   4.2381  16.7931   H         1 RES1   0.0000
    79 C16B    12.4519   6.6201  15.7196   C.3       1 RES1   0.0000
    80 H18B    13.3843   6.7739  16.0356   H         1 RES1   0.0000
    81 H19B    11.8958   7.2071  16.0836   H         1 RES1   0.0000
    82 H20B    12.5601   6.8666  14.7238   H         1 RES1   0.0000
    83 C5B     10.7873   0.1110  12.3808   C.ar      1 RES1   0.0000
    84 C6B     11.9024   0.9335  12.3229   C.ar      1 RES1   0.0000
    85 C7B     11.7218   1.8427  13.3231   C.ar      1 RES1   0.0000
    86 H4B     12.4052   2.5834  13.5868   H         1 RES1   0.0000
    87 H3B     12.6290   0.9726  11.6811   H         1 RES1   0.0000
    88 C8B     10.4805  -1.0665  11.5189   C.3       1 RES1   0.0000
    89 H12B     9.7060  -0.9323  10.9490   H         1 RES1   0.0000
    90 H13B    10.3386  -1.9037  11.9788   H         1 RES1   0.0000
    91 H14B    11.2132  -1.2850  10.8573   H         1 RES1   0.0000
@<TRIPOS>BOND
     1     1     2    1
     2     2     3   ar
     3     3    12   ar
     4     4     1    1
     5     5     4   ar
     6     6     1    1
     7     7     6   ar
     8     8     9   ar
     9     9    24   ar
    10    10     2   ar
    11    11    10   ar
    12    12    11   ar
    13    13    10    1
    14    14     4   ar
    15    15    14   ar
    16    16     5   ar
    17    17    14    1
    18    18     6   ar
    19    19    18   ar
    20    20     7   ar
    21    21    18    1
    22    22     8   ar
    23    23    22   ar
    24    24    23   ar
    25    25    22    1
    26    26     3    1
    27    27    11    1
    28    28    12    1
    29    29    15    1
    30    30    16    1
    31    31    19    1
    32    32    20    1
    33    33    23    1
    34    34    24    1
    35    35    13    1
    36    36    13    1
    37    37    13    1
    38    38    17    1
    39    39    17    1
    40    40    17    1
    41    41    21    1
    42    42    21    1
    43    43    21    1
    44    44    25    1
    45    45    25    1
    46    46    25    1
    47    47     1    1
    48    48    47   ar
    49    49    48   ar
    50    50    49   ar
    51    51    47   ar
    52    52    51    1
    53    53    52    1
    54    54    52    1
    55    55    52    1
    56    56    50    1
    57    57    49    1
    58    58    48    1
    59    59    58    1
    60    60     1    1
    61    61     1    1
    62    62    58    1
    63    63    62   ar
    64    64    63   ar
    65    65    61   ar
    66    66    65    1
    67    67    66    1
    68    68    66    1
    69    69    66    1
    70    70    64    1
    71    71    63    1
    72    72    58    1
    73    73    72   ar
    74    74    73   ar
    75    75    74   ar
    76    76    72   ar
    77    77    76    1
    78    78    75    1
    79    79    74    1
    80    80    79    1
    81    81    79    1
    82    82    79    1
    83    83    60   ar
    84    84    83   ar
    85    85    59   ar
    86    86    85    1
    87    87    84    1
    88    88    83    1
    89    89    88    1
    90    90    88    1
    91    91    88    1
    92     5    26    1
    93     7    26    1
    94     9    26    1
    95    15    16   ar
    96    19    20   ar
    97    50    51   ar
    98    59    60   ar
    99    61    62   ar
   100    64    65   ar
   101    75    76   ar
   102    84    85   ar
@<TRIPOS>SUBSTRUCTURE
     1 RES1        1 GROUP             0 ****  ****    0  
@<TRIPOS>CRYSIN
   10.1050   12.2030   14.2600   90.0000   98.4300   90.0000    14     1
