@<TRIPOS>MOLECULE
AKIWIC
   142   152     2     0     0
SMALL
NO_CHARGES
****
Generated from the CSD

@<TRIPOS>ATOM
     1 Fe1      2.1766   0.8799  14.3464   Fe        1 RES1   0.0000
     2 O1       1.7030  -2.8809   9.7427   O.2       1 RES1   0.0000
     3 C1       0.6534  -0.9821  16.0623   C.2       1 RES1   0.0000
     4 C2       4.7498   5.0549  18.4317   C.ar      1 RES1   0.0000
     5 H1       5.0639   4.5687  19.1583   H         1 RES1   0.0000
     6 C3       5.2369   1.8815  15.1190   C.ar      1 RES1   0.0000
     7 C4       4.4648  -3.4954  10.1501   C.ar      1 RES1   0.0000
     8 H2       3.7389  -3.9290   9.7619   H         1 RES1   0.0000
     9 C5       2.3456  -5.2163  15.2597   C.ar      1 RES1   0.0000
    10 H3       1.7203  -5.4936  14.6304   H         1 RES1   0.0000
    11 C6       3.8189  -3.5437  16.1179   C.ar      1 RES1   0.0000
    12 C7       4.4981   2.6916  14.1299   C.2       1 RES1   0.0000
    13 C8      -1.4801  -0.3214  10.3425   C.ar      1 RES1   0.0000
    14 C9      -1.4688  -2.0991  15.4273   C.ar      1 RES1   0.0000
    15 C10     -2.2301  -2.9059  13.3321   C.ar      1 RES1   0.0000
    16 H4      -2.0741  -3.0851  12.4329   H         1 RES1   0.0000
    17 C11      3.6260  -5.6546  17.1916   C.ar      1 RES1   0.0000
    18 H5       3.8616  -6.2341  17.8786   H         1 RES1   0.0000
    19 N1       3.3760   3.1738  17.6261   N.am      1 RES1   0.0000
    20 C12      2.7454  -6.0519  16.2622   C.ar      1 RES1   0.0000
    21 H6       2.4000  -6.9144  16.3026   H         1 RES1   0.0000
    22 O2       3.2853   2.5246  13.8928   O.2       1 RES1   0.0000
    23 C13      3.0123   6.0200  11.6285   C.ar      1 RES1   0.0000
    24 H7       2.1137   6.1659  11.4361   H         1 RES1   0.0000
    25 N2       5.1781   3.6671  13.5185   N.am      1 RES1   0.0000
    26 C14      5.7530  -3.9021   9.8736   C.ar      1 RES1   0.0000
    27 H8       5.8907  -4.6115   9.2886   H         1 RES1   0.0000
    28 C15      7.9129   2.4345  17.7699   C.3       1 RES1   0.0000
    29 H9       8.4739   3.0106  17.2455   H         1 RES1   0.0000
    30 H10      8.4516   1.7651  18.1980   H         1 RES1   0.0000
    31 H11      7.4562   2.9525  18.4367   H         1 RES1   0.0000
    32 C16      0.7681  -1.0593  10.9438   C.ar      1 RES1   0.0000
    33 N3       4.3466  -2.2467  15.9722   N.am      1 RES1   0.0000
    34 C17      5.3343  -1.6486  16.6257   C.2       1 RES1   0.0000
    35 C18     -0.4202  -1.2078  10.2499   C.ar      1 RES1   0.0000
    36 H12     -0.5120  -1.9447   9.6888   H         1 RES1   0.0000
    37 C19      3.5127   2.2760  18.6270   C.2       1 RES1   0.0000
    38 C20     -0.1262   0.9875  11.8879   C.ar      1 RES1   0.0000
    39 C21     -0.9459   6.9791  14.2673   C.ar      1 RES1   0.0000
    40 H13     -1.0775   7.7972  14.6901   H         1 RES1   0.0000
    41 O3       6.0142  -2.2075  17.4678   O.2       1 RES1   0.0000
    42 C22      3.8951   6.5175  16.2641   C.ar      1 RES1   0.0000
    43 H14      3.6076   7.0056  15.5252   H         1 RES1   0.0000
    44 C23      2.4598  -1.2564  19.3469   C.ar      1 RES1   0.0000
    45 C24      3.9523   6.8635  11.1532   C.ar      1 RES1   0.0000
    46 H15      3.6982   7.5910  10.6317   H         1 RES1   0.0000
    47 C25      6.8314  -3.2877  10.4412   C.ar      1 RES1   0.0000
    48 H16      7.6951  -3.5521  10.2199   H         1 RES1   0.0000
    49 C26      2.8873   0.9424  18.3924   C.ar      1 RES1   0.0000
    50 C27      2.1410   0.6012  17.2407   C.ar      1 RES1   0.0000
    51 C28      6.9051   1.7683  16.8768   C.ar      1 RES1   0.0000
    52 C29     -0.2130   6.0114  14.8584   C.ar      1 RES1   0.0000
    53 H17      0.1699   6.1755  15.6907   H         1 RES1   0.0000
    54 O4       4.0991   2.5290  19.6861   O.2       1 RES1   0.0000
    55 N4      -0.4678   3.3137  12.3403   N.am      1 RES1   0.0000
    56 C30      2.8968  -3.9431  15.2000   C.ar      1 RES1   0.0000
    57 H18      2.6331  -3.3580  14.5284   H         1 RES1   0.0000
    58 C31      4.8608   0.5318  15.3103   C.ar      1 RES1   0.0000
    59 C32     -2.7555  -0.5354   9.5630   C.3       1 RES1   0.0000
    60 H19     -3.3942   0.1401   9.8024   H         1 RES1   0.0000
    61 H20     -3.1143  -1.4023   9.7677   H         1 RES1   0.0000
    62 H21     -2.5688  -0.4807   8.6228   H         1 RES1   0.0000
    63 C33      5.2726   6.6590  11.4284   C.ar      1 RES1   0.0000
    64 H22      5.9095   7.2492  11.0974   H         1 RES1   0.0000
    65 C34      4.6992   4.7206  12.6892   C.ar      1 RES1   0.0000
    66 C35      3.4479   5.2233  16.4500   C.ar      1 RES1   0.0000
    67 H23      2.8620   4.8425  15.8350   H         1 RES1   0.0000
    68 C36      2.6860  -2.2735  20.4595   C.3       1 RES1   0.0000
    69 H24      3.6009  -2.5627  20.4495   H         1 RES1   0.0000
    70 H25      2.1110  -3.0303  20.3225   H         1 RES1   0.0000
    71 H26      2.4877  -1.8695  21.3077   H         1 RES1   0.0000
    72 C37      5.5937  -0.2061  16.2784   C.ar      1 RES1   0.0000
    73 C38      5.6738   5.5673  12.2018   C.ar      1 RES1   0.0000
    74 H27      6.5732   5.4160  12.3828   H         1 RES1   0.0000
    75 C39      6.2037   2.4639  15.9053   C.ar      1 RES1   0.0000
    76 H28      6.3972   3.3650  15.7792   H         1 RES1   0.0000
    77 N5       3.0051  -1.8902  11.3016   N.am      1 RES1   0.0000
    78 C40     -1.2964   0.7866  11.1559   C.ar      1 RES1   0.0000
    79 H29     -1.9778   1.4163  11.2167   H         1 RES1   0.0000
    80 C41      1.6719  -1.5535  18.2614   C.ar      1 RES1   0.0000
    81 H30      1.2424  -2.3770  18.2231   H         1 RES1   0.0000
    82 C42      4.2678  -2.4325  11.0139   C.ar      1 RES1   0.0000
    83 C43      6.6270  -2.2872  11.3264   C.ar      1 RES1   0.0000
    84 H31      7.3537  -1.8869  11.7478   H         1 RES1   0.0000
    85 C44      1.8527  -2.0372  10.6142   C.2       1 RES1   0.0000
    86 C45      5.1641   6.3617  18.2231   C.ar      1 RES1   0.0000
    87 H32      5.7416   6.7584  18.8331   H         1 RES1   0.0000
    88 C46     -1.2188  -2.3749  14.1026   C.ar      1 RES1   0.0000
    89 H33     -0.3822  -2.2052  13.7337   H         1 RES1   0.0000
    90 C47     -3.4576  -3.1731  13.8645   C.ar      1 RES1   0.0000
    91 H34     -4.1242  -3.5443  13.3334   H         1 RES1   0.0000
    92 C48     -3.7072  -2.8925  15.1823   C.ar      1 RES1   0.0000
    93 H35     -4.5425  -3.0735  15.5483   H         1 RES1   0.0000
    94 C49      3.8653   4.4942  17.5417   C.ar      1 RES1   0.0000
    95 C50      0.0273   2.1523  12.7594   C.2       1 RES1   0.0000
    96 C51     -0.5713   4.5463  13.0369   C.ar      1 RES1   0.0000
    97 N6      -0.4909  -1.6059  16.3224   N.am      1 RES1   0.0000
    98 C52     -0.0220   4.7920  14.2602   C.ar      1 RES1   0.0000
    99 H36      0.4795   4.1350  14.6862   H         1 RES1   0.0000
   100 C53      0.9192   0.0389  11.8215   C.ar      1 RES1   0.0000
   101 C54      4.1854  -4.3948  17.1378   C.ar      1 RES1   0.0000
   102 H37      4.8008  -4.1244  17.7805   H         1 RES1   0.0000
   103 C55      5.3508  -1.8591  11.6093   C.ar      1 RES1   0.0000
   104 H38      5.2245  -1.1661  12.2173   H         1 RES1   0.0000
   105 C56     -1.2937   5.5299  12.4413   C.ar      1 RES1   0.0000
   106 H39     -1.6657   5.3804  11.6016   H         1 RES1   0.0000
   107 O5       0.9927  -0.7069  14.8763   O.2       1 RES1   0.0000
   108 C57     -2.7181  -2.3414  15.9605   C.ar      1 RES1   0.0000
   109 H40     -2.8895  -2.1304  16.8491   H         1 RES1   0.0000
   110 C58      1.5021  -0.6497  17.2178   C.ar      1 RES1   0.0000
   111 C59      3.0245  -0.0035  19.3955   C.ar      1 RES1   0.0000
   112 H41      3.5276   0.2216  20.1454   H         1 RES1   0.0000
   113 C60      4.7441   7.0717  17.1493   C.ar      1 RES1   0.0000
   114 H42      5.0421   7.9430  17.0223   H         1 RES1   0.0000
   115 O6       2.0001   1.4436  16.2097   O.3       1 RES1   0.0000
   116 O7       2.0352   0.2184  12.5227   O.3       1 RES1   0.0000
   117 C61      6.5736   0.4272  17.0036   C.ar      1 RES1   0.0000
   118 H43      7.0476  -0.0794  17.6227   H         1 RES1   0.0000
   119 O8       0.5915   2.0657  13.8878   O.2       1 RES1   0.0000
   120 C62      3.3838   4.9407  12.4021   C.ar      1 RES1   0.0000
   121 H44      2.7354   4.3615  12.7311   H         1 RES1   0.0000
   122 C63     -1.4813   6.7414  13.0563   C.ar      1 RES1   0.0000
   123 H45     -1.9826   7.4011  12.6349   H         1 RES1   0.0000
   124 O9       3.8846  -0.0170  14.5971   O.3       1 RES1   0.0000
   125 H46     -0.7511  -1.5661  17.1609   H         1 RES1   0.0000
   126 H47      2.8788   2.8330  16.9011   H         1 RES1   0.0000
   127 H48      3.0187  -1.2543  11.8190   H         1 RES1   0.0000
   128 H49      3.9696  -1.8515  15.4174   H         1 RES1   0.0000
   129 H50      5.9798   3.6666  13.6278   H         1 RES1   0.0000
   130 H51     -0.6669   3.3071  11.4957   H         1 RES1   0.0000
   131 N7       9.8983  11.4146   5.0401   N.am      2 RES2   0.0000
   132 C64     10.1712  10.1140   5.1879   C.2       2 RES2   0.0000
   133 H52      9.6163   9.5297   4.7222   H         2 RES2   0.0000
   134 O10     11.0499   9.5942   5.8497   O.2       2 RES2   0.0000
   135 C65      8.8823  11.8970   4.0987   C.3       2 RES2   0.0000
   136 H53      9.3109  12.3558   3.3714   H         2 RES2   0.0000
   137 H54      8.2881  12.5005   4.5510   H         2 RES2   0.0000
   138 H55      8.3831  11.1516   3.7562   H         2 RES2   0.0000
   139 C66     10.6984  12.3724   5.7267   C.3       2 RES2   0.0000
   140 H56     11.1480  11.9448   6.4599   H         2 RES2   0.0000
   141 H57     10.1376  13.0765   6.0615   H         2 RES2   0.0000
   142 H58     11.3477  12.7395   5.1225   H         2 RES2   0.0000
@<TRIPOS>BOND
     1     1    22    1
     2     2    85    2
     3     3    97   am
     4     4     5    1
     5     6    12    1
     6     7     8    1
     7     9    10    1
     8    11    33    1
     9    12    22    2
    10    13    35   ar
    11    14    88   ar
    12    15    16    1
    13    17    18    1
    14    19    37   am
    15    20     9   ar
    16    21    20    1
    17    23    24    1
    18    25    12   am
    19    26     7   ar
    20    27    26    1
    21    28    29    1
    22    30    28    1
    23    31    28    1
    24    32    35   ar
    25    33    34   am
    26    34    41    2
    27    35    36    1
    28    37    49    1
    29    38    78   ar
    30    39    40    1
    31    42    43    1
    32    44    68    1
    33    45    23   ar
    34    46    45    1
    35    47    26   ar
    36    48    47    1
    37    49    50   ar
    38    50   110   ar
    39    51    28    1
    40    52    39   ar
    41    53    52    1
    42    54    37    2
    43    55    95   am
    44    56     9   ar
    45    57    56    1
    46    58     6   ar
    47    59    13    1
    48    60    59    1
    49    61    59    1
    50    62    59    1
    51    63    45   ar
    52    64    63    1
    53    65    25    1
    54    66    42   ar
    55    67    66    1
    56    68    69    1
    57    70    68    1
    58    71    68    1
    59    72    34    1
    60    73    63   ar
    61    74    73    1
    62    75     6   ar
    63    76    75    1
    64    77    82    1
    65    78    13   ar
    66    79    78    1
    67    80    44   ar
    68    81    80    1
    69    82     7   ar
    70    83    47   ar
    71    84    83    1
    72    85    32    1
    73    86     4   ar
    74    87    86    1
    75    88    15   ar
    76    89    88    1
    77    90    15   ar
    78    91    90    1
    79    92    90   ar
    80    93    92    1
    81    94     4   ar
    82    95    38    1
    83    96    55    1
    84    97    14    1
    85    98    52   ar
    86    99    98    1
    87   100    32   ar
    88   101    11   ar
    89   102   101    1
    90   103    82   ar
    91   104   103    1
    92   105    96   ar
    93   106   105    1
    94   107     1    1
    95   108    14   ar
    96   109   108    1
    97   110     3    1
    98   111    44   ar
    99   112   111    1
   100   113    42   ar
   101   114   113    1
   102   115     1    1
   103   116     1    1
   104   117    51   ar
   105   118   117    1
   106   119     1    1
   107   120    23   ar
   108   121   120    1
   109   122    39   ar
   110   123   122    1
   111   124     1    1
   112   125    97    1
   113   126    19    1
   114   127    77    1
   115   128    33    1
   116   129    25    1
   117   130    55    1
   118     3   107    2
   119    11    56   ar
   120    17    20   ar
   121    17   101   ar
   122    19    94    1
   123    38   100   ar
   124    49   111   ar
   125    50   115    1
   126    51    75   ar
   127    58    72   ar
   128    58   124    1
   129    65    73   ar
   130    65   120   ar
   131    66    94   ar
   132    72   117   ar
   133    77    85   am
   134    80   110   ar
   135    83   103   ar
   136    86   113   ar
   137    92   108   ar
   138    95   119    2
   139    96    98   ar
   140   100   116    1
   141   105   122   ar
   142   131   132   am
   143   132   133    1
   144   134   132    2
   145   135   131    1
   146   136   135    1
   147   137   135    1
   148   138   135    1
   149   139   131    1
   150   140   139    1
   151   141   139    1
   152   142   139    1
@<TRIPOS>SUBSTRUCTURE
     1 RES1        1 GROUP             0 ****  ****    0  
     2 RES2      131 GROUP             0 ****  ****    0  
@<TRIPOS>CRYSIN
   12.4923   13.5095   19.2960   86.4510   86.4460   66.5850     2     1
