@<TRIPOS>MOLECULE
AKUSIL
    96   102     4     0     0
SMALL
USER_CHARGES
****
Generated from the CSD

@<TRIPOS>ATOM
     1 Fe1      0.6368   4.3765   5.0373   Fe        1 RES1   2.0000
     2 N1      -2.2717   4.5669   5.3674   N.pl3     1 RES1   0.0000
     3 N2      -1.5387   2.6844   6.0709   N.pl3     1 RES1   0.0000
     4 N3       0.6832   1.8442   6.5578   N.pl3     1 RES1   0.0000
     5 N4       2.6057   2.7743   6.5123   N.pl3     1 RES1   0.0000
     6 N5       3.5720   4.4808   5.1084   N.pl3     1 RES1   0.0000
     7 N6       2.7965   5.6098   3.4760   N.pl3     1 RES1   0.0000
     8 N7       0.5706   6.4450   2.9651   N.pl3     1 RES1   0.0000
     9 N8      -1.3120   6.2876   3.9597   N.pl3     1 RES1   0.0000
    10 N9       0.5311   3.3205   3.4510   N.1       1 RES1   0.0000
    11 N10      0.6886   5.4731   6.5897   N.1       1 RES1   0.0000
    12 C1      -1.1323   3.8429   5.5094   C.3       1 RES1   0.0000
    13 C2      -3.3725   3.8584   5.8538   C.2       1 RES1   0.0000
    14 C3      -2.9152   2.6818   6.2808   C.2       1 RES1   0.0000
    15 C4      -0.6993   1.5037   6.2568   C.3       1 RES1   0.0000
    16 C5       1.3284   2.9278   6.0732   C.3       1 RES1   0.0000
    17 C6       1.5416   1.0338   7.2896   C.2       1 RES1   0.0000
    18 C7       2.7429   1.6158   7.2646   C.2       1 RES1   0.0000
    19 C8       3.6201   3.8083   6.3967   C.3       1 RES1   0.0000
    20 C9       2.4047   4.8795   4.5401   C.3       1 RES1   0.0000
    21 C10      4.6716   4.9439   4.3905   C.2       1 RES1   0.0000
    22 C11      4.1866   5.6403   3.3614   C.2       1 RES1   0.0000
    23 C12      1.8915   6.0992   2.4417   C.3       1 RES1   0.0000
    24 C13     -0.0497   5.7946   3.9747   C.3       1 RES1   0.0000
    25 C14     -0.2961   7.3204   2.3252   C.2       1 RES1   0.0000
    26 C15     -1.4722   7.2286   2.9498   C.2       1 RES1   0.0000
    27 C16     -2.3032   5.9720   4.9772   C.3       1 RES1   0.0000
    28 C17      0.4239   2.8410   2.4173   C.1       1 RES1   0.0000
    29 C18      0.2683   2.3189   1.0822   C.ar      1 RES1   0.0000
    30 C19      1.3177   2.4219   0.1703   C.ar      1 RES1   0.0000
    31 C20      1.1292   1.9691  -1.1228   C.ar      1 RES1   0.0000
    32 C21     -0.0730   1.4007  -1.4918   C.ar      1 RES1   0.0000
    33 C22     -1.1055   1.2922  -0.5797   C.ar      1 RES1   0.0000
    34 C23     -0.9496   1.7578   0.7084   C.ar      1 RES1   0.0000
    35 C24      0.6997   6.0663   7.5662   C.1       1 RES1   0.0000
    36 C25      0.7235   6.7146   8.8498   C.ar      1 RES1   0.0000
    37 C26      0.4884   5.9409   9.9830   C.ar      1 RES1   0.0000
    38 C27      0.5412   6.5311  11.2302   C.ar      1 RES1   0.0000
    39 C28      0.8435   7.8726  11.3507   C.ar      1 RES1   0.0000
    40 C29      1.0665   8.6360  10.2280   C.ar      1 RES1   0.0000
    41 C30      0.9946   8.0774   8.9667   C.ar      1 RES1   0.0000
    42 H1      -4.2738   4.1580   5.8763   H         1 RES1   0.0000
    43 H2      -3.4296   1.9774   6.6554   H         1 RES1   0.0000
    44 H3      -1.0671   0.9577   6.9973   H         1 RES1   0.0000
    45 H4      -0.7265   0.9542   5.4341   H         1 RES1   0.0000
    46 H5       1.3165   0.2205   7.7255   H         1 RES1   0.0000
    47 H6       3.5352   1.2987   7.6811   H         1 RES1   0.0000
    48 H7       4.5144   3.4018   6.5190   H         1 RES1   0.0000
    49 H8       3.4881   4.4749   7.1173   H         1 RES1   0.0000
    50 H9       5.5878   4.7936   4.5942   H         1 RES1   0.0000
    51 H10      4.6904   6.0733   2.6826   H         1 RES1   0.0000
    52 H11      1.7908   5.4033   1.7456   H         1 RES1   0.0000
    53 H12      2.2908   6.8984   2.0152   H         1 RES1   0.0000
    54 H13     -0.0911   7.8784   1.5845   H         1 RES1   0.0000
    55 H14     -2.2641   7.7114   2.7434   H         1 RES1   0.0000
    56 H15     -3.2041   6.1922   4.6320   H         1 RES1   0.0000
    57 H16     -2.1387   6.5332   5.7760   H         1 RES1   0.0000
    58 H17      2.1486   2.7972   0.4339   H         1 RES1   0.0000
    59 H18      1.8311   2.0497  -1.7588   H         1 RES1   0.0000
    60 H19     -0.1919   1.0817  -2.3785   H         1 RES1   0.0000
    61 H20     -1.9282   0.8939  -0.8416   H         1 RES1   0.0000
    62 H21     -1.6639   1.6966   1.3331   H         1 RES1   0.0000
    63 H22      0.2939   5.0140   9.8985   H         1 RES1   0.0000
    64 H23      0.3669   6.0130  12.0074   H         1 RES1   0.0000
    65 H24      0.8996   8.2694  12.2112   H         1 RES1   0.0000
    66 H25      1.2705   9.5595  10.3209   H         1 RES1   0.0000
    67 H26      1.1276   8.6122   8.1923   H         1 RES1   0.0000
    68 P1      -0.9373   1.9713  10.5819   P.3       2 RES2  -1.0000
    69 F1      -0.2855   2.6937   9.3299   F         2 RES2   0.0000
    70 F2      -1.6338   1.2353  11.8091   F         2 RES2   0.0000
    71 F3      -2.2612   1.6730   9.7236   F         2 RES2   0.0000
    72 F4      -0.3409   0.5736  10.1031   F         2 RES2   0.0000
    73 F5       0.3580   2.2435  11.4391   F         2 RES2   0.0000
    74 F6      -1.5556   3.3538  11.0501   F         2 RES2   0.0000
    75 P2      -6.8923   2.2610   6.8954   P.3       3 RES3  -1.0000
    76 F7      -6.5923   3.5656   6.0316   F         3 RES3   0.0000
    77 F8      -7.2122   0.9582   7.7781   F         3 RES3   0.0000
    78 F9      -8.0831   1.8738   5.9046   F         3 RES3   0.0000
    79 F10     -7.9284   3.0975   7.7972   F         3 RES3   0.0000
    80 F11     -5.7136   2.6489   7.9038   F         3 RES3   0.0000
    81 F12     -5.8702   1.4157   6.0152   F         3 RES3   0.0000
    82 O1       0.9306  10.1941   6.1958   O.3       4 RES4   0.0000
    83 C31      1.0753   9.6457   4.9657   C.3       4 RES4   0.0000
    84 C32      2.3768   9.0669   4.7070   C.3       4 RES4   0.0000
    85 C33     -0.3168  10.8273   6.4549   C.3       4 RES4   0.0000
    86 C34     -0.3340  11.5369   7.6827   C.3       4 RES4   0.0000
    87 H27      0.9003  10.3450   4.2868   H         4 RES4   0.0000
    88 H28      0.3890   8.9412   4.8523   H         4 RES4   0.0000
    89 H29      2.4498   8.8378   3.7575   H         4 RES4   0.0000
    90 H30      2.4876   8.2574   5.2468   H         4 RES4   0.0000
    91 H31      3.0743   9.7146   4.9410   H         4 RES4   0.0000
    92 H32     -0.5176  11.4559   5.7169   H         4 RES4   0.0000
    93 H33     -1.0292  10.1417   6.4697   H         4 RES4   0.0000
    94 H34     -0.0711  10.9358   8.4109   H         4 RES4   0.0000
    95 H35     -1.2378  11.8762   7.8504   H         4 RES4   0.0000
    96 H36      0.2942  12.2879   7.6351   H         4 RES4   0.0000
@<TRIPOS>BOND
     1     1    10    1
     2     2    12    1
     3     3    12    1
     4     4    15    1
     5     5    16    1
     6     6    19    1
     7     7    20    1
     8     8    23    1
     9     9    24    1
    10    10    28    3
    11    11     1    1
    12    12     1    1
    13    13     2    1
    14    14     3    1
    15    15     3    1
    16    16     1    1
    17    17     4    1
    18    18     5    1
    19    19     5    1
    20    20     1    1
    21    21     6    1
    22    22     7    1
    23    23     7    1
    24    24     1    1
    25    25     8    1
    26    26     9    1
    27    27     2    1
    28    28    29    1
    29    29    30   ar
    30    30    31   ar
    31    31    32   ar
    32    32    33   ar
    33    33    34   ar
    34    34    29   ar
    35    35    11    3
    36    36    35    1
    37    37    36   ar
    38    38    37   ar
    39    39    38   ar
    40    40    39   ar
    41    41    36   ar
    42    42    13    1
    43    43    14    1
    44    44    15    1
    45    45    15    1
    46    46    17    1
    47    47    18    1
    48    48    19    1
    49    49    19    1
    50    50    21    1
    51    51    22    1
    52    52    23    1
    53    53    23    1
    54    54    25    1
    55    55    26    1
    56    56    27    1
    57    57    27    1
    58    58    30    1
    59    59    31    1
    60    60    32    1
    61    61    33    1
    62    62    34    1
    63    63    37    1
    64    64    38    1
    65    65    39    1
    66    66    40    1
    67    67    41    1
    68     4    16    1
    69     6    20    1
    70     8    24    1
    71     9    27    1
    72    13    14    2
    73    17    18    2
    74    21    22    2
    75    25    26    2
    76    40    41   ar
    77    68    69    1
    78    70    68    1
    79    71    68    1
    80    72    68    1
    81    73    68    1
    82    74    68    1
    83    75    76    1
    84    77    75    1
    85    78    75    1
    86    79    75    1
    87    80    75    1
    88    81    75    1
    89    82    83    1
    90    83    84    1
    91    84    89    1
    92    85    82    1
    93    86    85    1
    94    87    83    1
    95    88    83    1
    96    90    84    1
    97    91    84    1
    98    92    85    1
    99    93    85    1
   100    94    86    1
   101    95    86    1
   102    96    86    1
@<TRIPOS>SUBSTRUCTURE
     1 RES1        1 GROUP             0 ****  ****    0  
     2 RES2       68 GROUP             0 ****  ****    0  
     3 RES3       75 GROUP             0 ****  ****    0  
     4 RES4       82 GROUP             0 ****  ****    0  
@<TRIPOS>CRYSIN
   14.2710   17.2244   16.8132   90.0000  102.1400   90.0000   231     1
