@<TRIPOS>MOLECULE
ALAREM
   121   132     2     0     0
SMALL
USER_CHARGES
****
Generated from the CSD

@<TRIPOS>ATOM
     1 Fe1      9.7558   2.5486  12.9458   Fe        1 RES1   2.0000
     2 Si1     10.7697   2.6868   3.4899   Si        1 RES1   0.0000
     3 N1      11.3648   2.2112  11.8635   N.ar      1 RES1   0.0000
     4 N2       8.6952   1.3783  11.7312   N.ar      1 RES1   0.0000
     5 N3       9.3129   4.1175  11.7877   N.ar      1 RES1   0.0000
     6 B1       9.8405   2.5914   9.8096   B         1 RES1  -1.0000
     7 C1      11.2982   2.3090  10.5123   C.ar      1 RES1   0.0000
     8 C2      12.4900   2.1582   9.7676   C.ar      1 RES1   0.0000
     9 H1      12.4596   2.2367   8.8213   H         1 RES1   0.0000
    10 C3      13.6940   1.9013  10.3828   C.ar      1 RES1   0.0000
    11 H2      14.4901   1.8156   9.8699   H         1 RES1   0.0000
    12 C4      13.7259   1.7708  11.7569   C.ar      1 RES1   0.0000
    13 H3      14.5398   1.5720  12.2053   H         1 RES1   0.0000
    14 C5      12.5557   1.9359  12.4632   C.ar      1 RES1   0.0000
    15 H4      12.5794   1.8544  13.4093   H         1 RES1   0.0000
    16 C6       6.8998  -0.0387  10.1521   C.ar      1 RES1   0.0000
    17 H5       6.2826  -0.5097   9.6058   H         1 RES1   0.0000
    18 C7       8.7411   1.5312  10.3800   C.ar      1 RES1   0.0000
    19 C8       7.7967   0.8533   9.5970   C.ar      1 RES1   0.0000
    20 H6       7.7724   1.0113   8.6607   H         1 RES1   0.0000
    21 C9       6.9217  -0.2324  11.5231   C.ar      1 RES1   0.0000
    22 H7       6.3392  -0.8584  11.9360   H         1 RES1   0.0000
    23 C10      7.8096   0.5067  12.2700   C.ar      1 RES1   0.0000
    24 H8       7.8010   0.4006  13.2151   H         1 RES1   0.0000
    25 C11      9.3014   4.0176  10.4320   C.ar      1 RES1   0.0000
    26 C12      8.7842   5.0829   9.6871   C.ar      1 RES1   0.0000
    27 H9       8.7098   4.9912   8.7436   H         1 RES1   0.0000
    28 C13      8.3790   6.2624  10.2779   C.ar      1 RES1   0.0000
    29 H10      8.0401   6.9791   9.7534   H         1 RES1   0.0000
    30 C14      8.4791   6.3725  11.6564   C.ar      1 RES1   0.0000
    31 H11      8.2455   7.1799  12.0992   H         1 RES1   0.0000
    32 C15      8.9258   5.2776  12.3689   C.ar      1 RES1   0.0000
    33 H12      8.9641   5.3419  13.3161   H         1 RES1   0.0000
    34 C16     10.0685   2.5904   8.1900   C.ar      1 RES1   0.0000
    35 C17      9.9068   1.4445   7.3926   C.ar      1 RES1   0.0000
    36 H13      9.6200   0.6402   7.8063   H         1 RES1   0.0000
    37 C18     10.1495   1.4374   6.0208   C.ar      1 RES1   0.0000
    38 H14     10.0030   0.6382   5.5279   H         1 RES1   0.0000
    39 C19     10.6051   2.5792   5.3518   C.ar      1 RES1   0.0000
    40 C20     10.8698   3.6934   6.1521   C.ar      1 RES1   0.0000
    41 H15     11.2406   4.4713   5.7505   H         1 RES1   0.0000
    42 C21     10.6082   3.6985   7.5140   C.ar      1 RES1   0.0000
    43 H16     10.8016   4.4845   8.0109   H         1 RES1   0.0000
    44 C22      9.2355   3.5232   2.8284   C.3       1 RES1   0.0000
    45 H17      9.0327   4.3112   3.3737   H         1 RES1   0.0000
    46 H18      8.4814   2.8983   2.8636   H         1 RES1   0.0000
    47 H19      9.3883   3.7974   1.9004   H         1 RES1   0.0000
    48 C23     12.2936   3.6914   3.0860   C.3       1 RES1   0.0000
    49 H20     12.1014   4.6435   3.2132   H         1 RES1   0.0000
    50 H21     12.5545   3.5303   2.1542   H         1 RES1   0.0000
    51 H22     13.0281   3.4253   3.6792   H         1 RES1   0.0000
    52 C24     10.9125   1.0041   2.6834   C.3       1 RES1   0.0000
    53 H23     10.6938   1.0786   1.7296   H         1 RES1   0.0000
    54 H24     10.2906   0.3813   3.1122   H         1 RES1   0.0000
    55 H25     11.8280   0.6708   2.7833   H         1 RES1   0.0000
    56 Si1F     8.7419   2.4104  22.4017   Si        1 RES1   0.0000
    57 N1F      8.1469   2.8860  14.0281   N.ar      1 RES1   0.0000
    58 N2F     10.8164   3.7189  14.1604   N.ar      1 RES1   0.0000
    59 N3F     10.1987   0.9797  14.1039   N.ar      1 RES1   0.0000
    60 B1F      9.6712   2.5058  16.0821   B         1 RES1  -1.0000
    61 C1F      8.2134   2.7882  15.3794   C.ar      1 RES1   0.0000
    62 C2F      7.0217   2.9390  16.1240   C.ar      1 RES1   0.0000
    63 H1F      7.0521   2.8605  17.0703   H         1 RES1   0.0000
    64 C3F      5.8177   3.1959  15.5088   C.ar      1 RES1   0.0000
    65 H2F      5.0215   3.2816  16.0217   H         1 RES1   0.0000
    66 C4F      5.7857   3.3264  14.1348   C.ar      1 RES1   0.0000
    67 H3F      4.9719   3.5252  13.6863   H         1 RES1   0.0000
    68 C5F      6.9560   3.1613  13.4284   C.ar      1 RES1   0.0000
    69 H4F      6.9322   3.2428  12.4824   H         1 RES1   0.0000
    70 C6F     12.6118   5.1359  15.7395   C.ar      1 RES1   0.0000
    71 H5F     13.2290   5.6069  16.2858   H         1 RES1   0.0000
    72 C7F     10.7706   3.5660  15.5117   C.ar      1 RES1   0.0000
    73 C8F     11.7150   4.2439  16.2946   C.ar      1 RES1   0.0000
    74 H6F     11.7393   4.0859  17.2309   H         1 RES1   0.0000
    75 C9F     12.5900   5.3296  14.3686   C.ar      1 RES1   0.0000
    76 H7F     13.1724   5.9556  13.9556   H         1 RES1   0.0000
    77 C10F    11.7021   4.5905  13.6216   C.ar      1 RES1   0.0000
    78 H8F     11.7106   4.6966  12.6765   H         1 RES1   0.0000
    79 C11F    10.2103   1.0796  15.4596   C.ar      1 RES1   0.0000
    80 C12F    10.7275   0.0143  16.2045   C.ar      1 RES1   0.0000
    81 H9F     10.8018   0.1060  17.1480   H         1 RES1   0.0000
    82 C13F    11.1327  -1.1652  15.6137   C.ar      1 RES1   0.0000
    83 H10F    11.4715  -1.8819  16.1382   H         1 RES1   0.0000
    84 C14F    11.0326  -1.2753  14.2352   C.ar      1 RES1   0.0000
    85 H11F    11.2661  -2.0827  13.7925   H         1 RES1   0.0000
    86 C15F    10.5858  -0.1804  13.5227   C.ar      1 RES1   0.0000
    87 H12F    10.5476  -0.2447  12.5756   H         1 RES1   0.0000
    88 C16F     9.4432   2.5068  17.7016   C.ar      1 RES1   0.0000
    89 C17F     9.6048   3.6527  18.4990   C.ar      1 RES1   0.0000
    90 H13F     9.8917   4.4570  18.0853   H         1 RES1   0.0000
    91 C18F     9.3622   3.6598  19.8708   C.ar      1 RES1   0.0000
    92 H14F     9.5087   4.4590  20.3638   H         1 RES1   0.0000
    93 C19F     8.9065   2.5180  20.5398   C.ar      1 RES1   0.0000
    94 C20F     8.6418   1.4038  19.7395   C.ar      1 RES1   0.0000
    95 H15F     8.2710   0.6259  20.1411   H         1 RES1   0.0000
    96 C21F     8.9034   1.3987  18.3776   C.ar      1 RES1   0.0000
    97 H16F     8.7101   0.6127  17.8808   H         1 RES1   0.0000
    98 C22F    10.2761   1.5740  23.0632   C.3       1 RES1   0.0000
    99 H17F    10.4790   0.7860  22.5179   H         1 RES1   0.0000
   100 H18F    11.0302   2.1989  23.0280   H         1 RES1   0.0000
   101 H19F    10.1233   1.2998  23.9912   H         1 RES1   0.0000
   102 C23F     7.2180   1.4058  22.8056   C.3       1 RES1   0.0000
   103 H20F     7.4102   0.4537  22.6785   H         1 RES1   0.0000
   104 H21F     6.9571   1.5669  23.7374   H         1 RES1   0.0000
   105 H22F     6.4835   1.6719  22.2124   H         1 RES1   0.0000
   106 C24F     8.5991   4.0931  23.2082   C.3       1 RES1   0.0000
   107 H23F     8.8178   4.0186  24.1621   H         1 RES1   0.0000
   108 H24F     9.2210   4.7159  22.7794   H         1 RES1   0.0000
   109 H25F     7.6836   4.4264  23.1083   H         1 RES1   0.0000
   110 C25      7.1331   5.8230   6.4729   C.ar      2 RES2   0.0000
   111 C26      8.3101   6.5468   6.2909   C.ar      2 RES2   0.0000
   112 H26      9.1275   6.0810   6.1544   H         2 RES2   0.0000
   113 C27      8.3115   7.9353   6.3046   C.ar      2 RES2   0.0000
   114 H27      9.1309   8.4053   6.1985   H         2 RES2   0.0000
   115 C28      7.1331   8.6428   6.4729   C.ar      2 RES2   0.0000
   116 H28      7.1331   9.5919   6.4729   H         2 RES2   0.0000
   117 C29      7.1331   4.3143   6.4729   C.3       2 RES2   0.0000
   118 C26A     5.9560   6.5468   6.6549   C.ar      2 RES2   0.0000
   119 H26A     5.1387   6.0810   6.7914   H         2 RES2   0.0000
   120 C27A     5.9546   7.9353   6.6412   C.ar      2 RES2   0.0000
   121 H27A     5.1353   8.4053   6.7474   H         2 RES2   0.0000
@<TRIPOS>BOND
     1     1     3    1
     2     2    39    1
     3     3     7   ar
     4     4     1    1
     5     5     1    1
     6     6     7    1
     7     7     8   ar
     8     8     9    1
     9    10     8   ar
    10    11    10    1
    11    12    10   ar
    12    13    12    1
    13    14     3   ar
    14    15    14    1
    15    16    17    1
    16    18     4   ar
    17    19    16   ar
    18    20    19    1
    19    21    16   ar
    20    22    21    1
    21    23     4   ar
    22    24    23    1
    23    25     5   ar
    24    26    25   ar
    25    27    26    1
    26    28    26   ar
    27    29    28    1
    28    30    28   ar
    29    31    30    1
    30    32     5   ar
    31    33    32    1
    32    34     6    1
    33    35    34   ar
    34    36    35    1
    35    37    35   ar
    36    38    37    1
    37    39    37   ar
    38    40    39   ar
    39    41    40    1
    40    42    34   ar
    41    43    42    1
    42    44     2    1
    43    45    44    1
    44    46    44    1
    45    47    44    1
    46    48     2    1
    47    49    48    1
    48    50    48    1
    49    51    48    1
    50    52     2    1
    51    53    52    1
    52    54    52    1
    53    55    52    1
    54    56    93    1
    55    57     1    1
    56    58     1    1
    57    59     1    1
    58    60    61    1
    59    61    57   ar
    60    62    61   ar
    61    63    62    1
    62    64    62   ar
    63    65    64    1
    64    66    64   ar
    65    67    66    1
    66    68    57   ar
    67    69    68    1
    68    70    71    1
    69    72    58   ar
    70    73    70   ar
    71    74    73    1
    72    75    70   ar
    73    76    75    1
    74    77    58   ar
    75    78    77    1
    76    79    59   ar
    77    80    79   ar
    78    81    80    1
    79    82    80   ar
    80    83    82    1
    81    84    82   ar
    82    85    84    1
    83    86    59   ar
    84    87    86    1
    85    88    60    1
    86    89    88   ar
    87    90    89    1
    88    91    89   ar
    89    92    91    1
    90    93    91   ar
    91    94    93   ar
    92    95    94    1
    93    96    88   ar
    94    97    96    1
    95    98    56    1
    96    99    98    1
    97   100    98    1
    98   101    98    1
    99   102    56    1
   100   103   102    1
   101   104   102    1
   102   105   102    1
   103   106    56    1
   104   107   106    1
   105   108   106    1
   106   109   106    1
   107     6    18    1
   108     6    25    1
   109    12    14   ar
   110    18    19   ar
   111    21    23   ar
   112    30    32   ar
   113    40    42   ar
   114    60    72    1
   115    60    79    1
   116    66    68   ar
   117    72    73   ar
   118    75    77   ar
   119    84    86   ar
   120    94    96   ar
   121   110   111   ar
   122   111   112    1
   123   113   111   ar
   124   114   113    1
   125   115   113   ar
   126   116   115    1
   127   117   110    1
   128   118   110   ar
   129   119   118    1
   130   120   115   ar
   131   121   120    1
   132   118   120   ar
@<TRIPOS>SUBSTRUCTURE
     1 RES1        1 GROUP             0 ****  ****    0  
     2 RES2      110 GROUP             0 ****  ****    0  
@<TRIPOS>CRYSIN
   18.0412   10.1944   26.9700   90.0000  106.2570   90.0000    15     1
