@<TRIPOS>MOLECULE
ALIKUC
   102   109     3     0     0
SMALL
USER_CHARGES
****
Generated from the CSD

@<TRIPOS>ATOM
     1 C1       8.3617   5.4717   2.5296   C.ar      1 RES1   0.0000
     2 C2       7.4091   5.4704   1.5349   C.ar      1 RES1   0.0000
     3 C3       7.5199   6.3922   0.4981   C.ar      1 RES1   0.0000
     4 C4       8.5922   7.2695   0.4514   C.ar      1 RES1   0.0000
     5 C5       9.5140   7.2060   1.4788   C.ar      1 RES1   0.0000
     6 C6       6.4154   6.4220  -0.5137   C.2       1 RES1   0.0000
     7 C7       5.5432   7.4844  -2.4408   C.3       1 RES1   0.0000
     8 C8       4.5739   8.5050  -1.9053   C.3       1 RES1   0.0000
     9 C9      10.0398  -0.6813   5.6740   C.3       1 RES1   0.0000
    10 H1      10.9533  -0.3812   5.8639   H         1 RES1   0.0000
    11 H2      10.0398  -1.2314   4.8630   H         1 RES1   0.0000
    12 H3       9.7082  -1.2098   6.4290   H         1 RES1   0.0000
    13 C10      9.1413   0.5312   5.4670   C.3       1 RES1   0.0000
    14 H4       9.4964   1.0719   4.7182   H         1 RES1   0.0000
    15 H5       8.2364   0.2203   5.2148   H         1 RES1   0.0000
    16 C11      9.0365   1.3963   6.6858   C.3       1 RES1   0.0000
    17 C12      8.0267   2.5128   6.5846   C.3       1 RES1   0.0000
    18 C13      7.7259   3.6753   4.3493   C.2       1 RES1   0.0000
    19 C14      8.4488   4.6688   3.7375   C.2       1 RES1   0.0000
    20 C15     12.3499   9.3714   1.4399   C.2       1 RES1   0.0000
    21 C16     11.1983   8.9781   0.8344   C.2       1 RES1   0.0000
    22 C17     12.4735   8.5820   2.5980   C.2       1 RES1   0.0000
    23 Fe1     10.6966   6.3594   3.8916   Fe        1 RES1   2.0000
    24 H9       6.6961   4.8932   1.5722   H         1 RES1   0.0000
    25 H10      8.6856   7.8940  -0.2491   H         1 RES1   0.0000
    26 H11      5.1386   6.6639  -2.5685   H         1 RES1   0.0000
    27 H12      5.9687   7.8129  -3.2690   H         1 RES1   0.0000
    28 H13      5.0274   9.3674  -1.7434   H         1 RES1   0.0000
    29 H14      3.9577   8.7456  -2.5373   H         1 RES1   0.0000
    30 H15      4.2016   8.2184  -1.0585   H         1 RES1   0.0000
    31 H16      7.9797   3.0549   7.3474   H         1 RES1   0.0000
    32 H17      7.1667   2.2033   6.4445   H         1 RES1   0.0000
    33 H18      6.9571   3.2441   4.0784   H         1 RES1   0.0000
    34 H19     13.1247   8.6104   3.2534   H         1 RES1   0.0000
    35 H20     12.9643   9.9891   1.2142   H         1 RES1   0.0000
    36 H21     10.7822   9.2322   0.0934   H         1 RES1   0.0000
    37 H22      9.9906   1.7707   6.8337   H         1 RES1   0.0000
    38 H23      8.7070   0.8245   7.4408   H         1 RES1   0.0000
    39 N1       9.4952   4.9770   4.5677   N.2       1 RES1   0.0000
    40 N2       9.3997   6.3436   2.4948   N.ar      1 RES1   0.0000
    41 N3      10.6628   7.9927   1.6071   N.pl3     1 RES1   0.0000
    42 N4      11.4528   7.7480   2.7100   N.2       1 RES1   0.0000
    43 N5       9.4519   4.2336   5.6457   N.2       1 RES1   0.0000
    44 N6       8.3647   3.4577   5.5074   N.pl3     1 RES1   0.0000
    45 O1       5.4345   5.7421  -0.4198   O.2       1 RES1   0.0000
    46 O2       6.6518   7.2979  -1.5026   O.3       1 RES1   0.0000
    47 C1B     13.0315   5.4717   5.2537   C.ar      1 RES1   0.0000
    48 C2B     13.9841   5.4704   6.2484   C.ar      1 RES1   0.0000
    49 C3B     13.8733   6.3922   7.2851   C.ar      1 RES1   0.0000
    50 C4B     12.8010   7.2695   7.3318   C.ar      1 RES1   0.0000
    51 C5B     11.8792   7.2060   6.3044   C.ar      1 RES1   0.0000
    52 C6B     14.9778   6.4220   8.2969   C.2       1 RES1   0.0000
    53 C7B     15.8500   7.4844  10.2241   C.3       1 RES1   0.0000
    54 C8B     16.8193   8.5050   9.6886   C.3       1 RES1   0.0000
    55 C9B     11.3534  -0.6813   2.1093   C.3       1 RES1   0.0000
    56 H1B     10.4399  -0.3812   1.9193   H         1 RES1   0.0000
    57 H2B     11.3534  -1.2314   2.9203   H         1 RES1   0.0000
    58 H3B     11.6850  -1.2098   1.3543   H         1 RES1   0.0000
    59 C10B    12.2519   0.5312   2.3163   C.3       1 RES1   0.0000
    60 H4B     11.8968   1.0719   3.0650   H         1 RES1   0.0000
    61 H5B     13.1568   0.2203   2.5685   H         1 RES1   0.0000
    62 C11B    12.3567   1.3963   1.0974   C.3       1 RES1   0.0000
    63 C12B    13.3665   2.5128   1.1986   C.3       1 RES1   0.0000
    64 C13B    13.6673   3.6753   3.4340   C.2       1 RES1   0.0000
    65 C14B    12.9444   4.6688   4.0457   C.2       1 RES1   0.0000
    66 C15B     9.0433   9.3714   6.3433   C.2       1 RES1   0.0000
    67 C16B    10.1949   8.9781   6.9489   C.2       1 RES1   0.0000
    68 C17B     8.9197   8.5820   5.1852   C.2       1 RES1   0.0000
    69 H9B     14.6971   4.8932   6.2110   H         1 RES1   0.0000
    70 H10B    12.7076   7.8940   8.0323   H         1 RES1   0.0000
    71 H11B    16.2546   6.6639  10.3517   H         1 RES1   0.0000
    72 H12B    15.4245   7.8129  11.0522   H         1 RES1   0.0000
    73 H13B    16.3658   9.3674   9.5267   H         1 RES1   0.0000
    74 H14B    17.4355   8.7456  10.3206   H         1 RES1   0.0000
    75 H15B    17.1916   8.2184   8.8418   H         1 RES1   0.0000
    76 H16B    13.4135   3.0549   0.4359   H         1 RES1   0.0000
    77 H17B    14.2265   2.2033   1.3387   H         1 RES1   0.0000
    78 H18B    14.4361   3.2441   3.7048   H         1 RES1   0.0000
    79 H19B     8.2685   8.6104   4.5299   H         1 RES1   0.0000
    80 H20B     8.4289   9.9891   6.5691   H         1 RES1   0.0000
    81 H21B    10.6110   9.2322   7.6899   H         1 RES1   0.0000
    82 H22B    11.4026   1.7707   0.9496   H         1 RES1   0.0000
    83 H23B    12.6862   0.8245   0.3425   H         1 RES1   0.0000
    84 N1B     11.8980   4.9770   3.2156   N.2       1 RES1   0.0000
    85 N2B     11.9935   6.3436   5.2884   N.ar      1 RES1   0.0000
    86 N3B     10.7304   7.9927   6.1762   N.pl3     1 RES1   0.0000
    87 N4B      9.9404   7.7480   5.0733   N.2       1 RES1   0.0000
    88 N5B     11.9413   4.2336   2.1376   N.2       1 RES1   0.0000
    89 N6B     13.0285   3.4577   2.2758   N.pl3     1 RES1   0.0000
    90 O1B     15.9587   5.7421   8.2031   O.2       1 RES1   0.0000
    91 O2B     14.7414   7.2979   9.2859   O.3       1 RES1   0.0000
    92 C18      7.9732   1.1990   1.6812   C.1       2 RES2   0.0000
    93 C19      7.1646   0.0689   2.1233   C.3       2 RES2   0.0000
    94 H6       7.7358  -0.5772   2.5887   H         2 RES2   0.0000
    95 H7       6.7517  -0.3609   1.3449   H         2 RES2   0.0000
    96 H8       6.4650   0.3852   2.7319   H         2 RES2   0.0000
    97 N7       8.6022   2.0897   1.3309   N.1       2 RES2   0.0000
    98 Cl1      6.4603   9.5440   2.3056   Cl        3 RES3   0.0000
    99 O3       7.8427   9.8729   2.1700   O.3       3 RES3  -1.0000
   100 O4       6.3234   8.4482   3.2160   O.2       3 RES3   0.0000
   101 O5       5.7590  10.6704   2.8222   O.2       3 RES3   0.0000
   102 O6       5.9088   9.1727   1.0360   O.2       3 RES3   0.0000
@<TRIPOS>BOND
     1     1     2   ar
     2     2     3   ar
     3     3     4   ar
     4     4     5   ar
     5     5    40   ar
     6     6     3    1
     7     7     8    1
     8     8    28    1
     9     9    10    1
    10    11     9    1
    11    12     9    1
    12    13     9    1
    13    14    13    1
    14    15    13    1
    15    16    13    1
    16    17    16    1
    17    18    19    2
    18    19     1    1
    19    20    21    2
    20    21    36    1
    21    22    20    1
    22    23    39    1
    23    24     2    1
    24    25     4    1
    25    26     7    1
    26    27     7    1
    27    29     8    1
    28    30     8    1
    29    31    17    1
    30    32    17    1
    31    33    18    1
    32    34    22    1
    33    35    20    1
    34    37    16    1
    35    38    16    1
    36    39    19    1
    37    40     1   ar
    38    41     5    1
    39    42    22    2
    40    43    39    2
    41    44    17    1
    42    45     6    2
    43    46     6    1
    44    47    48   ar
    45    48    49   ar
    46    49    50   ar
    47    50    51   ar
    48    51    85   ar
    49    52    49    1
    50    53    54    1
    51    54    73    1
    52    55    56    1
    53    57    55    1
    54    58    55    1
    55    59    55    1
    56    60    59    1
    57    61    59    1
    58    62    59    1
    59    63    62    1
    60    64    65    2
    61    65    47    1
    62    66    67    2
    63    67    81    1
    64    68    66    1
    65    69    48    1
    66    70    50    1
    67    71    53    1
    68    72    53    1
    69    74    54    1
    70    75    54    1
    71    76    63    1
    72    77    63    1
    73    78    64    1
    74    79    68    1
    75    80    66    1
    76    82    62    1
    77    83    62    1
    78    84    23    1
    79    85    23    1
    80    86    51    1
    81    87    23    1
    82    88    84    2
    83    89    63    1
    84    90    52    2
    85    91    52    1
    86     7    46    1
    87    18    44    1
    88    21    41    1
    89    23    40    1
    90    23    42    1
    91    41    42    1
    92    43    44    1
    93    47    85   ar
    94    53    91    1
    95    64    89    1
    96    65    84    1
    97    67    86    1
    98    68    87    2
    99    86    87    1
   100    88    89    1
   101    92    93    1
   102    93    94    1
   103    95    93    1
   104    96    93    1
   105    97    92    3
   106    98    99    1
   107   100    98    2
   108   101    98    2
   109   102    98    2
@<TRIPOS>SUBSTRUCTURE
     1 RES1        1 GROUP             0 ****  ****    0  
     2 RES2       92 GROUP             0 ****  ****    0  
     3 RES3       98 GROUP             0 ****  ****    0  
@<TRIPOS>CRYSIN
   21.3932   13.5171   15.5665   90.0000   90.0000   90.0000    60     1
