@<TRIPOS>MOLECULE
ALILEN
    87    94     3     0     0
SMALL
USER_CHARGES
****
Generated from the CSD

@<TRIPOS>ATOM
     1 C1      11.1876   9.1849   6.2588   C.2       1 RES1   0.0000
     2 H1      10.7659   9.5356   7.0094   H         1 RES1   0.0000
     3 C2      12.3332   8.4005   6.2981   C.2       1 RES1   0.0000
     4 H2      12.8116   8.1421   7.0528   H         1 RES1   0.0000
     5 C3      12.6079   8.0893   5.0100   C.2       1 RES1   0.0000
     6 H3      13.3144   7.5650   4.7073   H         1 RES1   0.0000
     7 C4      12.3271   8.0635   1.9926   C.ar      1 RES1   0.0000
     8 H4      13.0361   7.5529   2.3116   H         1 RES1   0.0000
     9 C5      12.0637   8.1779   0.6040   C.ar      1 RES1   0.0000
    10 C6      10.9784   8.9774   0.1873   C.ar      1 RES1   0.0000
    11 H5      10.7743   9.0725  -0.7153   H         1 RES1   0.0000
    12 C7      10.2293   9.6109   1.1524   C.ar      1 RES1   0.0000
    13 C8      11.4936   8.7337   2.8409   C.ar      1 RES1   0.0000
    14 C9       8.4319  10.8821  -0.2430   C.2       1 RES1   0.0000
    15 H6       8.6417  10.6738  -1.1252   H         1 RES1   0.0000
    16 C10      9.0750  10.4692   0.8809   C.2       1 RES1   0.0000
    17 C11      5.3983  13.0697   0.2511   C.3       1 RES1   0.0000
    18 H7       5.8543  13.7904   0.7140   H         1 RES1   0.0000
    19 H8       5.0277  12.4690   0.9162   H         1 RES1   0.0000
    20 C12      6.3845  12.3195  -0.6122   C.3       1 RES1   0.0000
    21 H9       5.9126  11.6529  -1.1334   H         1 RES1   0.0000
    22 H10      6.8059  12.9396  -1.2284   H         1 RES1   0.0000
    23 C13      4.2691  13.6443  -0.6054   C.3       1 RES1   0.0000
    24 H11      4.6360  14.2831  -1.2352   H         1 RES1   0.0000
    25 H12      3.8535  12.9280  -1.1130   H         1 RES1   0.0000
    26 C14      3.2170  14.3281   0.2511   C.3       1 RES1   0.0000
    27 H13      2.9068  13.7186   0.9244   H         1 RES1   0.0000
    28 H14      2.4815  14.5997  -0.3000   H         1 RES1   0.0000
    29 H15      3.6025  15.1006   0.6732   H         1 RES1   0.0000
    30 C15      5.9405   9.3173   6.2859   C.2       1 RES1   0.0000
    31 H16      5.4898   9.4310   7.0908   H         1 RES1   0.0000
    32 C16      5.5940   8.4754   5.2720   C.2       1 RES1   0.0000
    33 H17      4.8639   7.8981   5.2421   H         1 RES1   0.0000
    34 C17      6.5549   8.6599   4.2960   C.2       1 RES1   0.0000
    35 H18      6.5600   8.2065   3.4843   H         1 RES1   0.0000
    36 C18      7.8286  10.9716   6.5275   C.ar      1 RES1   0.0000
    37 C19      7.5775  11.3941   7.8075   C.ar      1 RES1   0.0000
    38 H19      6.9018  11.0057   8.3151   H         1 RES1   0.0000
    39 C20      8.3580  12.4158   8.3247   C.ar      1 RES1   0.0000
    40 C21      9.3830  12.9671   7.5048   C.ar      1 RES1   0.0000
    41 H20      9.9267  13.6522   7.8184   H         1 RES1   0.0000
    42 C22      9.5475  12.4610   6.2357   C.ar      1 RES1   0.0000
    43 C23     10.5198  12.9557   5.2557   C.2       1 RES1   0.0000
    44 C24     11.4809  13.8979   5.2611   C.2       1 RES1   0.0000
    45 H21     11.7445  14.4370   5.9710   H         1 RES1   0.0000
    46 C25     13.0858  14.6449   3.4246   C.3       1 RES1   0.0000
    47 H22     12.8142  14.9904   2.5600   H         1 RES1   0.0000
    48 H23     13.8395  14.0512   3.2848   H         1 RES1   0.0000
    49 C26     13.5210  15.7965   4.3001   C.3       1 RES1   0.0000
    50 H24     13.8356  15.4552   5.1525   H         1 RES1   0.0000
    51 H25     12.7639  16.3788   4.4711   H         1 RES1   0.0000
    52 C27     14.6506  16.6028   3.6160   C.3       1 RES1   0.0000
    53 H26     14.3861  16.8145   2.7079   H         1 RES1   0.0000
    54 H27     14.7766  17.4389   4.0911   H         1 RES1   0.0000
    55 C28     15.9589  15.8461   3.5888   C.3       1 RES1   0.0000
    56 H28     16.2487  15.6753   4.4888   H         1 RES1   0.0000
    57 H29     16.6220  16.3701   3.1328   H         1 RES1   0.0000
    58 H30     15.8370  15.0132   3.1287   H         1 RES1   0.0000
    59 Fe1      9.2802  10.5585   3.8968   Fe        1 RES1   2.0000
    60 N1      12.8280   7.5317  -0.2823   N.pl3     1 RES1   0.0000
    61 H31     12.6610   7.5971  -1.1239   H         1 RES1   0.0000
    62 H32     13.4861   7.0476  -0.0122   H         1 RES1   0.0000
    63 N2      10.4506   9.4825   2.4772   N.ar      1 RES1   0.0000
    64 N3      11.6636   8.6807   4.2431   N.pl3     1 RES1   0.0000
    65 N4      10.7711   9.3698   5.0032   N.2       1 RES1   0.0000
    66 N5       8.4330  11.0222   1.9505   N.2       1 RES1   0.0000
    67 N6       7.4241  11.7396   1.5311   N.2       1 RES1   0.0000
    68 N7       7.4271  11.6560   0.1982   N.pl3     1 RES1   0.0000
    69 N8       7.4692   9.5518   4.6421   N.2       1 RES1   0.0000
    70 N9       7.0795   9.9608   5.8841   N.pl3     1 RES1   0.0000
    71 N10     10.4786  12.3831   4.0191   N.2       1 RES1   0.0000
    72 N11     11.3597  12.9728   3.2536   N.2       1 RES1   0.0000
    73 N12     11.9781  13.8869   4.0069   N.pl3     1 RES1   0.0000
    74 N13      8.7782  11.4805   5.7416   N.ar      1 RES1   0.0000
    75 N14      8.1583  12.8976   9.5639   N.pl3     1 RES1   0.0000
    76 H33      7.5337  12.5711  10.0566   H         1 RES1   0.0000
    77 H34      8.6556  13.5319   9.8639   H         1 RES1   0.0000
    78 Cl1     17.3598   9.9287  10.8287   Cl        2 RES2   0.0000
    79 O5      17.6545  11.3179  10.7326   O.3       2 RES2  -1.0000
    80 O6      17.9573   9.2426   9.7349   O.2       2 RES2   0.0000
    81 O7      17.8461   9.4030  12.0642   O.2       2 RES2   0.0000
    82 O8      15.9477   9.7459  10.7692   O.2       2 RES2   0.0000
    83 Cl2     14.9090  10.7767   3.9289   Cl        3 RES3   0.0000
    84 O1      14.9085  10.8066   5.3480   O.3       3 RES3  -1.0000
    85 O2      13.6870  11.2983   3.4110   O.2       3 RES3   0.0000
    86 O3      14.9777   9.4335   3.4558   O.2       3 RES3   0.0000
    87 O4      15.9877  11.4835   3.4246   O.2       3 RES3   0.0000
@<TRIPOS>BOND
     1     1     2    1
     2     3     1    1
     3     4     3    1
     4     5     3    2
     5     6     5    1
     6     7     8    1
     7     9     7   ar
     8    10     9   ar
     9    11    10    1
    10    12    10   ar
    11    13     7   ar
    12    14    15    1
    13    16    12    1
    14    17    18    1
    15    19    17    1
    16    20    17    1
    17    21    20    1
    18    22    20    1
    19    23    17    1
    20    24    23    1
    21    25    23    1
    22    26    23    1
    23    27    26    1
    24    28    26    1
    25    29    26    1
    26    30    31    1
    27    32    30    2
    28    33    32    1
    29    34    32    1
    30    35    34    1
    31    36    37   ar
    32    37    38    1
    33    39    37   ar
    34    40    39   ar
    35    41    40    1
    36    42    40   ar
    37    43    42    1
    38    44    43    2
    39    45    44    1
    40    46    47    1
    41    48    46    1
    42    49    46    1
    43    50    49    1
    44    51    49    1
    45    52    49    1
    46    53    52    1
    47    54    52    1
    48    55    52    1
    49    56    55    1
    50    57    55    1
    51    58    55    1
    52    59    63    1
    53    60     9    1
    54    61    60    1
    55    62    60    1
    56    63    12   ar
    57    64     5    1
    58    65     1    2
    59    66    16    1
    60    67    66    2
    61    68    14    1
    62    69    34    2
    63    70    30    1
    64    71    43    1
    65    72    71    2
    66    73    44    1
    67    74    36   ar
    68    75    39    1
    69    76    75    1
    70    77    75    1
    71    13    63   ar
    72    13    64    1
    73    14    16    2
    74    20    68    1
    75    36    70    1
    76    42    74   ar
    77    46    73    1
    78    59    65    1
    79    59    66    1
    80    59    69    1
    81    59    71    1
    82    59    74    1
    83    64    65    1
    84    67    68    1
    85    69    70    1
    86    72    73    1
    87    78    79    1
    88    80    78    2
    89    81    78    2
    90    82    78    2
    91    83    84    1
    92    85    83    2
    93    86    83    2
    94    87    83    2
@<TRIPOS>SUBSTRUCTURE
     1 RES1        1 GROUP             0 ****  ****    0  
     2 RES2       78 GROUP             0 ****  ****    0  
     3 RES3       83 GROUP             0 ****  ****    0  
@<TRIPOS>CRYSIN
   11.9124   12.0189   14.8282   66.5810   76.1380   62.6290     2     1
