@<TRIPOS>MOLECULE
ALUCES
   111   121     4     0     0
SMALL
USER_CHARGES
****
Generated from the CSD

@<TRIPOS>ATOM
     1 Fe1      2.3804   5.5006   6.7756   Fe        1 RES1   2.0000
     2 O1       0.8046   1.5997   6.0696   O.3       1 RES1   0.0000
     3 O2       6.3645   5.3926   8.2602   O.3       1 RES1   0.0000
     4 O3      -0.7111   7.3122   9.0931   O.3       1 RES1   0.0000
     5 O4       2.6670   7.2626   2.9007   O.3       1 RES1   0.0000
     6 N1       1.0390   3.8410   6.2094   N.2       1 RES1   0.0000
     7 N2       3.4614   3.6897   7.1423   N.ar      1 RES1   0.0000
     8 N3       4.2748   6.0898   7.7442   N.2       1 RES1   0.0000
     9 N4       1.0805   6.0746   8.4908   N.2       1 RES1   0.0000
    10 N5       1.2111   7.1784   6.1202   N.ar      1 RES1   0.0000
    11 N6       3.0569   5.9733   4.7109   N.2       1 RES1   0.0000
    12 C1      -0.6868   4.5684   4.5895   C.ar      1 RES1   0.0000
    13 C2       0.0724   4.5604   3.4181   C.ar      1 RES1   0.0000
    14 H1       0.7782   3.9324   3.3174   H         1 RES1   0.0000
    15 C3      -0.1970   5.4645   2.3992   C.ar      1 RES1   0.0000
    16 H2       0.3275   5.4592   1.6072   H         1 RES1   0.0000
    17 C4      -1.2360   6.3771   2.5397   C.ar      1 RES1   0.0000
    18 H3      -1.4238   6.9966   1.8445   H         1 RES1   0.0000
    19 C5      -1.9965   6.3799   3.6988   C.ar      1 RES1   0.0000
    20 H4      -2.7088   7.0006   3.7942   H         1 RES1   0.0000
    21 C6      -1.7236   5.4839   4.7184   C.ar      1 RES1   0.0000
    22 H5      -2.2477   5.4954   5.5105   H         1 RES1   0.0000
    23 C7      -0.3610   3.6465   5.7344   C.3       1 RES1   0.0000
    24 H6      -0.9890   3.8326   6.4899   H         1 RES1   0.0000
    25 C8      -0.3936   2.1334   5.4150   C.3       1 RES1   0.0000
    26 H7      -1.2128   1.7133   5.7802   H         1 RES1   0.0000
    27 H8      -0.3617   1.9779   4.4379   H         1 RES1   0.0000
    28 C9       1.5422   2.6727   6.3643   C.2       1 RES1   0.0000
    29 C10      2.9093   2.4986   6.8625   C.ar      1 RES1   0.0000
    30 C11      3.5920   1.3051   7.0358   C.ar      1 RES1   0.0000
    31 H9       3.1789   0.4706   6.8474   H         1 RES1   0.0000
    32 C12      4.9017   1.3715   7.4947   C.ar      1 RES1   0.0000
    33 H10      5.3947   0.5705   7.6297   H         1 RES1   0.0000
    34 C13      5.4976   2.5973   7.7577   C.ar      1 RES1   0.0000
    35 H11      6.3999   2.6542   8.0496   H         1 RES1   0.0000
    36 C14      4.7269   3.7357   7.5784   C.ar      1 RES1   0.0000
    37 C15      5.1268   5.1299   7.8472   C.2       1 RES1   0.0000
    38 C16      6.4361   6.8536   8.3244   C.3       1 RES1   0.0000
    39 H12      6.9551   7.2156   7.5629   H         1 RES1   0.0000
    40 H13      6.8574   7.1499   9.1698   H         1 RES1   0.0000
    41 C17      4.9622   7.3108   8.2536   C.3       1 RES1   0.0000
    42 H14      4.8637   8.0613   7.6001   H         1 RES1   0.0000
    43 C18      4.4189   7.7186   9.6049   C.ar      1 RES1   0.0000
    44 C19      4.2494   6.7901  10.6347   C.ar      1 RES1   0.0000
    45 H15      4.4066   5.8681  10.4677   H         1 RES1   0.0000
    46 C20      3.8541   7.2018  11.8991   C.ar      1 RES1   0.0000
    47 H16      3.7324   6.5619  12.5906   H         1 RES1   0.0000
    48 C21      3.6345   8.5471  12.1541   C.ar      1 RES1   0.0000
    49 H17      3.3843   8.8339  13.0244   H         1 RES1   0.0000
    50 C22      3.7842   9.4694  11.1341   C.ar      1 RES1   0.0000
    51 H18      3.6178  10.3894  11.3033   H         1 RES1   0.0000
    52 C23      4.1743   9.0625   9.8646   C.ar      1 RES1   0.0000
    53 H19      4.2735   9.7046   9.1714   H         1 RES1   0.0000
    54 C24      0.7340   4.0915   9.9086   C.ar      1 RES1   0.0000
    55 C25      1.8393   3.4081  10.3955   C.ar      1 RES1   0.0000
    56 H20      2.5763   3.8913  10.7497   H         1 RES1   0.0000
    57 C26      1.8714   2.0186  10.3670   C.ar      1 RES1   0.0000
    58 H21      2.6340   1.5551  10.6914   H         1 RES1   0.0000
    59 C27      0.7989   1.3127   9.8693   C.ar      1 RES1   0.0000
    60 H22      0.8184   0.3630   9.8632   H         1 RES1   0.0000
    61 C28     -0.3083   1.9845   9.3771   C.ar      1 RES1   0.0000
    62 H23     -1.0474   1.4960   9.0335   H         1 RES1   0.0000
    63 C29     -0.3375   3.3714   9.3869   C.ar      1 RES1   0.0000
    64 H24     -1.0912   3.8316   9.0366   H         1 RES1   0.0000
    65 C30      0.7514   5.6004   9.8642   C.3       1 RES1   0.0000
    66 H25      1.4489   5.9348  10.4980   H         1 RES1   0.0000
    67 C31     -0.5794   6.3169  10.1633   C.3       1 RES1   0.0000
    68 H26     -1.3352   5.6780  10.1452   H         1 RES1   0.0000
    69 H27     -0.5515   6.7554  11.0505   H         1 RES1   0.0000
    70 C32      0.2311   6.9912   8.2064   C.2       1 RES1   0.0000
    71 C33      0.2690   7.6915   6.9150   C.ar      1 RES1   0.0000
    72 C34     -0.5656   8.7186   6.5082   C.ar      1 RES1   0.0000
    73 H28     -1.2300   9.0712   7.0886   H         1 RES1   0.0000
    74 C35     -0.3980   9.2152   5.2224   C.ar      1 RES1   0.0000
    75 H29     -0.9554   9.9180   4.9094   H         1 RES1   0.0000
    76 C36      0.5810   8.6880   4.3941   C.ar      1 RES1   0.0000
    77 H30      0.7079   9.0196   3.5129   H         1 RES1   0.0000
    78 C37      1.3671   7.6640   4.8909   C.ar      1 RES1   0.0000
    79 C38      2.4171   6.9311   4.1614   C.2       1 RES1   0.0000
    80 C39      3.7858   6.4150   2.4969   C.3       1 RES1   0.0000
    81 H31      4.6010   6.9567   2.3471   H         1 RES1   0.0000
    82 H32      3.5716   5.9228   1.6651   H         1 RES1   0.0000
    83 C40      3.9868   5.4354   3.6785   C.3       1 RES1   0.0000
    84 H33      3.6741   4.5265   3.4028   H         1 RES1   0.0000
    85 C41      5.4034   5.3314   4.1884   C.ar      1 RES1   0.0000
    86 C42      6.1825   6.4626   4.4027   C.ar      1 RES1   0.0000
    87 H34      5.8220   7.3260   4.2375   H         1 RES1   0.0000
    88 C43      7.4854   6.3311   4.8570   C.ar      1 RES1   0.0000
    89 H35      8.0192   7.1058   4.9833   H         1 RES1   0.0000
    90 C44      8.0138   5.0858   5.1279   C.ar      1 RES1   0.0000
    91 H36      8.9085   5.0039   5.4367   H         1 RES1   0.0000
    92 C45      7.2407   3.9650   4.9489   C.ar      1 RES1   0.0000
    93 H37      7.5960   3.1070   5.1496   H         1 RES1   0.0000
    94 C46      5.9422   4.0835   4.4754   C.ar      1 RES1   0.0000
    95 H38      5.4152   3.3033   4.3462   H         1 RES1   0.0000
    96 Cl1      9.4361   1.5708   7.3433   Cl        2 RES2   0.0000
    97 O5      10.4403   0.8040   7.9622   O.2       2 RES2   0.0000
    98 O6       8.5185   0.8018   6.6038   O.2       2 RES2   0.0000
    99 O7       8.7620   2.3024   8.3456   O.2       2 RES2   0.0000
   100 O8      10.0521   2.5392   6.4710   O.3       2 RES2  -1.0000
   101 Cl2      4.0670  10.2474   5.7396   Cl        3 RES3   0.0000
   102 O9       4.1344   9.1586   4.8274   O.2       3 RES3   0.0000
   103 O10      5.2755  10.3381   6.4898   O.2       3 RES3   0.0000
   104 O11      2.9686  10.0489   6.6380   O.3       3 RES3  -1.0000
   105 O12      3.9093  11.4604   4.9997   O.2       3 RES3   0.0000
   106 O13     10.8312   4.8871   7.9766   O.3       4 RES4   0.0000
   107 H39     10.4871   4.1944   7.6488   H         4 RES4   0.0000
   108 C47      9.8474   5.6339   8.6193   C.3       4 RES4   0.0000
   109 H40     10.2622   6.3959   9.0762   H         4 RES4   0.0000
   110 H41      9.3873   5.0710   9.2770   H         4 RES4   0.0000
   111 H42      9.2013   5.9608   7.9599   H         4 RES4   0.0000
@<TRIPOS>BOND
     1     1     6    1
     2     2    25    1
     3     3    37    1
     4     4    67    1
     5     5    79    1
     6     6    23    1
     7     7     1    1
     8     8     1    1
     9     9     1    1
    10    10     1    1
    11    11     1    1
    12    12    13   ar
    13    13    14    1
    14    15    13   ar
    15    16    15    1
    16    17    15   ar
    17    18    17    1
    18    19    17   ar
    19    20    19    1
    20    21    12   ar
    21    22    21    1
    22    23    12    1
    23    24    23    1
    24    25    23    1
    25    26    25    1
    26    27    25    1
    27    28     2    1
    28    29     7   ar
    29    30    29   ar
    30    31    30    1
    31    32    30   ar
    32    33    32    1
    33    34    32   ar
    34    35    34    1
    35    36     7   ar
    36    37     8    2
    37    38     3    1
    38    39    38    1
    39    40    38    1
    40    41     8    1
    41    42    41    1
    42    43    41    1
    43    44    43   ar
    44    45    44    1
    45    46    44   ar
    46    47    46    1
    47    48    46   ar
    48    49    48    1
    49    50    48   ar
    50    51    50    1
    51    52    43   ar
    52    53    52    1
    53    54    55   ar
    54    55    56    1
    55    57    55   ar
    56    58    57    1
    57    59    57   ar
    58    60    59    1
    59    61    59   ar
    60    62    61    1
    61    63    54   ar
    62    64    63    1
    63    65     9    1
    64    66    65    1
    65    67    65    1
    66    68    67    1
    67    69    67    1
    68    70     4    1
    69    71    10   ar
    70    72    71   ar
    71    73    72    1
    72    74    72   ar
    73    75    74    1
    74    76    74   ar
    75    77    76    1
    76    78    10   ar
    77    79    11    2
    78    80     5    1
    79    81    80    1
    80    82    80    1
    81    83    11    1
    82    84    83    1
    83    85    83    1
    84    86    85   ar
    85    87    86    1
    86    88    86   ar
    87    89    88    1
    88    90    88   ar
    89    91    90    1
    90    92    90   ar
    91    93    92    1
    92    94    85   ar
    93    95    94    1
    94     6    28    2
    95     9    70    2
    96    19    21   ar
    97    28    29    1
    98    34    36   ar
    99    36    37    1
   100    38    41    1
   101    50    52   ar
   102    54    65    1
   103    61    63   ar
   104    70    71    1
   105    76    78   ar
   106    78    79    1
   107    80    83    1
   108    92    94   ar
   109    96    97    2
   110    98    96    2
   111    99    96    2
   112   100    96    1
   113   101   102    2
   114   103   101    2
   115   104   101    1
   116   105   101    2
   117   106   107    1
   118   108   106    1
   119   109   108    1
   120   110   108    1
   121   111   108    1
@<TRIPOS>SUBSTRUCTURE
     1 RES1        1 GROUP             0 ****  ****    0  
     2 RES2       96 GROUP             0 ****  ****    0  
     3 RES3      101 GROUP             0 ****  ****    0  
     4 RES4      106 GROUP             0 ****  ****    0  
@<TRIPOS>CRYSIN
   13.8560   18.3140   17.5230   90.0000   90.4700   90.0000   231     1
