@<TRIPOS>MOLECULE
AMUQIJ
    93    98     5     0     0
SMALL
USER_CHARGES
****
Generated from the CSD

@<TRIPOS>ATOM
     1 Fe1      8.1420   5.8058  12.9542   Fe        1 RES1   2.0000
     2 N1       8.4074   4.4034  14.3735   N.ar      1 RES1   0.0000
     3 C1       6.8736   8.2155  11.8545   C.ar      1 RES1   0.0000
     4 N2       7.7420   7.2084  11.5642   N.ar      1 RES1   0.0000
     5 C2       6.9116   2.0043  10.2585   C.ar      1 RES1   0.0000
     6 H1       6.6265   1.3030   9.7174   H         1 RES1   0.0000
     7 N3       8.3822   7.4122  14.1592   N.ar      1 RES1   0.0000
     8 N4       7.6999   4.1816  11.8338   N.ar      1 RES1   0.0000
     9 C3      12.4894   6.0999  11.5638   C.3       1 RES1   0.0000
    10 H2      12.8379   5.2445  11.2995   H         1 RES1   0.0000
    11 H3      13.0426   6.4709  12.2563   H         1 RES1   0.0000
    12 H4      12.4841   6.6905  10.8077   H         1 RES1   0.0000
    13 C5       7.3111   9.3235   9.7805   C.ar      1 RES1   0.0000
    14 H6       7.1815  10.0350   9.1951   H         1 RES1   0.0000
    15 N5       5.5732   6.9389  13.4930   N.pl3     1 RES1   0.0000
    16 N6       5.5841   4.8241  13.7704   N.pl3     1 RES1   0.0000
    17 N7      10.0533   5.8223  12.4323   N.1       1 RES1   0.0000
    18 C6       7.4506   3.4592  14.5805   C.ar      1 RES1   0.0000
    19 C9       8.1795   8.2967   9.4627   C.ar      1 RES1   0.0000
    20 H11      8.6357   8.2986   8.6519   H         1 RES1   0.0000
    21 C10      6.3216   2.2327  11.4950   C.ar      1 RES1   0.0000
    22 H12      5.6507   1.6686  11.8065   H         1 RES1   0.0000
    23 C11      4.2897   6.5964  13.9194   C.2       1 RES1   0.0000
    24 H13      3.5742   7.1740  14.0538   H         1 RES1   0.0000
    25 C12      6.7437   3.3102  12.2596   C.ar      1 RES1   0.0000
    26 C13      8.7647   2.3314  16.2260   C.ar      1 RES1   0.0000
    27 H14      8.8791   1.6524  16.8520   H         1 RES1   0.0000
    28 C14      8.3606   7.2667  10.3685   C.ar      1 RES1   0.0000
    29 H15      8.9401   6.5770  10.1406   H         1 RES1   0.0000
    30 C15      6.3521   5.8565  13.4172   C.3       1 RES1   0.0000
    31 C16      7.4455   9.4112  15.1251   C.ar      1 RES1   0.0000
    32 H16      6.7488  10.0261  15.1575   H         1 RES1   0.0000
    33 C17      6.6353   9.2703  10.9928   C.ar      1 RES1   0.0000
    34 H17      6.0291   9.9377  11.2232   H         1 RES1   0.0000
    35 C18      4.2959   5.2553  14.0971   C.2       1 RES1   0.0000
    36 H18      3.5851   4.7256  14.3798   H         1 RES1   0.0000
    37 C19      7.9354   2.8451   9.8487   C.ar      1 RES1   0.0000
    38 H19      8.3759   2.6945   9.0426   H         1 RES1   0.0000
    39 C20      8.5422   9.5475  15.9628   C.ar      1 RES1   0.0000
    40 H20      8.5856  10.2414  16.5813   H         1 RES1   0.0000
    41 C21      6.2580   8.2097  13.2454   C.3       1 RES1   0.0000
    42 H21      5.6312   8.9575  13.3409   H         1 RES1   0.0000
    43 C22      7.4018   8.3501  14.2418   C.ar      1 RES1   0.0000
    44 C23      6.2283   3.5162  13.6747   C.3       1 RES1   0.0000
    45 H22      5.5947   2.8065  13.9128   H         1 RES1   0.0000
    46 C24      9.5716   8.6273  15.8568   C.ar      1 RES1   0.0000
    47 H23     10.3301   8.7054  16.3888   H         1 RES1   0.0000
    48 C25     11.1298   5.9374  12.0634   C.1       1 RES1   0.0000
    49 C26      8.2925   3.9098  10.6541   C.ar      1 RES1   0.0000
    50 H24      8.9775   4.4677  10.3674   H         1 RES1   0.0000
    51 C27      7.6004   2.4184  15.4735   C.ar      1 RES1   0.0000
    52 H25      6.9290   1.7821  15.5711   H         1 RES1   0.0000
    53 C28      9.7477   3.2795  16.0213   C.ar      1 RES1   0.0000
    54 H26     10.5416   3.2457  16.5051   H         1 RES1   0.0000
    55 C29      9.5417   4.2799  15.0898   C.ar      1 RES1   0.0000
    56 H27     10.2214   4.8996  14.9497   H         1 RES1   0.0000
    57 C30      9.4567   7.5927  14.9516   C.ar      1 RES1   0.0000
    58 H28     10.1587   6.9868  14.8849   H         1 RES1   0.0000
    59 P1       0.0878   5.7185  15.5921   P.3       2 RES2  -1.0000
    60 F1      -0.6618   4.9406  14.4034   F         2 RES2   0.0000
    61 F2       1.2314   6.1628  14.5988   F         2 RES2   0.0000
    62 F3       0.9124   4.3981  15.9517   F         2 RES2   0.0000
    63 F5       0.7934   6.4977  16.7960   F         2 RES2   0.0000
    64 F6      -0.7557   7.0261  15.2299   F         2 RES2   0.0000
    65 F10     -1.0689   5.2451  16.6004   F         2 RES2   0.0000
    66 P2       1.8607   9.0818  11.3391   P.3       3 RES3  -1.0000
    67 F4       0.3167   9.1378  10.9026   F         3 RES3   0.0000
    68 F7       1.7059  10.4871  12.0518   F         3 RES3   0.0000
    69 F8       1.4551   8.3421  12.6826   F         3 RES3   0.0000
    70 F9       3.4106   9.0002  11.7192   F         3 RES3   0.0000
    71 F11      2.2404   9.8065   9.9602   F         3 RES3   0.0000
    72 F12      1.9826   7.6669  10.5826   F         3 RES3   0.0000
    73 C4       2.5740   3.0055   9.9210   C.ar      4 RES4   0.0000
    74 H5       2.6815   3.1956   9.0159   H         4 RES4   0.0000
    75 C7       3.3022   0.6618   9.4387   C.3       4 RES4   0.0000
    76 H7       2.5683   0.3965   8.8787   H         4 RES4   0.0000
    77 H8       3.6130  -0.0973   9.9385   H         4 RES4   0.0000
    78 H9       4.0158   0.9979   8.8920   H         4 RES4   0.0000
    79 C8       2.6937   1.4871  11.7404   C.ar      4 RES4   0.0000
    80 H10      2.8677   0.6397  12.0791   H         4 RES4   0.0000
    81 C31      2.1435   4.0052  10.7789   C.ar      4 RES4   0.0000
    82 H29      1.9586   4.8539  10.4474   H         4 RES4   0.0000
    83 C32      1.9885   3.7454  12.1086   C.ar      4 RES4   0.0000
    84 H30      1.6852   4.4102  12.6833   H         4 RES4   0.0000
    85 C33      2.8491   1.7300  10.3842   C.ar      4 RES4   0.0000
    86 C34      2.2807   2.4984  12.5941   C.ar      4 RES4   0.0000
    87 H31      2.2012   2.3274  13.5049   H         4 RES4   0.0000
    88 C35     -0.1874  13.2468  10.9621   C.1       5 RES5   0.0000
    89 N8      -0.7048  13.7347  11.8143   N.1       5 RES5   0.0000
    90 C36      0.3929  12.6646   9.7803   C.3       5 RES5   0.0000
    91 H32      0.0370  11.7817   9.6526   H         5 RES5   0.0000
    92 H33      1.3467  12.6130   9.8851   H         5 RES5   0.0000
    93 H34      0.1835  13.2100   9.0198   H         5 RES5   0.0000
@<TRIPOS>BOND
     1     1     2    1
     2     2    18   ar
     3     3     4   ar
     4     4     1    1
     5     5     6    1
     6     7     1    1
     7     8     1    1
     8     9    10    1
     9    11     9    1
    10    12     9    1
    11    13    14    1
    12    15    23    1
    13    16    30    1
    14    17     1    1
    15    18    44    1
    16    19    13   ar
    17    20    19    1
    18    21     5   ar
    19    22    21    1
    20    23    24    1
    21    25     8   ar
    22    26    27    1
    23    28     4   ar
    24    29    28    1
    25    30     1    1
    26    31    32    1
    27    33     3   ar
    28    34    33    1
    29    35    16    1
    30    36    35    1
    31    37     5   ar
    32    38    37    1
    33    39    31   ar
    34    40    39    1
    35    41     3    1
    36    42    41    1
    37    43     7   ar
    38    44    16    1
    39    45    44    1
    40    46    39   ar
    41    47    46    1
    42    48     9    1
    43    49     8   ar
    44    50    49    1
    45    51    18   ar
    46    52    51    1
    47    53    26   ar
    48    54    53    1
    49    55     2   ar
    50    56    55    1
    51    57     7   ar
    52    58    57    1
    53    13    33   ar
    54    15    30    1
    55    15    41    1
    56    17    48    3
    57    19    28   ar
    58    21    25   ar
    59    23    35    2
    60    25    44    1
    61    26    51   ar
    62    31    43   ar
    63    37    49   ar
    64    41    43    1
    65    46    57   ar
    66    53    55   ar
    67    59    60    1
    68    61    59    1
    69    62    59    1
    70    63    59    1
    71    64    59    1
    72    65    59    1
    73    66    67    1
    74    68    66    1
    75    69    66    1
    76    70    66    1
    77    71    66    1
    78    72    66    1
    79    73    74    1
    80    75    76    1
    81    77    75    1
    82    78    75    1
    83    79    80    1
    84    81    73   ar
    85    82    81    1
    86    83    81   ar
    87    84    83    1
    88    85    73   ar
    89    86    79   ar
    90    87    86    1
    91    75    85    1
    92    79    85   ar
    93    83    86   ar
    94    88    89    3
    95    90    88    1
    96    91    90    1
    97    92    90    1
    98    93    90    1
@<TRIPOS>SUBSTRUCTURE
     1 RES1        1 GROUP             0 ****  ****    0  
     2 RES2       59 GROUP             0 ****  ****    0  
     3 RES3       66 GROUP             0 ****  ****    0  
     4 RES4       73 GROUP             0 ****  ****    0  
     5 RES5       88 GROUP             0 ****  ****    0  
@<TRIPOS>CRYSIN
   13.3937   14.7400   19.0667   90.0000   91.3780   90.0000   231     1
