@<TRIPOS>MOLECULE
APEKOY
   144   158     2     0     0
SMALL
USER_CHARGES
****
Generated from the CSD

@<TRIPOS>ATOM
     1 Fe1     -0.6861   5.4437   4.2103   Fe        1 RES1   2.0000
     2 P1       0.2960   6.9632   5.5476   P.3       1 RES1   0.0000
     3 N1       0.9502   5.5503   3.1700   N.2       1 RES1   0.0000
     4 N2      -1.1015   4.0071   2.8147   N.ar      1 RES1   0.0000
     5 C1       1.9293   7.0535   4.7709   C.ar      1 RES1   0.0000
     6 C2       2.0758   6.3361   3.5782   C.ar      1 RES1   0.0000
     7 C3       3.2860   6.3906   2.8793   C.ar      1 RES1   0.0000
     8 H1       3.3903   5.9078   2.0681   H         1 RES1   0.0000
     9 C4       4.3281   7.1499   3.3765   C.ar      1 RES1   0.0000
    10 H2       5.1425   7.2035   2.8916   H         1 RES1   0.0000
    11 C5       4.1980   7.8364   4.5764   C.ar      1 RES1   0.0000
    12 H3       4.9253   8.3446   4.9159   H         1 RES1   0.0000
    13 C6       3.0081   7.7813   5.2772   C.ar      1 RES1   0.0000
    14 H4       2.9242   8.2401   6.1049   H         1 RES1   0.0000
    15 C7       0.9376   4.9152   2.0363   C.2       1 RES1   0.0000
    16 H5       1.6400   5.0122   1.4029   H         1 RES1   0.0000
    17 C8      -0.1883   4.0582   1.7865   C.ar      1 RES1   0.0000
    18 C9      -0.3083   3.3276   0.6154   C.ar      1 RES1   0.0000
    19 H6       0.3298   3.4210  -0.0825   H         1 RES1   0.0000
    20 C10     -1.3763   2.4586   0.4823   C.ar      1 RES1   0.0000
    21 H7      -1.5026   1.9594  -0.3166   H         1 RES1   0.0000
    22 C11     -2.2516   2.3356   1.5408   C.ar      1 RES1   0.0000
    23 H8      -2.9612   1.7071   1.4871   H         1 RES1   0.0000
    24 C12     -2.1147   3.1174   2.6931   C.ar      1 RES1   0.0000
    25 C13     -3.1283   2.9846   3.7866   C.3       1 RES1   0.0000
    26 H9      -2.6713   2.8005   4.6347   H         1 RES1   0.0000
    27 H10     -3.7387   2.2481   3.5771   H         1 RES1   0.0000
    28 H11     -3.6371   3.8188   3.8634   H         1 RES1   0.0000
    29 C14     -0.3137   8.6690   5.7497   C.ar      1 RES1   0.0000
    30 C15     -1.6116   8.8602   6.2339   C.ar      1 RES1   0.0000
    31 H12     -2.1768   8.1105   6.3811   H         1 RES1   0.0000
    32 C16     -2.0790  10.1377   6.5014   C.ar      1 RES1   0.0000
    33 H13     -2.9551  10.2586   6.8493   H         1 RES1   0.0000
    34 C17     -1.2726  11.2333   6.2632   C.ar      1 RES1   0.0000
    35 H14     -1.5900  12.1066   6.4569   H         1 RES1   0.0000
    36 C18     -0.0029  11.0592   5.7442   C.ar      1 RES1   0.0000
    37 H15      0.5415  11.8157   5.5593   H         1 RES1   0.0000
    38 C19      0.4784   9.7876   5.4929   C.ar      1 RES1   0.0000
    39 H16      1.3547   9.6744   5.1433   H         1 RES1   0.0000
    40 C20      0.6383   6.4793   7.2863   C.ar      1 RES1   0.0000
    41 C21     -0.1770   6.9055   8.3411   C.ar      1 RES1   0.0000
    42 H17     -0.8940   7.5036   8.1680   H         1 RES1   0.0000
    43 C22      0.0488   6.4657   9.6348   C.ar      1 RES1   0.0000
    44 H18     -0.5145   6.7625  10.3405   H         1 RES1   0.0000
    45 C23      1.0901   5.5976   9.9050   C.ar      1 RES1   0.0000
    46 H19      1.2410   5.2941  10.7918   H         1 RES1   0.0000
    47 C24      1.9119   5.1734   8.8711   C.ar      1 RES1   0.0000
    48 H20      2.6316   4.5826   9.0538   H         1 RES1   0.0000
    49 C25      1.6910   5.6064   7.5733   C.ar      1 RES1   0.0000
    50 H21      2.2593   5.3077   6.8729   H         1 RES1   0.0000
    51 P1A     -1.6682   6.9632   2.8729   P.3       1 RES1   0.0000
    52 N1A     -2.3224   5.5503   5.2506   N.2       1 RES1   0.0000
    53 N2A     -0.2707   4.0071   5.6059   N.ar      1 RES1   0.0000
    54 C1A     -3.3015   7.0535   3.6496   C.ar      1 RES1   0.0000
    55 C2A     -3.4480   6.3361   4.8423   C.ar      1 RES1   0.0000
    56 C3A     -4.6582   6.3906   5.5412   C.ar      1 RES1   0.0000
    57 H1A     -4.7625   5.9078   6.3525   H         1 RES1   0.0000
    58 C4A     -5.7003   7.1499   5.0441   C.ar      1 RES1   0.0000
    59 H2A     -6.5147   7.2035   5.5290   H         1 RES1   0.0000
    60 C5A     -5.5702   7.8364   3.8442   C.ar      1 RES1   0.0000
    61 H3A     -6.2975   8.3446   3.5046   H         1 RES1   0.0000
    62 C6A     -4.3803   7.7813   3.1434   C.ar      1 RES1   0.0000
    63 H4A     -4.2964   8.2401   2.3157   H         1 RES1   0.0000
    64 C7A     -2.3098   4.9152   6.3843   C.2       1 RES1   0.0000
    65 H5A     -3.0122   5.0122   7.0177   H         1 RES1   0.0000
    66 C8A     -1.1839   4.0582   6.6341   C.ar      1 RES1   0.0000
    67 C9A     -1.0639   3.3276   7.8052   C.ar      1 RES1   0.0000
    68 H6A     -1.7020   3.4210   8.5031   H         1 RES1   0.0000
    69 C10A     0.0041   2.4586   7.9382   C.ar      1 RES1   0.0000
    70 H7A      0.1304   1.9594   8.7372   H         1 RES1   0.0000
    71 C11A     0.8794   2.3356   6.8798   C.ar      1 RES1   0.0000
    72 H8A      1.5890   1.7071   6.9335   H         1 RES1   0.0000
    73 C12A     0.7425   3.1174   5.7275   C.ar      1 RES1   0.0000
    74 C13A     1.7561   2.9846   4.6340   C.3       1 RES1   0.0000
    75 H9A      1.2991   2.8005   3.7859   H         1 RES1   0.0000
    76 H10A     2.3665   2.2481   4.8435   H         1 RES1   0.0000
    77 H11A     2.2649   3.8188   4.5572   H         1 RES1   0.0000
    78 C14A    -1.0585   8.6690   2.6708   C.ar      1 RES1   0.0000
    79 C15A     0.2394   8.8602   2.1867   C.ar      1 RES1   0.0000
    80 H12A     0.8046   8.1105   2.0395   H         1 RES1   0.0000
    81 C16A     0.7068  10.1377   1.9192   C.ar      1 RES1   0.0000
    82 H13A     1.5829  10.2586   1.5713   H         1 RES1   0.0000
    83 C17A    -0.0996  11.2333   2.1574   C.ar      1 RES1   0.0000
    84 H14A     0.2178  12.1066   1.9637   H         1 RES1   0.0000
    85 C18A    -1.3692  11.0592   2.6764   C.ar      1 RES1   0.0000
    86 H15A    -1.9137  11.8157   2.8613   H         1 RES1   0.0000
    87 C19A    -1.8505   9.7876   2.9277   C.ar      1 RES1   0.0000
    88 H16A    -2.7269   9.6744   3.2773   H         1 RES1   0.0000
    89 C20A    -2.0105   6.4793   1.1343   C.ar      1 RES1   0.0000
    90 C21A    -1.1952   6.9055   0.0795   C.ar      1 RES1   0.0000
    91 H17A    -0.4782   7.5036   0.2526   H         1 RES1   0.0000
    92 C22A    -1.4210   6.4657  -1.2142   C.ar      1 RES1   0.0000
    93 H18A    -0.8577   6.7625  -1.9199   H         1 RES1   0.0000
    94 C23A    -2.4623   5.5976  -1.4844   C.ar      1 RES1   0.0000
    95 H19A    -2.6132   5.2941  -2.3712   H         1 RES1   0.0000
    96 C24A    -3.2841   5.1734  -0.4505   C.ar      1 RES1   0.0000
    97 H20A    -4.0037   4.5826  -0.6332   H         1 RES1   0.0000
    98 C25A    -3.0631   5.6064   0.8473   C.ar      1 RES1   0.0000
    99 H21A    -3.6315   5.3077   1.5477   H         1 RES1   0.0000
   100 B1       4.2252   1.4512   0.5812   B         2 RES2  -1.0000
   101 C26      4.9393   0.2421  -0.2821   C.ar      2 RES2   0.0000
   102 C27      5.5012   0.4705  -1.5464   C.ar      2 RES2   0.0000
   103 H22      5.4143   1.3343  -1.9317   H         2 RES2   0.0000
   104 C28      6.1821  -0.5130  -2.2636   C.ar      2 RES2   0.0000
   105 H23      6.5394  -0.3114  -3.1207   H         2 RES2   0.0000
   106 C29      6.3372  -1.7762  -1.7319   C.ar      2 RES2   0.0000
   107 H24      6.8082  -2.4482  -2.2096   H         2 RES2   0.0000
   108 C30      5.7920  -2.0463  -0.4879   C.ar      2 RES2   0.0000
   109 H25      5.8826  -2.9119  -0.1095   H         2 RES2   0.0000
   110 C31      5.1114  -1.0545   0.2100   C.ar      2 RES2   0.0000
   111 H26      4.7467  -1.2684   1.0610   H         2 RES2   0.0000
   112 C32      3.5215   2.5484  -0.4247   C.ar      2 RES2   0.0000
   113 C33      3.6332   3.9370  -0.2432   C.ar      2 RES2   0.0000
   114 H27      4.1955   4.2598   0.4513   H         2 RES2   0.0000
   115 C34      2.9584   4.8633  -1.0354   C.ar      2 RES2   0.0000
   116 H28      3.0630   5.7942  -0.8741   H         2 RES2   0.0000
   117 C35      2.1311   4.4258  -2.0622   C.ar      2 RES2   0.0000
   118 H29      1.6486   5.0486  -2.5935   H         2 RES2   0.0000
   119 C36      2.0198   3.0630  -2.3005   C.ar      2 RES2   0.0000
   120 H30      1.4712   2.7505  -3.0095   H         2 RES2   0.0000
   121 C37      2.7089   2.1524  -1.5031   C.ar      2 RES2   0.0000
   122 H31      2.6274   1.2252  -1.6959   H         2 RES2   0.0000
   123 C38      5.3815   2.2108   1.4793   C.ar      2 RES2   0.0000
   124 C39      5.0797   2.8773   2.6735   C.ar      2 RES2   0.0000
   125 H32      4.1808   2.8800   2.9809   H         2 RES2   0.0000
   126 C40      6.0477   3.5377   3.4292   C.ar      2 RES2   0.0000
   127 H33      5.7977   3.9780   4.2339   H         2 RES2   0.0000
   128 C41      7.3677   3.5554   3.0169   C.ar      2 RES2   0.0000
   129 H34      8.0353   3.9757   3.5467   H         2 RES2   0.0000
   130 C42      7.6952   2.9491   1.8217   C.ar      2 RES2   0.0000
   131 H35      8.5914   2.9778   1.5056   H         2 RES2   0.0000
   132 C43      6.7166   2.2934   1.0743   C.ar      2 RES2   0.0000
   133 H36      6.9682   1.8844   0.2543   H         2 RES2   0.0000
   134 C44      3.0771   0.7899   1.5704   C.ar      2 RES2   0.0000
   135 C45      1.7096   0.7506   1.2633   C.ar      2 RES2   0.0000
   136 H37      1.4151   1.1525   0.4530   H         2 RES2   0.0000
   137 C46      0.7597   0.1509   2.0905   C.ar      2 RES2   0.0000
   138 H38     -0.1553   0.1523   1.8391   H         2 RES2   0.0000
   139 C47      1.1466  -0.4430   3.2719   C.ar      2 RES2   0.0000
   140 H39      0.5033  -0.8524   3.8398   H         2 RES2   0.0000
   141 C48      2.4886  -0.4326   3.6192   C.ar      2 RES2   0.0000
   142 H40      2.7719  -0.8365   4.4309   H         2 RES2   0.0000
   143 C49      3.4226   0.1675   2.7811   C.ar      2 RES2   0.0000
   144 H41      4.3373   0.1568   3.0398   H         2 RES2   0.0000
@<TRIPOS>BOND
     1     1     2    1
     2     2     5    1
     3     3     1    1
     4     4     1    1
     5     5     6   ar
     6     6     3    1
     7     7     6   ar
     8     8     7    1
     9     9     7   ar
    10    10     9    1
    11    11     9   ar
    12    12    11    1
    13    13     5   ar
    14    14    13    1
    15    15     3    2
    16    16    15    1
    17    17     4   ar
    18    18    17   ar
    19    19    18    1
    20    20    18   ar
    21    21    20    1
    22    22    20   ar
    23    23    22    1
    24    24     4   ar
    25    25    24    1
    26    26    25    1
    27    27    25    1
    28    28    25    1
    29    29     2    1
    30    30    29   ar
    31    31    30    1
    32    32    30   ar
    33    33    32    1
    34    34    32   ar
    35    35    34    1
    36    36    34   ar
    37    37    36    1
    38    38    29   ar
    39    39    38    1
    40    40     2    1
    41    41    40   ar
    42    42    41    1
    43    43    41   ar
    44    44    43    1
    45    45    43   ar
    46    46    45    1
    47    47    45   ar
    48    48    47    1
    49    49    40   ar
    50    50    49    1
    51    51     1    1
    52    52     1    1
    53    53     1    1
    54    54    51    1
    55    55    52    1
    56    56    55   ar
    57    57    56    1
    58    58    56   ar
    59    59    58    1
    60    60    58   ar
    61    61    60    1
    62    62    54   ar
    63    63    62    1
    64    64    52    2
    65    65    64    1
    66    66    53   ar
    67    67    66   ar
    68    68    67    1
    69    69    67   ar
    70    70    69    1
    71    71    69   ar
    72    72    71    1
    73    73    53   ar
    74    74    73    1
    75    75    74    1
    76    76    74    1
    77    77    74    1
    78    78    51    1
    79    79    78   ar
    80    80    79    1
    81    81    79   ar
    82    82    81    1
    83    83    81   ar
    84    84    83    1
    85    85    83   ar
    86    86    85    1
    87    87    78   ar
    88    88    87    1
    89    89    51    1
    90    90    89   ar
    91    91    90    1
    92    92    90   ar
    93    93    92    1
    94    94    92   ar
    95    95    94    1
    96    96    94   ar
    97    97    96    1
    98    98    89   ar
    99    99    98    1
   100    11    13   ar
   101    15    17    1
   102    22    24   ar
   103    36    38   ar
   104    47    49   ar
   105    54    55   ar
   106    60    62   ar
   107    64    66    1
   108    71    73   ar
   109    85    87   ar
   110    96    98   ar
   111   100   101    1
   112   101   102   ar
   113   102   103    1
   114   104   102   ar
   115   105   104    1
   116   106   104   ar
   117   107   106    1
   118   108   106   ar
   119   109   108    1
   120   110   101   ar
   121   111   110    1
   122   112   100    1
   123   113   112   ar
   124   114   113    1
   125   115   113   ar
   126   116   115    1
   127   117   115   ar
   128   118   117    1
   129   119   117   ar
   130   120   119    1
   131   121   112   ar
   132   122   121    1
   133   123   100    1
   134   124   123   ar
   135   125   124    1
   136   126   124   ar
   137   127   126    1
   138   128   126   ar
   139   129   128    1
   140   130   128   ar
   141   131   130    1
   142   132   123   ar
   143   133   132    1
   144   134   100    1
   145   135   134   ar
   146   136   135    1
   147   137   135   ar
   148   138   137    1
   149   139   137   ar
   150   140   139    1
   151   141   139   ar
   152   142   141    1
   153   143   134   ar
   154   144   143    1
   155   108   110   ar
   156   119   121   ar
   157   130   132   ar
   158   141   143   ar
@<TRIPOS>SUBSTRUCTURE
     1 RES1        1 GROUP             0 ****  ****    0  
     2 RES2      100 GROUP             0 ****  ****    0  
@<TRIPOS>CRYSIN
   19.7734   22.7312   17.0633   90.0000   99.2554   90.0000    15     1
