@<TRIPOS>MOLECULE
APIKUH
    80    81     2     0     0
SMALL
NO_CHARGES
****
Generated from the CSD

@<TRIPOS>ATOM
     1 C1       3.5863   2.0666   0.7713   C.2       1 RES1   0.0000
     2 H1       3.6054   2.2629   1.7008   H         1 RES1   0.0000
     3 C2       3.4855   0.7291   0.2949   C.ar      1 RES1   0.0000
     4 C3       3.4123  -0.3905   1.1284   C.ar      1 RES1   0.0000
     5 C4       3.3240  -1.6576   0.6250   C.ar      1 RES1   0.0000
     6 H2       3.2680  -2.4119   1.1997   H         1 RES1   0.0000
     7 C5       3.3195  -1.8034  -0.7502   C.ar      1 RES1   0.0000
     8 H3       3.2692  -2.6759  -1.1228   H         1 RES1   0.0000
     9 C6       3.3861  -0.7108  -1.6006   C.ar      1 RES1   0.0000
    10 H4       3.3764  -0.8612  -2.5390   H         1 RES1   0.0000
    11 C7       3.4690   0.6122  -1.1300   C.ar      1 RES1   0.0000
    12 C8       3.7318   4.3406   0.3905   C.ar      1 RES1   0.0000
    13 C9       4.7506   5.1941  -0.0217   C.ar      1 RES1   0.0000
    14 H5       5.3686   4.9123  -0.6863   H         1 RES1   0.0000
    15 C10      4.8605   6.4494   0.5373   C.ar      1 RES1   0.0000
    16 H6       5.5627   7.0275   0.2602   H         1 RES1   0.0000
    17 C11      3.9585   6.8771   1.4986   C.ar      1 RES1   0.0000
    18 H7       4.0461   7.7397   1.8877   H         1 RES1   0.0000
    19 C12      2.9366   6.0460   1.8849   C.ar      1 RES1   0.0000
    20 H8       2.3065   6.3418   2.5320   H         1 RES1   0.0000
    21 C13      2.8178   4.7788   1.3387   C.ar      1 RES1   0.0000
    22 H9       2.1087   4.2089   1.6135   H         1 RES1   0.0000
    23 C14      0.5844   2.0975  -0.2219   C.3       1 RES1   0.0000
    24 H10      0.8072   2.8691   0.3405   H         1 RES1   0.0000
    25 H11      0.9430   1.2817   0.1851   H         1 RES1   0.0000
    26 H12     -0.3890   2.0217  -0.3021   H         1 RES1   0.0000
    27 C15      0.3799   3.8051  -2.3915   C.3       1 RES1   0.0000
    28 H13      0.5632   3.9993  -3.3335   H         1 RES1   0.0000
    29 H14      0.6524   4.5688  -1.8423   H         1 RES1   0.0000
    30 H15     -0.5801   3.6432  -2.2718   H         1 RES1   0.0000
    31 C16      0.4168   0.9610  -2.7047   C.3       1 RES1   0.0000
    32 H16     -0.5424   1.0443  -2.5216   H         1 RES1   0.0000
    33 H17      0.7405   0.1023  -2.3609   H         1 RES1   0.0000
    34 H18      0.5711   1.0052  -3.6723   H         1 RES1   0.0000
    35 C17      6.5489   1.8741  -0.3028   C.3       1 RES1   0.0000
    36 H19      6.0979   1.1706   0.2078   H         1 RES1   0.0000
    37 H20      6.4478   2.7314   0.1607   H         1 RES1   0.0000
    38 H21      7.5008   1.6581  -0.3842   H         1 RES1   0.0000
    39 C18      6.4287   0.4259  -2.6759   C.3       1 RES1   0.0000
    40 H22      6.2018   0.3839  -3.6287   H         1 RES1   0.0000
    41 H23      6.0169  -0.3309  -2.2072   H         1 RES1   0.0000
    42 H24      7.4024   0.3852  -2.5704   H         1 RES1   0.0000
    43 C19      6.9692   3.2094  -2.6775   C.3       1 RES1   0.0000
    44 H25      7.8890   2.9095  -2.5233   H         1 RES1   0.0000
    45 H26      6.8327   4.0801  -2.2474   H         1 RES1   0.0000
    46 H27      6.8100   3.2921  -3.6409   H         1 RES1   0.0000
    47 C20      4.8886   2.4309  -5.2885   C.3       1 RES1   0.0000
    48 H28      5.6851   1.9094  -5.0571   H         1 RES1   0.0000
    49 H29      5.0617   3.3818  -5.1287   H         1 RES1   0.0000
    50 H30      4.6712   2.2920  -6.2340   H         1 RES1   0.0000
    51 C21      3.2941   0.1954  -4.9287   C.3       1 RES1   0.0000
    52 H31      3.2424   0.2387  -5.9057   H         1 RES1   0.0000
    53 H32      2.4744  -0.2096  -4.5751   H         1 RES1   0.0000
    54 H33      4.0658  -0.3485  -4.6659   H         1 RES1   0.0000
    55 C22      2.1724   2.7438  -5.2217   C.3       1 RES1   0.0000
    56 H34      2.2620   3.7126  -5.1042   H         1 RES1   0.0000
    57 H35      1.2905   2.4561  -4.9069   H         1 RES1   0.0000
    58 H36      2.2691   2.5193  -6.1712   H         1 RES1   0.0000
    59 N1       3.6513   3.0047  -0.1203   N.2       1 RES1   0.0000
    60 P1       1.3146   2.3248  -1.8812   P.3       1 RES1   0.0000
    61 P2       5.8045   1.9916  -1.9697   P.3       1 RES1   0.0000
    62 P3       3.4796   1.8847  -4.2531   P.3       1 RES1   0.0000
    63 Cl1      3.6922   4.5716  -2.8813   Cl        1 RES1   0.0000
    64 Cl2      3.4424  -0.1894   2.8710   Cl        1 RES1   0.0000
    65 Fe1      3.5744   2.3437  -2.0269   Fe        1 RES1   0.0000
    66 C23     -0.2824   3.0749   3.7106   C.3       2 RES2   0.0000
    67 H37     -0.9906   2.4107   3.5204   H         2 RES2   0.0000
    68 H38     -0.5167   3.5447   4.5507   H         2 RES2   0.0000
    69 C24      1.0028   2.3905   3.8726   C.3       2 RES2   0.0000
    70 H39      1.2451   1.9472   3.0332   H         2 RES2   0.0000
    71 H40      0.9295   1.7225   4.5856   H         2 RES2   0.0000
    72 H41      1.6943   3.0446   4.1071   H         2 RES2   0.0000
    73 C25     -1.3768   4.7847   2.5458   C.3       2 RES2   0.0000
    74 H42     -1.3563   5.5210   3.2078   H         2 RES2   0.0000
    75 H43     -2.1855   4.2405   2.7136   H         2 RES2   0.0000
    76 C26     -1.4217   5.3341   1.1969   C.3       2 RES2   0.0000
    77 H44     -0.5841   5.8064   1.0076   H         2 RES2   0.0000
    78 H45     -2.1730   5.9604   1.1246   H         2 RES2   0.0000
    79 H46     -1.5394   4.6067   0.5518   H         2 RES2   0.0000
    80 O1      -0.2163   3.9792   2.6848   O.3       2 RES2   0.0000
@<TRIPOS>BOND
     1     1     2    1
     2     3     1    1
     3     4     3   ar
     4     5     4   ar
     5     6     5    1
     6     7     5   ar
     7     8     7    1
     8     9     7   ar
     9    10     9    1
    10    11     3   ar
    11    12    13   ar
    12    13    14    1
    13    15    13   ar
    14    16    15    1
    15    17    15   ar
    16    18    17    1
    17    19    17   ar
    18    20    19    1
    19    21    12   ar
    20    22    21    1
    21    23    24    1
    22    25    23    1
    23    26    23    1
    24    27    28    1
    25    29    27    1
    26    30    27    1
    27    31    32    1
    28    33    31    1
    29    34    31    1
    30    35    36    1
    31    37    35    1
    32    38    35    1
    33    39    40    1
    34    41    39    1
    35    42    39    1
    36    43    44    1
    37    45    43    1
    38    46    43    1
    39    47    48    1
    40    49    47    1
    41    50    47    1
    42    51    52    1
    43    53    51    1
    44    54    51    1
    45    55    56    1
    46    57    55    1
    47    58    55    1
    48    59     1    2
    49    60    23    1
    50    61    35    1
    51    62    47    1
    52    63    65    1
    53    64     4    1
    54    65    11    1
    55     9    11   ar
    56    12    59    1
    57    19    21   ar
    58    27    60    1
    59    31    60    1
    60    39    61    1
    61    43    61    1
    62    51    62    1
    63    55    62    1
    64    59    65    1
    65    60    65    1
    66    61    65    1
    67    62    65    1
    68    66    67    1
    69    68    66    1
    70    69    66    1
    71    70    69    1
    72    71    69    1
    73    72    69    1
    74    73    74    1
    75    75    73    1
    76    76    73    1
    77    77    76    1
    78    78    76    1
    79    79    76    1
    80    80    66    1
    81    73    80    1
@<TRIPOS>SUBSTRUCTURE
     1 RES1        1 GROUP             0 ****  ****    0  
     2 RES2       66 GROUP             0 ****  ****    0  
@<TRIPOS>CRYSIN
   13.7802   12.6280   18.6638   90.0000  110.6710   90.0000   231     1
