@<TRIPOS>MOLECULE
APINUJ
    81    88     1     0     0
SMALL
NO_CHARGES
****
Generated from the CSD

@<TRIPOS>ATOM
     1 Fe1      0.0000  16.5160   8.8285   Fe        1 RES1   0.0000
     2 N1       1.5103  15.7497   9.7034   N.2       1 RES1   0.0000
     3 N2      -0.5667  14.7065   8.8866   N.2       1 RES1   0.0000
     4 O1       2.5449  16.5008  10.1448   O.3       1 RES1   0.0000
     5 H1       2.4166  17.2956   9.9427   H         1 RES1   0.0000
     6 O2      -1.7439  14.2880   8.3247   O.3       1 RES1   0.0000
     7 C1       1.4175  14.4863  10.0654   C.2       1 RES1   0.0000
     8 C2       2.3410  13.8171  11.0079   C.ar      1 RES1   0.0000
     9 C3       3.7245  13.8635  10.8430   C.ar      1 RES1   0.0000
    10 H2       4.0966  14.3441  10.1263   H         1 RES1   0.0000
    11 C4       4.5523  13.2004  11.7380   C.ar      1 RES1   0.0000
    12 H3       5.4842  13.2244  11.6165   H         1 RES1   0.0000
    13 C5       4.0235  12.5089  12.7999   C.ar      1 RES1   0.0000
    14 H4       4.5923  12.0567  13.3964   H         1 RES1   0.0000
    15 C6       2.6553  12.4777  12.9927   C.ar      1 RES1   0.0000
    16 H5       2.2933  12.0187  13.7283   H         1 RES1   0.0000
    17 C7       1.8216  13.1261  12.0986   C.ar      1 RES1   0.0000
    18 H6       0.8908  13.0988  12.2292   H         1 RES1   0.0000
    19 C8       0.1867  13.8470   9.5332   C.2       1 RES1   0.0000
    20 C9      -0.1469  12.4154   9.7158   C.ar      1 RES1   0.0000
    21 C10     -1.4230  12.0393  10.1544   C.ar      1 RES1   0.0000
    22 H7      -2.0774  12.6975  10.3064   H         1 RES1   0.0000
    23 C11     -1.7268  10.7052  10.3661   C.ar      1 RES1   0.0000
    24 H8      -2.5822  10.4645  10.6737   H         1 RES1   0.0000
    25 C12     -0.7800   9.7235  10.1266   C.ar      1 RES1   0.0000
    26 H9      -0.9925   8.8179  10.2658   H         1 RES1   0.0000
    27 C13      0.4751  10.0794   9.6845   C.ar      1 RES1   0.0000
    28 H10      1.1169   9.4125   9.5189   H         1 RES1   0.0000
    29 C14      0.7996  11.4150   9.4813   C.ar      1 RES1   0.0000
    30 H11      1.6606  11.6471   9.1852   H         1 RES1   0.0000
    31 N3      -0.8144  16.7623  10.6685   N.ar      1 RES1   0.0000
    32 C15     -1.9278  16.0953  11.0296   C.ar      1 RES1   0.0000
    33 H12     -2.3824  15.5928  10.3788   H         1 RES1   0.0000
    34 C16     -2.4292  16.1196  12.3098   C.ar      1 RES1   0.0000
    35 H13     -3.2069  15.6357  12.5188   H         1 RES1   0.0000
    36 C17     -1.7942  16.8498  13.2798   C.ar      1 RES1   0.0000
    37 H14     -2.1151  16.8678  14.1627   H         1 RES1   0.0000
    38 C18     -0.6693  17.5555  12.9138   C.ar      1 RES1   0.0000
    39 H15     -0.2159  18.0784  13.5500   H         1 RES1   0.0000
    40 C19     -0.2113  17.4962  11.6210   C.ar      1 RES1   0.0000
    41 H16      0.5562  17.9892  11.3923   H         1 RES1   0.0000
    42 N1D     -1.5103  17.2823   7.9536   N.2       1 RES1   0.0000
    43 N2D      0.5667  18.3255   8.7704   N.2       1 RES1   0.0000
    44 O1D     -2.5449  16.5312   7.5122   O.3       1 RES1   0.0000
    45 H1D     -2.4166  15.7364   7.7143   H         1 RES1   0.0000
    46 O2D      1.7439  18.7440   9.3323   O.3       1 RES1   0.0000
    47 C1D     -1.4175  18.5457   7.5916   C.2       1 RES1   0.0000
    48 C2D     -2.3410  19.2149   6.6491   C.ar      1 RES1   0.0000
    49 C3D     -3.7245  19.1685   6.8140   C.ar      1 RES1   0.0000
    50 H2D     -4.0966  18.6879   7.5307   H         1 RES1   0.0000
    51 C4D     -4.5523  19.8316   5.9190   C.ar      1 RES1   0.0000
    52 H3D     -5.4842  19.8076   6.0405   H         1 RES1   0.0000
    53 C5D     -4.0235  20.5231   4.8571   C.ar      1 RES1   0.0000
    54 H4D     -4.5923  20.9753   4.2606   H         1 RES1   0.0000
    55 C6D     -2.6553  20.5543   4.6643   C.ar      1 RES1   0.0000
    56 H5D     -2.2933  21.0133   3.9287   H         1 RES1   0.0000
    57 C7D     -1.8216  19.9059   5.5584   C.ar      1 RES1   0.0000
    58 H6D     -0.8908  19.9332   5.4278   H         1 RES1   0.0000
    59 C8D     -0.1867  19.1850   8.1238   C.2       1 RES1   0.0000
    60 C9D      0.1469  20.6166   7.9412   C.ar      1 RES1   0.0000
    61 C10D     1.4230  20.9927   7.5026   C.ar      1 RES1   0.0000
    62 H7D      2.0774  20.3345   7.3506   H         1 RES1   0.0000
    63 C11D     1.7268  22.3268   7.2909   C.ar      1 RES1   0.0000
    64 H8D      2.5822  22.5675   6.9833   H         1 RES1   0.0000
    65 C12D     0.7800  23.3085   7.5304   C.ar      1 RES1   0.0000
    66 H9D      0.9925  24.2141   7.3912   H         1 RES1   0.0000
    67 C13D    -0.4751  22.9526   7.9725   C.ar      1 RES1   0.0000
    68 H10D    -1.1169  23.6195   8.1381   H         1 RES1   0.0000
    69 C14D    -0.7996  21.6170   8.1757   C.ar      1 RES1   0.0000
    70 H11D    -1.6606  21.3849   8.4718   H         1 RES1   0.0000
    71 N3D      0.8144  16.2697   6.9885   N.ar      1 RES1   0.0000
    72 C15D     1.9278  16.9367   6.6274   C.ar      1 RES1   0.0000
    73 H12D     2.3824  17.4392   7.2782   H         1 RES1   0.0000
    74 C16D     2.4292  16.9124   5.3472   C.ar      1 RES1   0.0000
    75 H13D     3.2069  17.3963   5.1382   H         1 RES1   0.0000
    76 C17D     1.7942  16.1822   4.3772   C.ar      1 RES1   0.0000
    77 H14D     2.1151  16.1642   3.4943   H         1 RES1   0.0000
    78 C18D     0.6693  15.4765   4.7432   C.ar      1 RES1   0.0000
    79 H15D     0.2159  14.9536   4.1070   H         1 RES1   0.0000
    80 C19D     0.2113  15.5358   6.0360   C.ar      1 RES1   0.0000
    81 H16D    -0.5562  15.0428   6.2647   H         1 RES1   0.0000
@<TRIPOS>BOND
     1     1     2    1
     2     2     4    1
     3     3     1    1
     4     4     5    1
     5     6     3    1
     6     7     2    2
     7     8     7    1
     8     9     8   ar
     9    10     9    1
    10    11     9   ar
    11    12    11    1
    12    13    11   ar
    13    14    13    1
    14    15    13   ar
    15    16    15    1
    16    17     8   ar
    17    18    17    1
    18    19     3    2
    19    20    19    1
    20    21    20   ar
    21    22    21    1
    22    23    21   ar
    23    24    23    1
    24    25    23   ar
    25    26    25    1
    26    27    25   ar
    27    28    27    1
    28    29    20   ar
    29    30    29    1
    30    31     1    1
    31    32    31   ar
    32    33    32    1
    33    34    32   ar
    34    35    34    1
    35    36    34   ar
    36    37    36    1
    37    38    36   ar
    38    39    38    1
    39    40    31   ar
    40    41    40    1
    41    42     1    1
    42    43     1    1
    43    44    42    1
    44    45    44    1
    45    46    43    1
    46    47    42    2
    47    48    47    1
    48    49    48   ar
    49    50    49    1
    50    51    49   ar
    51    52    51    1
    52    53    51   ar
    53    54    53    1
    54    55    53   ar
    55    56    55    1
    56    57    48   ar
    57    58    57    1
    58    59    43    2
    59    60    59    1
    60    61    60   ar
    61    62    61    1
    62    63    61   ar
    63    64    63    1
    64    65    63   ar
    65    66    65    1
    66    67    65   ar
    67    68    67    1
    68    69    60   ar
    69    70    69    1
    70    71     1    1
    71    72    71   ar
    72    73    72    1
    73    74    72   ar
    74    75    74    1
    75    76    74   ar
    76    77    76    1
    77    78    76   ar
    78    79    78    1
    79    80    71   ar
    80    81    80    1
    81     7    19    1
    82    15    17   ar
    83    27    29   ar
    84    38    40   ar
    85    47    59    1
    86    55    57   ar
    87    67    69   ar
    88    78    80   ar
@<TRIPOS>SUBSTRUCTURE
     1 RES1        1 GROUP             0 ****  ****    0  
@<TRIPOS>CRYSIN
   11.4207   16.5160   17.6570   90.0000   90.0000   90.0000    61     1
