@<TRIPOS>MOLECULE
APIPIZ
    93    99     2     0     0
SMALL
NO_CHARGES
****
Generated from the CSD

@<TRIPOS>ATOM
     1 Fe1      3.4650   2.5008   0.0000   Fe        1 RES1   0.0000
     2 O1       0.9036   3.0699   1.1701   O.3       1 RES1   0.0000
     3 H1       0.7212   2.7108   0.4552   H         1 RES1   0.0000
     4 O2       6.0656   3.0599   1.0784   O.3       1 RES1   0.0000
     5 N1       2.2611   3.1409   1.3100   N.2       1 RES1   0.0000
     6 N2       4.7088   3.1439   1.2714   N.2       1 RES1   0.0000
     7 C1       2.7641   3.7461   2.3667   C.2       1 RES1   0.0000
     8 C2       1.9283   4.4353   3.3794   C.ar      1 RES1   0.0000
     9 C3       1.8591   4.0232   4.7032   C.ar      1 RES1   0.0000
    10 H2       2.3492   3.2870   4.9896   H         1 RES1   0.0000
    11 C4       1.0594   4.7114   5.5987   C.ar      1 RES1   0.0000
    12 H3       1.0127   4.4293   6.4820   H         1 RES1   0.0000
    13 C5       0.3363   5.8057   5.1977   C.ar      1 RES1   0.0000
    14 H4      -0.1763   6.2779   5.8127   H         1 RES1   0.0000
    15 C6       0.3724   6.2049   3.8711   C.ar      1 RES1   0.0000
    16 H5      -0.1331   6.9331   3.5877   H         1 RES1   0.0000
    17 C7       1.1685   5.5147   2.9576   C.ar      1 RES1   0.0000
    18 H6       1.1892   5.7777   2.0652   H         1 RES1   0.0000
    19 C8       4.2397   3.7331   2.3405   C.2       1 RES1   0.0000
    20 C9       5.1252   4.4073   3.3185   C.ar      1 RES1   0.0000
    21 C10      5.2070   3.9962   4.6429   C.ar      1 RES1   0.0000
    22 H7       4.6610   3.3110   4.9535   H         1 RES1   0.0000
    23 C11      6.1133   4.6134   5.5052   C.ar      1 RES1   0.0000
    24 H8       6.1719   4.3303   6.3886   H         1 RES1   0.0000
    25 C12      6.9203   5.6307   5.0650   C.ar      1 RES1   0.0000
    26 H9       7.5205   6.0348   5.6499   H         1 RES1   0.0000
    27 C13      6.8401   6.0598   3.7355   C.ar      1 RES1   0.0000
    28 H10      7.3845   6.7480   3.4309   H         1 RES1   0.0000
    29 C14      5.9446   5.4516   2.8822   C.ar      1 RES1   0.0000
    30 H11      5.8844   5.7427   2.0019   H         1 RES1   0.0000
    31 N3       3.4382   4.3133  -0.8430   N.ar      1 RES1   0.0000
    32 C15      2.2912   4.9735  -1.0944   C.ar      1 RES1   0.0000
    33 H12      1.4852   4.5424  -0.9195   H         1 RES1   0.0000
    34 C16      2.2496   6.2519  -1.6009   C.ar      1 RES1   0.0000
    35 H13      1.4334   6.6670  -1.7607   H         1 RES1   0.0000
    36 C17      3.4219   6.9081  -1.8662   C.ar      1 RES1   0.0000
    37 H14      3.4142   7.7773  -2.1948   H         1 RES1   0.0000
    38 C18      4.6180   6.2549  -1.6311   C.ar      1 RES1   0.0000
    39 H15      5.4298   6.6690  -1.8150   H         1 RES1   0.0000
    40 C19      4.5775   4.9715  -1.1185   C.ar      1 RES1   0.0000
    41 H16      5.3853   4.5384  -0.9557   H         1 RES1   0.0000
    42 O1F      6.0264   1.9316  -1.1701   O.3       1 RES1   0.0000
    43 H1F      6.2088   2.2907  -0.4552   H         1 RES1   0.0000
    44 O2F      0.8644   1.9416  -1.0784   O.3       1 RES1   0.0000
    45 N1F      4.6689   1.8606  -1.3100   N.2       1 RES1   0.0000
    46 N2F      2.2212   1.8576  -1.2714   N.2       1 RES1   0.0000
    47 C1F      4.1659   1.2554  -2.3667   C.2       1 RES1   0.0000
    48 C2F      5.0017   0.5662  -3.3794   C.ar      1 RES1   0.0000
    49 C3F      5.0709   0.9783  -4.7032   C.ar      1 RES1   0.0000
    50 H2F      4.5808   1.7145  -4.9896   H         1 RES1   0.0000
    51 C4F      5.8706   0.2901  -5.5987   C.ar      1 RES1   0.0000
    52 H3F      5.9173   0.5722  -6.4820   H         1 RES1   0.0000
    53 C5F      6.5937  -0.8042  -5.1977   C.ar      1 RES1   0.0000
    54 H4F      7.1063  -1.2764  -5.8127   H         1 RES1   0.0000
    55 C6F      6.5576  -1.2034  -3.8711   C.ar      1 RES1   0.0000
    56 H5F      7.0631  -1.9316  -3.5877   H         1 RES1   0.0000
    57 C7F      5.7615  -0.5132  -2.9576   C.ar      1 RES1   0.0000
    58 H6F      5.7408  -0.7762  -2.0652   H         1 RES1   0.0000
    59 C8F      2.6903   1.2684  -2.3405   C.2       1 RES1   0.0000
    60 C9F      1.8048   0.5942  -3.3185   C.ar      1 RES1   0.0000
    61 C10F     1.7230   1.0053  -4.6429   C.ar      1 RES1   0.0000
    62 H7F      2.2690   1.6905  -4.9535   H         1 RES1   0.0000
    63 C11F     0.8167   0.3881  -5.5052   C.ar      1 RES1   0.0000
    64 H8F      0.7581   0.6712  -6.3886   H         1 RES1   0.0000
    65 C12F     0.0097  -0.6292  -5.0650   C.ar      1 RES1   0.0000
    66 H9F     -0.5905  -1.0333  -5.6499   H         1 RES1   0.0000
    67 C13F     0.0899  -1.0583  -3.7355   C.ar      1 RES1   0.0000
    68 H10F    -0.4545  -1.7465  -3.4309   H         1 RES1   0.0000
    69 C14F     0.9854  -0.4501  -2.8822   C.ar      1 RES1   0.0000
    70 H11F     1.0456  -0.7412  -2.0019   H         1 RES1   0.0000
    71 N3F      3.4918   0.6882   0.8430   N.ar      1 RES1   0.0000
    72 C15F     4.6388   0.0280   1.0944   C.ar      1 RES1   0.0000
    73 H12F     5.4448   0.4591   0.9195   H         1 RES1   0.0000
    74 C16F     4.6804  -1.2504   1.6009   C.ar      1 RES1   0.0000
    75 H13F     5.4966  -1.6655   1.7607   H         1 RES1   0.0000
    76 C17F     3.5081  -1.9066   1.8662   C.ar      1 RES1   0.0000
    77 H14F     3.5158  -2.7758   2.1948   H         1 RES1   0.0000
    78 C18F     2.3120  -1.2534   1.6311   C.ar      1 RES1   0.0000
    79 H15F     1.5002  -1.6675   1.8150   H         1 RES1   0.0000
    80 C19F     2.3525   0.0300   1.1185   C.ar      1 RES1   0.0000
    81 H16F     1.5447   0.4631   0.9557   H         1 RES1   0.0000
    82 O3       2.9853   6.1839   9.2798   O.2       2 RES2   0.0000
    83 N4       2.8589   3.9382   9.1291   N.am      2 RES2   0.0000
    84 C20      2.2937   2.6898   9.6296   C.3       2 RES2   0.0000
    85 H17      1.6927   2.8789  10.3531   H         2 RES2   0.0000
    86 H18      3.0020   2.1206   9.9401   H         2 RES2   0.0000
    87 H19      1.8158   2.2497   8.9211   H         2 RES2   0.0000
    88 C21      3.7648   3.8211   8.0558   C.3       2 RES2   0.0000
    89 H20      4.0745   4.6934   7.8025   H         2 RES2   0.0000
    90 H21      3.3242   3.4080   7.3111   H         2 RES2   0.0000
    91 H22      4.5119   3.2820   8.3271   H         2 RES2   0.0000
    92 C22      2.5588   5.0855   9.6959   C.2       2 RES2   0.0000
    93 H23      2.0029   5.0795  10.4406   H         2 RES2   0.0000
@<TRIPOS>BOND
     1     1     5    1
     2     2     3    1
     3     4     6    1
     4     5     2    1
     5     6     1    1
     6     7     5    2
     7     8     7    1
     8     9     8   ar
     9    10     9    1
    10    11     9   ar
    11    12    11    1
    12    13    11   ar
    13    14    13    1
    14    15    13   ar
    15    16    15    1
    16    17     8   ar
    17    18    17    1
    18    19     6    2
    19    20    19    1
    20    21    20   ar
    21    22    21    1
    22    23    21   ar
    23    24    23    1
    24    25    23   ar
    25    26    25    1
    26    27    25   ar
    27    28    27    1
    28    29    20   ar
    29    30    29    1
    30    31     1    1
    31    32    31   ar
    32    33    32    1
    33    34    32   ar
    34    35    34    1
    35    36    34   ar
    36    37    36    1
    37    38    36   ar
    38    39    38    1
    39    40    31   ar
    40    41    40    1
    41    42    43    1
    42    44    46    1
    43    45     1    1
    44    46     1    1
    45    47    45    2
    46    48    47    1
    47    49    48   ar
    48    50    49    1
    49    51    49   ar
    50    52    51    1
    51    53    51   ar
    52    54    53    1
    53    55    53   ar
    54    56    55    1
    55    57    48   ar
    56    58    57    1
    57    59    46    2
    58    60    59    1
    59    61    60   ar
    60    62    61    1
    61    63    61   ar
    62    64    63    1
    63    65    63   ar
    64    66    65    1
    65    67    65   ar
    66    68    67    1
    67    69    60   ar
    68    70    69    1
    69    71     1    1
    70    72    71   ar
    71    73    72    1
    72    74    72   ar
    73    75    74    1
    74    76    74   ar
    75    77    76    1
    76    78    76   ar
    77    79    78    1
    78    80    71   ar
    79    81    80    1
    80     7    19    1
    81    15    17   ar
    82    27    29   ar
    83    38    40   ar
    84    42    45    1
    85    47    59    1
    86    55    57   ar
    87    67    69   ar
    88    78    80   ar
    89    82    92    2
    90    83    84    1
    91    84    85    1
    92    86    84    1
    93    87    84    1
    94    88    83    1
    95    89    88    1
    96    90    88    1
    97    91    88    1
    98    92    83   am
    99    93    92    1
@<TRIPOS>SUBSTRUCTURE
     1 RES1        1 GROUP             0 ****  ****    0  
     2 RES2       82 GROUP             0 ****  ****    0  
@<TRIPOS>CRYSIN
   13.8600   10.0030   30.1680   90.0000   92.0370   90.0000    15     1
