@<TRIPOS>MOLECULE
AQIYEE
    87    90     3     0     0
SMALL
USER_CHARGES
****
Generated from the CSD

@<TRIPOS>ATOM
     1 Fe1      3.3230  10.5807  13.0924   Fe        1 RES1   0.0000
     2 N1       1.4562  11.2112  13.2078   N.1       1 RES1   0.0000
     3 N2       3.7853  11.5012  16.0172   N.1       1 RES1   0.0000
     4 N3       4.1484  13.4216  12.2170   N.1       1 RES1   0.0000
     5 N4       2.4708   7.8553  14.2399   N.1       1 RES1   0.0000
     6 O1       6.1347   9.8336  13.0289   O.2       1 RES1   0.0000
     7 O2       2.9322   9.6695  10.3055   O.2       1 RES1   0.0000
     8 C1      -0.9377  12.2022  13.3456   C.3       1 RES1   0.0000
     9 H1      -1.4310  11.7595  14.0399   H         1 RES1   0.0000
    10 H2      -1.3868  12.0799  12.5064   H         1 RES1   0.0000
    11 H3      -0.8798  13.1401  13.5430   H         1 RES1   0.0000
    12 C2       0.3999  11.6403  13.2666   C.1       1 RES1   0.0000
    13 C3       3.6070  11.1627  14.9317   C.1       1 RES1  -1.0000
    14 C4       3.8300  12.3642  12.5098   C.1       1 RES1   0.0000
    15 C5       5.0335  10.1053  13.0501   C.1       1 RES1   0.0000
    16 C6       3.0709  10.0270  11.3749   C.1       1 RES1   0.0000
    17 C7       2.7989   8.8674  13.8020   C.1       1 RES1   0.0000
    18 C8       5.6028  15.5821  18.7231   C.ar      2 RES2   0.0000
    19 C9       5.1477  15.2456  17.4549   C.ar      2 RES2   0.0000
    20 H4       5.5648  14.5682  16.9725   H         2 RES2   0.0000
    21 C10      4.0669  15.9239  16.9140   C.ar      2 RES2   0.0000
    22 H5       3.7699  15.7111  16.0581   H         2 RES2   0.0000
    23 C11      3.4338  16.9044  17.6272   C.ar      2 RES2   0.0000
    24 H6       2.7036  17.3479  17.2617   H         2 RES2   0.0000
    25 C12      3.8824  17.2352  18.8950   C.ar      2 RES2   0.0000
    26 H7       3.4464  17.8976  19.3797   H         2 RES2   0.0000
    27 C13      4.9716  16.5900  19.4436   C.ar      2 RES2   0.0000
    28 H8       5.2800  16.8271  20.2880   H         2 RES2   0.0000
    29 C14      8.2225  15.9985  19.8642   C.ar      2 RES2   0.0000
    30 C15      8.2653  17.1654  19.1107   C.ar      2 RES2   0.0000
    31 H9       7.6403  17.3107  18.4368   H         2 RES2   0.0000
    32 C16      9.2464  18.1155  19.3689   C.ar      2 RES2   0.0000
    33 H10      9.2768  18.9000  18.8705   H         2 RES2   0.0000
    34 C17     10.1764  17.8972  20.3652   C.ar      2 RES2   0.0000
    35 H11     10.8251  18.5404  20.5405   H         2 RES2   0.0000
    36 C18     10.1499  16.7378  21.0965   C.ar      2 RES2   0.0000
    37 H12     10.7900  16.5894  21.7543   H         2 RES2   0.0000
    38 C19      9.1714  15.7844  20.8598   C.ar      2 RES2   0.0000
    39 H13      9.1495  15.0042  21.3653   H         2 RES2   0.0000
    40 C20      6.5385  13.8550  20.9103   C.ar      2 RES2   0.0000
    41 C21      6.2819  14.5380  22.1007   C.ar      2 RES2   0.0000
    42 H14      6.3515  15.4651  22.1351   H         2 RES2   0.0000
    43 C22      5.9210  13.8169  23.2403   C.ar      2 RES2   0.0000
    44 H15      5.7552  14.2664  24.0372   H         2 RES2   0.0000
    45 C23      5.8091  12.4475  23.1904   C.ar      2 RES2   0.0000
    46 H16      5.5794  11.9765  23.9578   H         2 RES2   0.0000
    47 C24      6.0335  11.7630  22.0101   C.ar      2 RES2   0.0000
    48 H17      5.9451  10.8378  21.9824   H         2 RES2   0.0000
    49 C25      6.3927  12.4674  20.8629   C.ar      2 RES2   0.0000
    50 H18      6.5367  12.0117  20.0640   H         2 RES2   0.0000
    51 C26     10.1741  12.9638  18.9866   C.ar      2 RES2   0.0000
    52 C27     11.2916  13.7725  19.0599   C.ar      2 RES2   0.0000
    53 H19     11.4659  14.3863  18.3838   H         2 RES2   0.0000
    54 C28     12.1502  13.6689  20.1373   C.ar      2 RES2   0.0000
    55 H20     12.8990  14.2189  20.1841   H         2 RES2   0.0000
    56 C29     11.9130  12.7631  21.1409   C.ar      2 RES2   0.0000
    57 H21     12.5027  12.6957  21.8581   H         2 RES2   0.0000
    58 C30     10.7953  11.9509  21.0839   C.ar      2 RES2   0.0000
    59 H22     10.6267  11.3400  21.7645   H         2 RES2   0.0000
    60 C31      9.9264  12.0536  20.0051   C.ar      2 RES2   0.0000
    61 H23      9.1738  11.5095  19.9642   H         2 RES2   0.0000
    62 C32      8.5447  11.5268  17.0605   C.ar      2 RES2   0.0000
    63 C33      9.5921  10.6745  16.6994   C.ar      2 RES2   0.0000
    64 H24     10.4730  10.9225  16.8646   H         2 RES2   0.0000
    65 C34      9.3138   9.4626  16.0964   C.ar      2 RES2   0.0000
    66 H25     10.0103   8.9013  15.8422   H         2 RES2   0.0000
    67 C35      7.9994   9.0815  15.8677   C.ar      2 RES2   0.0000
    68 H26      7.8176   8.2647  15.4614   H         2 RES2   0.0000
    69 C36      6.9538   9.9140  16.2422   C.ar      2 RES2   0.0000
    70 H27      6.0737   9.6494  16.0988   H         2 RES2   0.0000
    71 C37      7.2199  11.1416  16.8301   C.ar      2 RES2   0.0000
    72 H28      6.5208  11.7058  17.0702   H         2 RES2   0.0000
    73 C38      9.5067  14.1867  16.3974   C.ar      2 RES2   0.0000
    74 C39      8.7336  15.2719  15.9691   C.ar      2 RES2   0.0000
    75 H29      7.9404  15.4816  16.4063   H         2 RES2   0.0000
    76 C40      9.1602  16.0366  14.8818   C.ar      2 RES2   0.0000
    77 H30      8.6539  16.7630  14.5959   H         2 RES2   0.0000
    78 C41     10.3325  15.7148  14.2309   C.ar      2 RES2   0.0000
    79 H31     10.6137  16.2277  13.5083   H         2 RES2   0.0000
    80 C42     11.0972  14.6304  14.6445   C.ar      2 RES2   0.0000
    81 H32     11.8830  14.4152  14.1947   H         2 RES2   0.0000
    82 C43     10.6848  13.8696  15.7310   C.ar      2 RES2   0.0000
    83 H33     11.1978  13.1463  16.0133   H         2 RES2   0.0000
    84 N5       7.5250  13.6971  18.3237   N.1       2 RES2   1.0000
    85 P1       7.0222  14.7285  19.4121   P.3       2 RES2   0.0000
    86 P2       8.8866  13.1568  17.7419   P.3       2 RES2   0.0000
    87 O3       5.8232  13.6278  14.5979   O.3       3 RES3   0.0000
@<TRIPOS>BOND
     1     1     2    1
     2     2    12    3
     3     3    13    3
     4     4    14    3
     5     5    17    3
     6     6    15    3
     7     7    16    3
     8     8     9    1
     9    10     8    1
    10    11     8    1
    11    12     8    1
    12    13     1    1
    13    14     1    1
    14    15     1    1
    15    16     1    1
    16    17     1    1
    17    18    19   ar
    18    19    20    1
    19    21    19   ar
    20    22    21    1
    21    23    21   ar
    22    24    23    1
    23    25    23   ar
    24    26    25    1
    25    27    18   ar
    26    28    27    1
    27    29    30   ar
    28    30    31    1
    29    32    30   ar
    30    33    32    1
    31    34    32   ar
    32    35    34    1
    33    36    34   ar
    34    37    36    1
    35    38    29   ar
    36    39    38    1
    37    40    41   ar
    38    41    42    1
    39    43    41   ar
    40    44    43    1
    41    45    43   ar
    42    46    45    1
    43    47    45   ar
    44    48    47    1
    45    49    40   ar
    46    50    49    1
    47    51    52   ar
    48    52    53    1
    49    54    52   ar
    50    55    54    1
    51    56    54   ar
    52    57    56    1
    53    58    56   ar
    54    59    58    1
    55    60    51   ar
    56    61    60    1
    57    62    63   ar
    58    63    64    1
    59    65    63   ar
    60    66    65    1
    61    67    65   ar
    62    68    67    1
    63    69    67   ar
    64    70    69    1
    65    71    62   ar
    66    72    71    1
    67    73    74   ar
    68    74    75    1
    69    76    74   ar
    70    77    76    1
    71    78    76   ar
    72    79    78    1
    73    80    78   ar
    74    81    80    1
    75    82    73   ar
    76    83    82    1
    77    84    85    2
    78    85    18    1
    79    86    51    1
    80    25    27   ar
    81    29    85    1
    82    36    38   ar
    83    40    85    1
    84    47    49   ar
    85    58    60   ar
    86    62    86    1
    87    69    71   ar
    88    73    86    1
    89    80    82   ar
    90    84    86    2
@<TRIPOS>SUBSTRUCTURE
     1 RES1        1 GROUP             0 ****  ****    0  
     2 RES2       18 GROUP             0 ****  ****    0  
     3 RES3       87 GROUP             0 ****  ****    0  
@<TRIPOS>CRYSIN
    9.4354   20.6670   20.3660   90.0000   90.4530   90.0000    14     1
