@<TRIPOS>MOLECULE
AQIYII
    95   100     3     0     0
SMALL
USER_CHARGES
****
Generated from the CSD

@<TRIPOS>ATOM
     1 Fe1      4.8025  11.5923   3.9844   Fe        1 RES1   0.0000
     2 N1       3.2115  13.6079   2.3280   N.1       1 RES1   0.0000
     3 O1       6.0556  13.7947   5.4482   O.2       1 RES1   0.0000
     4 O2       2.7111  11.4225   6.0573   O.2       1 RES1   0.0000
     5 O3       6.8946  11.4552   1.8895   O.2       1 RES1   0.0000
     6 S1       3.8457   9.7383   2.9439   S.3       1 RES1   0.0000
     7 S2       5.7853   9.7238   4.9736   S.3       1 RES1  -1.0000
     8 S3       4.8639   7.0685   3.8829   S.2       1 RES1   0.0000
     9 C1       3.7880  12.8604   2.9481   C.1       1 RES1   0.0000
    10 C2       5.6193  12.9160   4.8959   C.1       1 RES1   0.0000
    11 C3       3.4625  11.4915   5.2848   C.1       1 RES1   0.0000
    12 C4       4.8290   8.7112   3.9256   C.2       1 RES1   0.0000
    13 C5       6.1014  11.5254   2.6925   C.1       1 RES1   0.0000
    14 N2       1.0805   4.6988   3.0994   N.1       2 RES2   1.0000
    15 P1       1.5749   3.2104   2.8704   P.3       2 RES2   0.0000
    16 P2      -0.2776   5.4336   3.4742   P.3       2 RES2   0.0000
    17 C6       0.3423   2.1121   2.1522   C.ar      2 RES2   0.0000
    18 C7      -1.5139   4.3424   4.1927   C.ar      2 RES2   0.0000
    19 C8       2.1860   2.4494   4.3802   C.ar      2 RES2   0.0000
    20 C9       0.0627   6.6815   4.7236   C.ar      2 RES2   0.0000
    21 C10      2.9999   3.2713   1.7708   C.ar      2 RES2   0.0000
    22 C11      3.6302   4.4911   1.5347   C.ar      2 RES2   0.0000
    23 H1       3.2631   5.2768   1.8710   H         2 RES2   0.0000
    24 C12     -1.0124   6.2207   2.0299   C.ar      2 RES2   0.0000
    25 C13      3.5644   2.0884   1.2667   C.ar      2 RES2   0.0000
    26 H2       3.1550   1.2680   1.4266   H         2 RES2   0.0000
    27 C14     -1.1929   3.6941   5.3826   C.ar      2 RES2   0.0000
    28 H3      -0.3951   3.8944   5.8167   H         2 RES2   0.0000
    29 C15      1.3585   7.1645   4.8859   C.ar      2 RES2   0.0000
    30 H4       2.0391   6.8581   4.3321   H         2 RES2   0.0000
    31 C16      0.1353   2.1263   0.7645   C.ar      2 RES2   0.0000
    32 H5       0.7144   2.5989   0.2123   H         2 RES2   0.0000
    33 C17      5.3581   3.3739   0.3057   C.ar      2 RES2   0.0000
    34 H6       6.1509   3.4066  -0.1797   H         2 RES2   0.0000
    35 C18     -1.9305   7.2637   2.1646   C.ar      2 RES2   0.0000
    36 H7      -2.1109   7.6190   3.0046   H         2 RES2   0.0000
    37 C19      2.4362   1.0732   4.4282   C.ar      2 RES2   0.0000
    38 H8       2.2185   0.5339   3.7023   H         2 RES2   0.0000
    39 C20     -0.5183   1.3694   2.9589   C.ar      2 RES2   0.0000
    40 H9      -0.3754   1.3306   3.8764   H         2 RES2   0.0000
    41 C21      2.5236   3.2506   5.4763   C.ar      2 RES2   0.0000
    42 H10      2.3631   4.1659   5.4516   H         2 RES2   0.0000
    43 C22     -0.9641   7.1537   5.5549   C.ar      2 RES2   0.0000
    44 H11     -1.8313   6.8335   5.4544   H         2 RES2   0.0000
    45 C23      0.6133   8.5688   6.6961   C.ar      2 RES2   0.0000
    46 H12      0.7976   9.1941   7.3593   H         2 RES2   0.0000
    47 C24      3.3397   1.3136   6.6443   C.ar      2 RES2   0.0000
    48 H13      3.7245   0.9335   7.4004   H         2 RES2   0.0000
    49 C25      1.6368   8.1015   5.8729   C.ar      2 RES2   0.0000
    50 H14      2.5046   8.4170   5.9837   H         2 RES2   0.0000
    51 C26     -2.7344   4.0600   3.5521   C.ar      2 RES2   0.0000
    52 H15     -2.9644   4.4966   2.7626   H         2 RES2   0.0000
    53 C27      4.7281   2.1513   0.5350   C.ar      2 RES2   0.0000
    54 H16      5.0975   1.3706   0.1896   H         2 RES2   0.0000
    55 C28     -2.0535   2.7536   5.9243   C.ar      2 RES2   0.0000
    56 H17     -1.8304   2.3156   6.7140   H         2 RES2   0.0000
    57 C29     -0.7321   5.7210   0.7550   C.ar      2 RES2   0.0000
    58 H18     -0.1073   5.0400   0.6510   H         2 RES2   0.0000
    59 C30     -1.3812   6.2356  -0.3493   C.ar      2 RES2   0.0000
    60 H19     -1.1919   5.9002  -1.1959   H         2 RES2   0.0000
    61 C31     -3.2501   2.4679   5.2802   C.ar      2 RES2   0.0000
    62 H20     -3.8250   1.8304   5.6384   H         2 RES2   0.0000
    63 C32     -0.6784   8.1005   6.5266   C.ar      2 RES2   0.0000
    64 H21     -1.3605   8.4238   7.0692   H         2 RES2   0.0000
    65 C33      4.8010   4.5351   0.8013   C.ar      2 RES2   0.0000
    66 H22      5.2154   5.3520   0.6411   H         2 RES2   0.0000
    67 C34      3.0983   2.6738   6.6030   C.ar      2 RES2   0.0000
    68 H23      3.3217   3.2054   7.3324   H         2 RES2   0.0000
    69 C35     -2.5711   7.7700   1.0481   C.ar      2 RES2   0.0000
    70 H24     -3.1819   8.4651   1.1435   H         2 RES2   0.0000
    71 C36     -3.5949   3.1205   4.1133   C.ar      2 RES2   0.0000
    72 H25     -4.4066   2.9315   3.6995   H         2 RES2   0.0000
    73 C37     -2.3146   7.2541  -0.2015   C.ar      2 RES2   0.0000
    74 H26     -2.7646   7.5859  -0.9454   H         2 RES2   0.0000
    75 C38      3.0084   0.5164   5.5625   C.ar      2 RES2   0.0000
    76 H27      3.1714  -0.3983   5.5959   H         2 RES2   0.0000
    77 C39     -0.9391   1.4302   0.2175   C.ar      2 RES2   0.0000
    78 H28     -1.0857   1.4489  -0.7006   H         2 RES2   0.0000
    79 C40     -1.7825   0.7151   1.0331   C.ar      2 RES2   0.0000
    80 H29     -2.4930   0.2450   0.6595   H         2 RES2   0.0000
    81 C41     -1.5871   0.6877   2.3960   C.ar      2 RES2   0.0000
    82 H30     -2.1727   0.2117   2.9395   H         2 RES2   0.0000
    83 O4      -1.0525  12.6212   4.4354   O.3       3 RES3   0.0000
    84 C42      0.2654  11.4745   2.8602   C.3       3 RES3   0.0000
    85 H31      1.2211  11.3578   2.7456   H         3 RES3   0.0000
    86 H32     -0.1716  11.3623   2.0012   H         3 RES3   0.0000
    87 C43     -0.2760  10.5062   3.8676   C.3       3 RES3   0.0000
    88 H33      0.4112   9.8864   4.1566   H         3 RES3   0.0000
    89 H34     -1.0212  10.0058   3.5028   H         3 RES3   0.0000
    90 C44     -0.7308  11.4009   5.0256   C.3       3 RES3   0.0000
    91 H35     -1.5031  11.0198   5.4714   H         3 RES3   0.0000
    92 H36     -0.0180  11.5114   5.6752   H         3 RES3   0.0000
    93 C45     -0.0428  12.8102   3.4461   C.3       3 RES3   0.0000
    94 H37      0.7539  13.1921   3.8481   H         3 RES3   0.0000
    95 H38     -0.3577  13.4150   2.7555   H         3 RES3   0.0000
@<TRIPOS>BOND
     1     1     6    1
     2     2     9    3
     3     3    10    3
     4     4    11    3
     5     5    13    3
     6     6    12    1
     7     7     1    1
     8     8    12    2
     9     9     1    1
    10    10     1    1
    11    11     1    1
    12    12     7    1
    13    13     1    1
    14    14    15    2
    15    15    17    1
    16    16    14    2
    17    17    31   ar
    18    18    16    1
    19    19    15    1
    20    20    16    1
    21    21    15    1
    22    22    21   ar
    23    23    22    1
    24    24    16    1
    25    25    21   ar
    26    26    25    1
    27    27    18   ar
    28    28    27    1
    29    29    20   ar
    30    30    29    1
    31    31    32    1
    32    33    34    1
    33    35    24   ar
    34    36    35    1
    35    37    19   ar
    36    38    37    1
    37    39    17   ar
    38    40    39    1
    39    41    19   ar
    40    42    41    1
    41    43    20   ar
    42    44    43    1
    43    45    46    1
    44    47    48    1
    45    49    29   ar
    46    50    49    1
    47    51    18   ar
    48    52    51    1
    49    53    25   ar
    50    54    53    1
    51    55    27   ar
    52    56    55    1
    53    57    24   ar
    54    58    57    1
    55    59    57   ar
    56    60    59    1
    57    61    55   ar
    58    62    61    1
    59    63    43   ar
    60    64    63    1
    61    65    22   ar
    62    66    65    1
    63    67    41   ar
    64    68    67    1
    65    69    35   ar
    66    70    69    1
    67    71    51   ar
    68    72    71    1
    69    73    59   ar
    70    74    73    1
    71    75    37   ar
    72    76    75    1
    73    77    31   ar
    74    78    77    1
    75    79    77   ar
    76    80    79    1
    77    81    39   ar
    78    82    81    1
    79    33    65   ar
    80    33    53   ar
    81    45    49   ar
    82    45    63   ar
    83    47    75   ar
    84    47    67   ar
    85    61    71   ar
    86    69    73   ar
    87    79    81   ar
    88    83    90    1
    89    84    85    1
    90    86    84    1
    91    87    84    1
    92    88    87    1
    93    89    87    1
    94    90    87    1
    95    91    90    1
    96    92    90    1
    97    93    83    1
    98    94    93    1
    99    95    93    1
   100    84    93    1
@<TRIPOS>SUBSTRUCTURE
     1 RES1        1 GROUP             0 ****  ****    0  
     2 RES2       14 GROUP             0 ****  ****    0  
     3 RES3       83 GROUP             0 ****  ****    0  
@<TRIPOS>CRYSIN
    9.8592   14.9863   15.7414  115.8420   92.1350   90.4900     2     1
