@<TRIPOS>MOLECULE
AQIZEF
   161   171     3     0     0
SMALL
USER_CHARGES
****
Generated from the CSD

@<TRIPOS>ATOM
     1 Fe1      5.6916   8.5886   1.9870   Fe        1 RES1   0.0000
     2 S1       3.7914   9.5961   0.9795   S.3       1 RES1  -1.0000
     3 N1       7.5518   9.7919  -0.1180   N.1       1 RES1   0.0000
     4 C1       4.0837  11.3272   0.7846   C.ar      1 RES1   0.0000
     5 C2       4.6884  11.8390  -0.3409   C.ar      1 RES1   0.0000
     6 H1       4.9762  11.2531  -1.0036   H         1 RES1   0.0000
     7 O1       5.8072  10.9000   3.7830   O.2       1 RES1   0.0000
     8 N2       3.9045   7.2227   4.0748   N.1       1 RES1   0.0000
     9 C3       4.4634  14.0463   0.4283   C.ar      1 RES1   0.0000
    10 H2       4.5987  14.9601   0.3132   H         1 RES1   0.0000
    11 C4       4.8781  13.1770  -0.5178   C.ar      1 RES1   0.0000
    12 H3       5.2933  13.4900  -1.2891   H         1 RES1   0.0000
    13 N3       5.0400   6.1962   0.1754   N.1       1 RES1   0.0000
    14 O2       7.9785   7.2790   3.2644   O.2       1 RES1   0.0000
    15 C5       3.6702  12.2321   1.7345   C.ar      1 RES1   0.0000
    16 H4       3.2666  11.9251   2.5122   H         1 RES1   0.0000
    17 C6       3.8452  13.5850   1.5512   C.ar      1 RES1   0.0000
    18 H5       3.5415  14.1843   2.1947   H         1 RES1   0.0000
    19 C7       6.8413   9.3588   0.6454   C.1       1 RES1   0.0000
    20 C8       4.5443   7.7537   3.2770   C.1       1 RES1   0.0000
    21 C9       5.3225   7.0951   0.8372   C.1       1 RES1  -1.0000
    22 C10      5.7939  10.0130   3.0567   C.1       1 RES1   0.0000
    23 C11      7.0888   7.7834   2.7573   C.1       1 RES1   0.0000
    24 P1      -0.3460   2.1537   3.3637   P.3       2 RES2   0.0000
    25 P2       0.9184   1.8311   6.0272   P.3       2 RES2   0.0000
    26 N4       0.8012   2.0486   4.4664   N.1       2 RES2   1.0000
    27 C12     -1.9994   2.5544   3.9686   C.ar      2 RES2   0.0000
    28 C13      0.1151   3.4459   2.2120   C.ar      2 RES2   0.0000
    29 C14     -0.4837   0.6037   2.4741   C.ar      2 RES2   0.0000
    30 C15      2.1353   0.5266   6.3547   C.ar      2 RES2   0.0000
    31 C16      1.4541   3.8005   2.0999   C.ar      2 RES2   0.0000
    32 H6       2.0898   3.3703   2.6252   H         2 RES2   0.0000
    33 C17      1.8510   4.7943   1.2103   C.ar      2 RES2   0.0000
    34 H7       2.7498   5.0183   1.1272   H         2 RES2   0.0000
    35 C18     -0.6278   1.3395   6.8050   C.ar      2 RES2   0.0000
    36 C19     -0.8301   4.1061   1.4242   C.ar      2 RES2   0.0000
    37 H8      -1.7280   3.8717   1.4852   H         2 RES2   0.0000
    38 C20     -2.9716   1.5858   4.1263   C.ar      2 RES2   0.0000
    39 H9      -2.7965   0.7105   3.8674   H         2 RES2   0.0000
    40 C21      1.5301   3.3243   6.8210   C.ar      2 RES2   0.0000
    41 C22     -0.4367   5.1059   0.5529   C.ar      2 RES2   0.0000
    42 H10     -1.0700   5.5509   0.0362   H         2 RES2   0.0000
    43 C23     -4.2027   1.9106   4.6663   C.ar      2 RES2   0.0000
    44 H11     -4.8443   1.2490   4.7794   H         2 RES2   0.0000
    45 C24     -1.4744   2.2770   7.3707   C.ar      2 RES2   0.0000
    46 H12     -1.1897   3.1582   7.4600   H         2 RES2   0.0000
    47 C25     -2.7339   1.9210   7.8050   C.ar      2 RES2   0.0000
    48 H13     -3.3020   2.5618   8.1695   H         2 RES2   0.0000
    49 C26     -0.7562  -1.8379   1.1809   C.ar      2 RES2   0.0000
    50 H14     -0.8669  -2.6612   0.7607   H         2 RES2   0.0000
    51 C27      1.9630   4.3790   6.0513   C.ar      2 RES2   0.0000
    52 H15      1.8912   4.3404   5.1246   H         2 RES2   0.0000
    53 C28      1.6448   3.4178   8.2017   C.ar      2 RES2   0.0000
    54 H16      1.3699   2.7087   8.7363   H         2 RES2   0.0000
    55 C29     -1.3412   0.4777   1.3835   C.ar      2 RES2   0.0000
    56 H17     -1.8325   1.2105   1.0910   H         2 RES2   0.0000
    57 C30     -2.2840   3.8509   4.3667   C.ar      2 RES2   0.0000
    58 H18     -1.6341   4.5110   4.2893   H         2 RES2   0.0000
    59 C31     -1.0500   0.0297   6.6933   C.ar      2 RES2   0.0000
    60 H19     -0.4915  -0.6141   6.3221   H         2 RES2   0.0000
    61 C32     -3.5273   4.1639   4.8791   C.ar      2 RES2   0.0000
    62 H20     -3.7175   5.0421   5.1203   H         2 RES2   0.0000
    63 C33     -2.3128  -0.3160   7.1397   C.ar      2 RES2   0.0000
    64 H21     -2.6038  -1.1956   7.0615   H         2 RES2   0.0000
    65 C34      2.1997  -0.0949   7.5940   C.ar      2 RES2   0.0000
    66 H22      1.5865   0.1231   8.2590   H         2 RES2   0.0000
    67 C35      3.0510   0.1884   5.3812   C.ar      2 RES2   0.0000
    68 H23      3.0214   0.6037   4.5493   H         2 RES2   0.0000
    69 C36     -1.4635  -0.7254   0.7424   C.ar      2 RES2   0.0000
    70 H24     -2.0267  -0.7996   0.0064   H         2 RES2   0.0000
    71 C37      0.2359  -0.5014   2.8806   C.ar      2 RES2   0.0000
    72 H25      0.8185  -0.4272   3.6011   H         2 RES2   0.0000
    73 C38      4.0178  -0.7743   5.6488   C.ar      2 RES2   0.0000
    74 H26      4.6360  -1.0057   4.9925   H         2 RES2   0.0000
    75 C39     -3.1421   0.6260   7.6980   C.ar      2 RES2   0.0000
    76 H27     -3.9840   0.3783   8.0033   H         2 RES2   0.0000
    77 C40     -4.4838   3.1952   5.0338   C.ar      2 RES2   0.0000
    78 H28     -5.3162   3.4118   5.3867   H         2 RES2   0.0000
    79 C41      0.9009   5.4411   0.4524   C.ar      2 RES2   0.0000
    80 H29      1.1614   6.1146  -0.1342   H         2 RES2   0.0000
    81 C42      3.1843  -1.0458   7.8371   C.ar      2 RES2   0.0000
    82 H30      3.2396  -1.4552   8.6703   H         2 RES2   0.0000
    83 C43      4.0635  -1.3796   6.8634   C.ar      2 RES2   0.0000
    84 H31      4.7072  -2.0308   7.0274   H         2 RES2   0.0000
    85 C44      2.5139   5.5153   6.6673   C.ar      2 RES2   0.0000
    86 H32      2.8301   6.2184   6.1453   H         2 RES2   0.0000
    87 C45      2.5852   5.5909   8.0097   C.ar      2 RES2   0.0000
    88 H33      2.9254   6.3564   8.4125   H         2 RES2   0.0000
    89 C46      2.1598   4.5511   8.7853   C.ar      2 RES2   0.0000
    90 H34      2.2206   4.6089   9.7101   H         2 RES2   0.0000
    91 C47      0.1063  -1.7089   2.2395   C.ar      2 RES2   0.0000
    92 H35      0.6045  -2.4417   2.5250   H         2 RES2   0.0000
    93 P3       7.5358   5.6035   8.2840   P.3       3 RES3   0.0000
    94 P4       7.6930   3.4591   6.2657   P.3       3 RES3   0.0000
    95 C48      6.5552   3.1300   4.9090   C.ar      3 RES3   0.0000
    96 C49      9.3341   3.6551   5.5275   C.ar      3 RES3   0.0000
    97 C50      9.2982   5.9544   8.4674   C.ar      3 RES3   0.0000
    98 C51      6.6632   7.1693   8.1600   C.ar      3 RES3   0.0000
    99 C52      6.9836   4.7484   9.7579   C.ar      3 RES3   0.0000
   100 C53     10.1560   2.6063   5.1704   C.ar      3 RES3   0.0000
   101 H36      9.8698   1.7296   5.2908   H         3 RES3   0.0000
   102 C54      5.3792   8.7595   6.8778   C.ar      3 RES3   0.0000
   103 H37      4.9565   8.9924   6.0835   H         3 RES3   0.0000
   104 C55      7.7048   2.0159   7.3443   C.ar      3 RES3   0.0000
   105 C56      6.0246   7.5283   6.9780   C.ar      3 RES3   0.0000
   106 H38      6.0273   6.9468   6.2539   H         3 RES3   0.0000
   107 C57      5.8289   4.1743   4.3792   C.ar      3 RES3   0.0000
   108 H39      5.8626   5.0139   4.7773   H         3 RES3   0.0000
   109 C58      9.7554   4.9575   5.2346   C.ar      3 RES3   0.0000
   110 H40      9.1996   5.6785   5.4229   H         3 RES3   0.0000
   111 C59      4.9859   2.7339   2.6750   C.ar      3 RES3   0.0000
   112 H41      4.4746   2.6034   1.9092   H         3 RES3   0.0000
   113 C60      5.9857   9.2831   9.0943   C.ar      3 RES3   0.0000
   114 H42      5.9813   9.8824   9.8039   H         3 RES3   0.0000
   115 C61      9.8213   7.2242   8.2831   C.ar      3 RES3   0.0000
   116 H43      9.2615   7.9510   8.1397   H         3 RES3   0.0000
   117 C62      8.8559   1.4745   7.8838   C.ar      3 RES3   0.0000
   118 H44      9.6871   1.8172   7.6496   H         3 RES3   0.0000
   119 C63      5.3586   9.6124   7.9117   C.ar      3 RES3   0.0000
   120 H45      4.9195  10.4283   7.8307   H         3 RES3   0.0000
   121 C64     10.1801   4.8997   8.6850   C.ar      3 RES3   0.0000
   122 H46      9.8406   4.0452   8.8258   H         3 RES3   0.0000
   123 C65      6.6235   8.0563   9.2273   C.ar      3 RES3   0.0000
   124 H47      7.0253   7.8279  10.0340   H         3 RES3   0.0000
   125 C66      6.4633   1.8795   4.3245   C.ar      3 RES3   0.0000
   126 H48      6.9387   1.1660   4.6835   H         3 RES3   0.0000
   127 C67     11.1975   7.3858   8.3185   C.ar      3 RES3   0.0000
   128 H49     11.5560   8.2373   8.2079   H         3 RES3   0.0000
   129 C68      5.0460   3.9725   3.2495   C.ar      3 RES3   0.0000
   130 H50      4.5636   4.6786   2.8830   H         3 RES3   0.0000
   131 C69     11.5416   5.0955   8.6971   C.ar      3 RES3   0.0000
   132 H51     12.1171   4.3775   8.8344   H         3 RES3   0.0000
   133 C70      5.6740   1.6837   3.2190   C.ar      3 RES3   0.0000
   134 H52      5.6060   0.8381   2.8404   H         3 RES3   0.0000
   135 C71      7.7623   4.5689  10.8812   C.ar      3 RES3   0.0000
   136 H53      8.6094   4.9486  10.9140   H         3 RES3   0.0000
   137 C72      6.0460   3.3006  11.9176   C.ar      3 RES3   0.0000
   138 H54      5.7338   2.8096  12.6421   H         3 RES3   0.0000
   139 C73     11.0074   5.1771   4.6622   C.ar      3 RES3   0.0000
   140 H55     11.2833   6.0434   4.4704   H         3 RES3   0.0000
   141 C74      8.7653   0.4050   8.7853   C.ar      3 RES3   0.0000
   142 H56      9.5380   0.0267   9.1369   H         3 RES3   0.0000
   143 C75      6.3981   0.4613   8.6618   C.ar      3 RES3   0.0000
   144 H57      5.5717   0.1365   8.9409   H         3 RES3   0.0000
   145 C76     12.0334   6.3356   8.5105   C.ar      3 RES3   0.0000
   146 H58     12.9535   6.4721   8.5105   H         3 RES3   0.0000
   147 C77      6.4698   1.5027   7.7455   C.ar      3 RES3   0.0000
   148 H59      5.6866   1.8617   7.3961   H         3 RES3   0.0000
   149 C78     11.8276   4.1194   4.3810   C.ar      3 RES3   0.0000
   150 H60     12.6708   4.2677   4.0166   H         3 RES3   0.0000
   151 C79     11.4104   2.8570   4.6324   C.ar      3 RES3   0.0000
   152 H61     11.9750   2.1435   4.4427   H         3 RES3   0.0000
   153 C80      5.2577   3.4830  10.8352   C.ar      3 RES3   0.0000
   154 H62      4.4057   3.1122  10.8181   H         3 RES3   0.0000
   155 C81      5.7082   4.2173   9.7527   C.ar      3 RES3   0.0000
   156 H63      5.1503   4.3523   9.0219   H         3 RES3   0.0000
   157 C82      7.5502  -0.0816   9.1497   C.ar      3 RES3   0.0000
   158 H64      7.5028  -0.7966   9.7421   H         3 RES3   0.0000
   159 C83      7.3086   3.8376  11.9517   C.ar      3 RES3   0.0000
   160 H65      7.8551   3.7055  12.6933   H         3 RES3   0.0000
   161 N5       7.2166   4.7914   6.9671   N.1       3 RES3   1.0000
@<TRIPOS>BOND
     1     1     2    1
     2     2     4    1
     3     3    19    3
     4     4     5   ar
     5     5     6    1
     6     7    22    3
     7     8    20    3
     8     9    10    1
     9    11     5   ar
    10    12    11    1
    11    13    21    3
    12    14    23    3
    13    15     4   ar
    14    16    15    1
    15    17     9   ar
    16    18    17    1
    17    19     1    1
    18    20     1    1
    19    21     1    1
    20    22     1    1
    21    23     1    1
    22     9    11   ar
    23    15    17   ar
    24    24    26    2
    25    25    26    2
    26    27    24    1
    27    28    24    1
    28    29    24    1
    29    30    25    1
    30    31    28   ar
    31    32    31    1
    32    33    31   ar
    33    34    33    1
    34    35    25    1
    35    36    28   ar
    36    37    36    1
    37    38    27   ar
    38    39    38    1
    39    40    25    1
    40    41    36   ar
    41    42    41    1
    42    43    38   ar
    43    44    43    1
    44    45    35   ar
    45    46    45    1
    46    47    45   ar
    47    48    47    1
    48    49    50    1
    49    51    40   ar
    50    52    51    1
    51    53    40   ar
    52    54    53    1
    53    55    29   ar
    54    56    55    1
    55    57    27   ar
    56    58    57    1
    57    59    35   ar
    58    60    59    1
    59    61    57   ar
    60    62    61    1
    61    63    59   ar
    62    64    63    1
    63    65    30   ar
    64    66    65    1
    65    67    30   ar
    66    68    67    1
    67    69    49   ar
    68    70    69    1
    69    71    29   ar
    70    72    71    1
    71    73    67   ar
    72    74    73    1
    73    75    47   ar
    74    76    75    1
    75    77    43   ar
    76    78    77    1
    77    79    33   ar
    78    80    79    1
    79    81    65   ar
    80    82    81    1
    81    83    73   ar
    82    84    83    1
    83    85    51   ar
    84    86    85    1
    85    87    85   ar
    86    88    87    1
    87    89    53   ar
    88    90    89    1
    89    91    49   ar
    90    92    91    1
    91    41    79   ar
    92    55    69   ar
    93    61    77   ar
    94    63    75   ar
    95    71    91   ar
    96    81    83   ar
    97    87    89   ar
    98    93    97    1
    99    94    95    1
   100    95   107   ar
   101    96    94    1
   102    97   115   ar
   103    98    93    1
   104    99    93    1
   105   100    96   ar
   106   101   100    1
   107   102   103    1
   108   104    94    1
   109   105    98   ar
   110   106   105    1
   111   107   108    1
   112   109    96   ar
   113   110   109    1
   114   111   112    1
   115   113   114    1
   116   115   116    1
   117   117   104   ar
   118   118   117    1
   119   119   102   ar
   120   120   119    1
   121   121    97   ar
   122   122   121    1
   123   123    98   ar
   124   124   123    1
   125   125    95   ar
   126   126   125    1
   127   127   115   ar
   128   128   127    1
   129   129   107   ar
   130   130   129    1
   131   131   121   ar
   132   132   131    1
   133   133   111   ar
   134   134   133    1
   135   135    99   ar
   136   136   135    1
   137   137   138    1
   138   139   109   ar
   139   140   139    1
   140   141   117   ar
   141   142   141    1
   142   143   144    1
   143   145   127   ar
   144   146   145    1
   145   147   104   ar
   146   148   147    1
   147   149   139   ar
   148   150   149    1
   149   151   100   ar
   150   152   151    1
   151   153   137   ar
   152   154   153    1
   153   155    99   ar
   154   156   155    1
   155   157   141   ar
   156   158   157    1
   157   159   135   ar
   158   160   159    1
   159   161    93    2
   160    94   161    2
   161   102   105   ar
   162   111   129   ar
   163   113   119   ar
   164   113   123   ar
   165   125   133   ar
   166   131   145   ar
   167   137   159   ar
   168   143   147   ar
   169   143   157   ar
   170   149   151   ar
   171   153   155   ar
@<TRIPOS>SUBSTRUCTURE
     1 RES1        1 GROUP             0 ****  ****    0  
     2 RES2       24 GROUP             0 ****  ****    0  
     3 RES3       93 GROUP             0 ****  ****    0  
@<TRIPOS>CRYSIN
   22.4030   14.8340   21.8350   90.0000  102.6120   90.0000    14     1
