@<TRIPOS>MOLECULE
AQOGET
    75    77     3     0     0
SMALL
NO_CHARGES
****
Generated from the CSD

@<TRIPOS>ATOM
     1 Fe1      1.3502   9.6548   6.5962   Fe        1 RES1   0.0000
     2 Cl1      2.7337  11.0829   7.7846   Cl        1 RES1   0.0000
     3 Cl2     -0.0789   8.4271   5.1441   Cl        1 RES1   0.0000
     4 Cl3      1.1081   8.1751   8.2763   Cl        1 RES1   0.0000
     5 N1       1.4484  10.9944   4.9571   N.ar      1 RES1   0.0000
     6 N2       3.0497   9.0203   5.3920   N.2       1 RES1   0.0000
     7 N3      -0.2096  11.1528   6.9085   N.2       1 RES1   0.0000
     8 C1       0.5209  11.9487   4.8388   C.ar      1 RES1   0.0000
     9 C2       0.4996  12.7710   3.7196   C.ar      1 RES1   0.0000
    10 H1      -0.1647  13.4424   3.6223   H         1 RES1   0.0000
    11 C3       1.4702  12.5874   2.7436   C.ar      1 RES1   0.0000
    12 H2       1.4738  13.1419   1.9724   H         1 RES1   0.0000
    13 C4       2.4303  11.6067   2.8869   C.ar      1 RES1   0.0000
    14 H3       3.1054  11.4835   2.2300   H         1 RES1   0.0000
    15 C5       2.3792  10.8007   4.0198   C.ar      1 RES1   0.0000
    16 C6       3.3039   9.6729   4.3065   C.2       1 RES1   0.0000
    17 C7       4.4101   9.3799   3.3527   C.3       1 RES1   0.0000
    18 H4       5.0616  10.1117   3.3732   H         1 RES1   0.0000
    19 H5       4.0464   9.2919   2.4467   H         1 RES1   0.0000
    20 H6       4.8507   8.5425   3.6104   H         1 RES1   0.0000
    21 C8       3.8246   7.8698   5.7875   C.ar      1 RES1   0.0000
    22 C9       3.2475   6.6414   5.5640   C.ar      1 RES1   0.0000
    23 H7       2.4089   6.5923   5.1187   H         1 RES1   0.0000
    24 C10      3.8690   5.4733   5.9803   C.ar      1 RES1   0.0000
    25 H8       3.4789   4.6246   5.8046   H         1 RES1   0.0000
    26 C11      5.0705   5.5726   6.6560   C.ar      1 RES1   0.0000
    27 H9       5.5052   4.7855   6.9665   H         1 RES1   0.0000
    28 C12      5.6422   6.8011   6.8812   C.ar      1 RES1   0.0000
    29 H10      6.4661   6.8438   7.3504   H         1 RES1   0.0000
    30 C13      5.0545   7.9880   6.4444   C.ar      1 RES1   0.0000
    31 C14     -0.3771  12.0619   6.0161   C.2       1 RES1   0.0000
    32 C15     -1.3256  13.2061   6.0912   C.3       1 RES1   0.0000
    33 H11     -1.9166  13.0891   6.8641   H         1 RES1   0.0000
    34 H12     -1.8636  13.2387   5.2722   H         1 RES1   0.0000
    35 H13     -0.8244  14.0409   6.1867   H         1 RES1   0.0000
    36 C16     -0.8279  11.3087   8.2018   C.ar      1 RES1   0.0000
    37 C17     -1.8925  10.5115   8.5311   C.ar      1 RES1   0.0000
    38 C18     -2.4054  10.6700   9.8619   C.ar      1 RES1   0.0000
    39 H14     -3.1324  10.1243  10.1400   H         1 RES1   0.0000
    40 C19     -1.9020  11.5476  10.7185   C.ar      1 RES1   0.0000
    41 H15     -2.2871  11.6344  11.5818   H         1 RES1   0.0000
    42 C20     -0.8075  12.3473  10.3670   C.ar      1 RES1   0.0000
    43 H16     -0.4187  12.9433  10.9966   H         1 RES1   0.0000
    44 C21     -0.3171  12.2555   9.1214   C.ar      1 RES1   0.0000
    45 H17      0.3841  12.8364   8.8519   H         1 RES1   0.0000
    46 C22     -2.4862   9.5119   7.5773   C.3       1 RES1   0.0000
    47 H18     -1.8944   9.4641   6.7720   H         1 RES1   0.0000
    48 C23     -2.6080   8.1389   8.1421   C.3       1 RES1   0.0000
    49 H19     -1.7234   7.8132   8.4065   H         1 RES1   0.0000
    50 H20     -2.9905   7.5404   7.4664   H         1 RES1   0.0000
    51 H21     -3.1944   8.1615   8.9269   H         1 RES1   0.0000
    52 C24     -3.9062  10.0400   7.1115   C.3       1 RES1   0.0000
    53 H22     -4.4953  10.1230   7.8913   H         1 RES1   0.0000
    54 H23     -4.2979   9.4076   6.4734   H         1 RES1   0.0000
    55 H24     -3.8064  10.9164   6.6850   H         1 RES1   0.0000
    56 C25      5.7329   9.3145   6.7037   C.3       1 RES1   0.0000
    57 H25      5.1453  10.0375   6.3437   H         1 RES1   0.0000
    58 C26      7.0938   9.4000   5.9803   C.3       1 RES1   0.0000
    59 H26      7.6874   8.6984   6.3181   H         1 RES1   0.0000
    60 H27      7.4954  10.2789   6.1475   H         1 RES1   0.0000
    61 H28      6.9584   9.2793   5.0180   H         1 RES1   0.0000
    62 C27      5.9220   9.5622   8.2137   C.3       1 RES1   0.0000
    63 H29      5.0615   9.4616   8.6727   H         1 RES1   0.0000
    64 H30      6.2627  10.4713   8.3553   H         1 RES1   0.0000
    65 H31      6.5637   8.9134   8.5737   H         1 RES1   0.0000
    66 Cl4      9.0983   8.1590  12.0130   Cl        2 RES2   0.0000
    67 Cl5      9.5570   8.1276   9.1465   Cl        2 RES2   0.0000
    68 C28      8.8222   7.3958  10.5171   C.3       2 RES2   0.0000
    69 H32      7.8448   7.3593  10.3619   H         2 RES2   0.0000
    70 H33      9.1476   6.4616  10.5803   H         2 RES2   0.0000
    71 Cl6      9.2807   8.0103   3.0719   Cl        3 RES3   0.0000
    72 Cl7      6.8817   6.4206   3.5158   Cl        3 RES3   0.0000
    73 C29      7.8108   7.3530   2.3529   C.3       3 RES3   0.0000
    74 H34      7.2543   8.0961   2.0099   H         3 RES3   0.0000
    75 H35      8.0523   6.7747   1.5868   H         3 RES3   0.0000
@<TRIPOS>BOND
     1     1     2    1
     2     3     1    1
     3     4     1    1
     4     5     1    1
     5     6     1    1
     6     7     1    1
     7     8     5   ar
     8     9     8   ar
     9    10     9    1
    10    11     9   ar
    11    12    11    1
    12    13    11   ar
    13    14    13    1
    14    15     5   ar
    15    16     6    2
    16    17    16    1
    17    18    17    1
    18    19    17    1
    19    20    17    1
    20    21     6    1
    21    22    21   ar
    22    23    22    1
    23    24    22   ar
    24    25    24    1
    25    26    24   ar
    26    27    26    1
    27    28    26   ar
    28    29    28    1
    29    30    21   ar
    30    31     7    2
    31    32    31    1
    32    33    32    1
    33    34    32    1
    34    35    32    1
    35    36     7    1
    36    37    36   ar
    37    38    37   ar
    38    39    38    1
    39    40    38   ar
    40    41    40    1
    41    42    40   ar
    42    43    42    1
    43    44    36   ar
    44    45    44    1
    45    46    37    1
    46    47    46    1
    47    48    46    1
    48    49    48    1
    49    50    48    1
    50    51    48    1
    51    52    46    1
    52    53    52    1
    53    54    52    1
    54    55    52    1
    55    56    30    1
    56    57    56    1
    57    58    56    1
    58    59    58    1
    59    60    58    1
    60    61    58    1
    61    62    56    1
    62    63    62    1
    63    64    62    1
    64    65    62    1
    65     8    31    1
    66    13    15   ar
    67    15    16    1
    68    28    30   ar
    69    42    44   ar
    70    66    68    1
    71    67    68    1
    72    68    69    1
    73    70    68    1
    74    71    73    1
    75    72    73    1
    76    73    74    1
    77    75    73    1
@<TRIPOS>SUBSTRUCTURE
     1 RES1        1 GROUP             0 ****  ****    0  
     2 RES2       66 GROUP             0 ****  ****    0  
     3 RES3       71 GROUP             0 ****  ****    0  
@<TRIPOS>CRYSIN
   15.9012   12.5736   18.4593   90.0000  112.4350   90.0000    14     1
