@<TRIPOS>MOLECULE
AQOJOI
    87    97     3     0     0
SMALL
USER_CHARGES
****
Generated from the CSD

@<TRIPOS>ATOM
     1 C1      -0.0510  10.4685   2.9826   C.ar      1 RES1   0.0000
     2 H1       0.3822   9.6242   2.9372   H         1 RES1   0.0000
     3 C2       0.7166  11.6272   2.7938   C.ar      1 RES1   0.0000
     4 H2       1.6463  11.5575   2.6113   H         1 RES1   0.0000
     5 C3       0.1262  12.8541   2.8725   C.ar      1 RES1   0.0000
     6 H3       0.6366  13.6428   2.7317   H         1 RES1   0.0000
     7 C4      -1.2465  12.9380   3.1645   C.ar      1 RES1   0.0000
     8 C5      -1.9374  11.7288   3.3215   C.ar      1 RES1   0.0000
     9 C6      -1.9746  14.1626   3.3157   C.ar      1 RES1   0.0000
    10 H4      -1.5218  14.9904   3.2063   H         1 RES1   0.0000
    11 C7      -3.7265   9.5882   0.7179   C.ar      1 RES1   0.0000
    12 H5      -4.1460  10.3666   1.0653   H         1 RES1   0.0000
    13 C8      -3.9438   9.2491  -0.6255   C.ar      1 RES1   0.0000
    14 H6      -4.4869   9.8033  -1.1738   H         1 RES1   0.0000
    15 C9      -3.3734   8.1199  -1.1454   C.ar      1 RES1   0.0000
    16 H7      -3.5343   7.8717  -2.0482   H         1 RES1   0.0000
    17 C10     -2.5474   7.3325  -0.3282   C.ar      1 RES1   0.0000
    18 C11     -2.3532   7.7589   0.9886   C.ar      1 RES1   0.0000
    19 C12     -1.8809   6.1453  -0.7638   C.ar      1 RES1   0.0000
    20 H8      -2.0349   5.8200  -1.6429   H         1 RES1   0.0000
    21 C13     -0.4087   7.0101   3.8903   C.ar      1 RES1   0.0000
    22 H9      -0.2548   7.3818   4.7509   H         1 RES1   0.0000
    23 C14      0.3247   5.8895   3.5038   C.ar      1 RES1   0.0000
    24 H10      0.9619   5.5137   4.0997   H         1 RES1   0.0000
    25 C15      0.1319   5.3279   2.2711   C.ar      1 RES1   0.0000
    26 H11      0.6044   4.5435   2.0177   H         1 RES1   0.0000
    27 C16     -0.7732   5.9297   1.3907   C.ar      1 RES1   0.0000
    28 C17     -1.4693   7.0573   1.8449   C.ar      1 RES1   0.0000
    29 C18     -1.0375   5.4787   0.0506   C.ar      1 RES1   0.0000
    30 H12     -0.6083   4.6934  -0.2682   H         1 RES1   0.0000
    31 N1      -1.3593  10.5004   3.2226   N.ar      1 RES1   0.0000
    32 N2      -2.9594   8.8662   1.5224   N.ar      1 RES1   0.0000
    33 N3      -1.3187   7.5810   3.0986   N.ar      1 RES1   0.0000
    34 Fe1     -2.6348   9.0206   3.4635   Fe        1 RES1   2.0000
    35 C1A     -5.2185  10.4685   3.9444   C.ar      1 RES1   0.0000
    36 H1A     -5.6517   9.6242   3.9898   H         1 RES1   0.0000
    37 C2A     -5.9861  11.6272   4.1332   C.ar      1 RES1   0.0000
    38 H2A     -6.9158  11.5575   4.3157   H         1 RES1   0.0000
    39 C3A     -5.3957  12.8541   4.0545   C.ar      1 RES1   0.0000
    40 H3A     -5.9061  13.6428   4.1953   H         1 RES1   0.0000
    41 C4A     -4.0230  12.9380   3.7625   C.ar      1 RES1   0.0000
    42 C5A     -3.3321  11.7288   3.6055   C.ar      1 RES1   0.0000
    43 C6A     -3.2949  14.1626   3.6113   C.ar      1 RES1   0.0000
    44 H4A     -3.7477  14.9904   3.7207   H         1 RES1   0.0000
    45 N1A     -3.9102  10.5004   3.7044   N.ar      1 RES1   0.0000
    46 C7A     -1.5430   9.5882   6.2091   C.ar      1 RES1   0.0000
    47 H5A     -1.1235  10.3666   5.8617   H         1 RES1   0.0000
    48 C8A     -1.3257   9.2491   7.5525   C.ar      1 RES1   0.0000
    49 H6A     -0.7826   9.8033   8.1008   H         1 RES1   0.0000
    50 C9A     -1.8961   8.1199   8.0724   C.ar      1 RES1   0.0000
    51 H7A     -1.7352   7.8717   8.9752   H         1 RES1   0.0000
    52 C10A    -2.7221   7.3325   7.2552   C.ar      1 RES1   0.0000
    53 C11A    -2.9163   7.7589   5.9384   C.ar      1 RES1   0.0000
    54 C12A    -3.3886   6.1453   7.6908   C.ar      1 RES1   0.0000
    55 H8A     -3.2346   5.8200   8.5699   H         1 RES1   0.0000
    56 C13A    -4.8608   7.0101   3.0367   C.ar      1 RES1   0.0000
    57 H9A     -5.0147   7.3818   2.1761   H         1 RES1   0.0000
    58 C14A    -5.5942   5.8895   3.4232   C.ar      1 RES1   0.0000
    59 H10A    -6.2315   5.5137   2.8273   H         1 RES1   0.0000
    60 C15A    -5.4014   5.3279   4.6559   C.ar      1 RES1   0.0000
    61 H11A    -5.8739   4.5435   4.9093   H         1 RES1   0.0000
    62 C16A    -4.4963   5.9297   5.5363   C.ar      1 RES1   0.0000
    63 C17A    -3.8002   7.0573   5.0821   C.ar      1 RES1   0.0000
    64 C18A    -4.2320   5.4787   6.8764   C.ar      1 RES1   0.0000
    65 H12A    -4.6612   4.6934   7.1952   H         1 RES1   0.0000
    66 N2A     -2.3101   8.8662   5.4046   N.ar      1 RES1   0.0000
    67 N3A     -3.9508   7.5810   3.8284   N.ar      1 RES1   0.0000
    68 C19      4.0954   8.9208   6.1916   C.3       2 RES2   0.0000
    69 O1       2.9095   7.7386   4.2540   O.2       2 RES2   0.0000
    70 O2       1.5704   9.1095   5.7343   O.2       2 RES2   0.0000
    71 O3       3.1057  10.1565   4.1809   O.3       2 RES2  -1.0000
    72 F1       5.2869   8.8626   5.6080   F         2 RES2   0.0000
    73 F2       3.9935   7.8771   6.9789   F         2 RES2   0.0000
    74 F3       4.0945  10.0168   6.9558   F         2 RES2   0.0000
    75 S1       2.7635   8.9875   4.9509   S.o2      2 RES2   0.0000
    76 C20      2.2169   3.9913   8.6006   C.2       3 RES3   0.0000
    77 H13      2.7427   3.2082   8.7167   H         3 RES3   0.0000
    78 C21      2.2547   4.8870   7.4202   C.3       3 RES3   0.0000
    79 H14      2.3212   4.3651   6.5819   H         3 RES3   0.0000
    80 H15      3.0198   5.5121   7.4734   H         3 RES3   0.0000
    81 C22      0.9109   5.6468   7.4950   C.3       3 RES3   0.0000
    82 H16      1.0512   6.6192   7.6196   H         3 RES3   0.0000
    83 H17      0.3642   5.4971   6.6831   H         3 RES3   0.0000
    84 C23      0.2759   5.0213   8.7114   C.3       3 RES3   0.0000
    85 H18     -0.2228   5.7040   9.2255   H         3 RES3   0.0000
    86 H19     -0.3568   4.3103   8.4377   H         3 RES3   0.0000
    87 O4       1.3022   4.4767   9.4983   O.3       3 RES3   0.0000
@<TRIPOS>BOND
     1     1     2    1
     2     3     1   ar
     3     4     3    1
     4     5     3   ar
     5     6     5    1
     6     7     5   ar
     7     8     7   ar
     8     9     7   ar
     9    10     9    1
    10    11    12    1
    11    13    11   ar
    12    14    13    1
    13    15    13   ar
    14    16    15    1
    15    17    15   ar
    16    18    17   ar
    17    19    17   ar
    18    20    19    1
    19    21    22    1
    20    23    21   ar
    21    24    23    1
    22    25    23   ar
    23    26    25    1
    24    27    25   ar
    25    28    18   ar
    26    29    19   ar
    27    30    29    1
    28    31     1   ar
    29    32    11   ar
    30    33    21   ar
    31    34    31    1
    32    35    36    1
    33    37    35   ar
    34    38    37    1
    35    39    37   ar
    36    40    39    1
    37    41    39   ar
    38    42     8   ar
    39    43     9   ar
    40    44    43    1
    41    45    34    1
    42    46    47    1
    43    48    46   ar
    44    49    48    1
    45    50    48   ar
    46    51    50    1
    47    52    50   ar
    48    53    52   ar
    49    54    52   ar
    50    55    54    1
    51    56    57    1
    52    58    56   ar
    53    59    58    1
    54    60    58   ar
    55    61    60    1
    56    62    60   ar
    57    63    53   ar
    58    64    54   ar
    59    65    64    1
    60    66    34    1
    61    67    34    1
    62     8    31   ar
    63    18    32   ar
    64    27    28   ar
    65    27    29   ar
    66    28    33   ar
    67    32    34    1
    68    33    34    1
    69    35    45   ar
    70    41    42   ar
    71    41    43   ar
    72    42    45   ar
    73    46    66   ar
    74    53    66   ar
    75    56    67   ar
    76    62    63   ar
    77    62    64   ar
    78    63    67   ar
    79    68    72    1
    80    69    75    2
    81    70    75    2
    82    71    75    1
    83    73    68    1
    84    74    68    1
    85    75    68    1
    86    76    77    1
    87    78    76    1
    88    79    78    1
    89    80    78    1
    90    81    78    1
    91    82    81    1
    92    83    81    1
    93    84    81    1
    94    85    84    1
    95    86    84    1
    96    87    76    1
    97    84    87    1
@<TRIPOS>SUBSTRUCTURE
     1 RES1        1 GROUP             0 ****  ****    0  
     2 RES2       68 GROUP             0 ****  ****    0  
     3 RES3       76 GROUP             0 ****  ****    0  
@<TRIPOS>CRYSIN
   21.6660   14.4457   17.4070   90.0000  127.2610   90.0000    15     1
