@<TRIPOS>MOLECULE
AQURUC
   130   148     2     0     0
SMALL
USER_CHARGES
****
Generated from the CSD

@<TRIPOS>ATOM
     1 P1       0.0000   8.0852   1.0855   P.3       1 RES1   1.0000
     2 C26      0.7477   6.8673   2.1640   C.ar      1 RES1   0.0000
     3 C27      2.0194   7.0891   2.6668   C.ar      1 RES1   0.0000
     4 H13      2.5186   7.8119   2.3620   H         1 RES1   0.0000
     5 C28      2.5452   6.2447   3.6150   C.ar      1 RES1   0.0000
     6 H14      3.4009   6.3870   3.9505   H         1 RES1   0.0000
     7 C29      1.7888   5.1868   4.0614   C.ar      1 RES1   0.0000
     8 H15      2.1509   4.6052   4.6898   H         1 RES1   0.0000
     9 C30      0.5162   4.9663   3.6046   C.ar      1 RES1   0.0000
    10 H16      0.0069   4.2652   3.9425   H         1 RES1   0.0000
    11 C31      0.0019   5.8055   2.6312   C.ar      1 RES1   0.0000
    12 H17     -0.8500   5.6526   2.2910   H         1 RES1   0.0000
    13 C26A    -0.7477   9.3032   2.1640   C.ar      1 RES1   0.0000
    14 C27A    -2.0194   9.0813   2.6668   C.ar      1 RES1   0.0000
    15 H13A    -2.5186   8.3586   2.3620   H         1 RES1   0.0000
    16 C28A    -2.5452   9.9257   3.6150   C.ar      1 RES1   0.0000
    17 H14A    -3.4009   9.7834   3.9505   H         1 RES1   0.0000
    18 C29A    -1.7888  10.9836   4.0614   C.ar      1 RES1   0.0000
    19 H15A    -2.1509  11.5652   4.6898   H         1 RES1   0.0000
    20 C30A    -0.5162  11.2042   3.6046   C.ar      1 RES1   0.0000
    21 H16A    -0.0069  11.9053   3.9425   H         1 RES1   0.0000
    22 C31A    -0.0019  10.3649   2.6312   C.ar      1 RES1   0.0000
    23 H17A     0.8500  10.5178   2.2910   H         1 RES1   0.0000
    24 C26N    -1.2180   7.3375   0.0069   C.ar      1 RES1   0.0000
    25 C27N    -0.9961   6.0659  -0.4958   C.ar      1 RES1   0.0000
    26 H13N    -0.2733   5.5666  -0.1911   H         1 RES1   0.0000
    27 C28N    -1.8405   5.5400  -1.4441   C.ar      1 RES1   0.0000
    28 H14N    -1.6982   4.6844  -1.7796   H         1 RES1   0.0000
    29 C29N    -2.8984   6.2964  -1.8904   C.ar      1 RES1   0.0000
    30 H15N    -3.4800   5.9343  -2.5188   H         1 RES1   0.0000
    31 C30N    -3.1190   7.5691  -1.4337   C.ar      1 RES1   0.0000
    32 H16N    -3.8200   8.0783  -1.7715   H         1 RES1   0.0000
    33 C31N    -2.2797   8.0833  -0.4602   C.ar      1 RES1   0.0000
    34 H17N    -2.4326   8.9352  -0.1201   H         1 RES1   0.0000
    35 C26O     1.2180   8.8329   0.0069   C.ar      1 RES1   0.0000
    36 C27O     0.9961  10.1046  -0.4958   C.ar      1 RES1   0.0000
    37 H13O     0.2733  10.6039  -0.1911   H         1 RES1   0.0000
    38 C28O     1.8405  10.6305  -1.4441   C.ar      1 RES1   0.0000
    39 H14O     1.6982  11.4861  -1.7796   H         1 RES1   0.0000
    40 C29O     2.8984   9.8740  -1.8904   C.ar      1 RES1   0.0000
    41 H15O     3.4800  10.2362  -2.5188   H         1 RES1   0.0000
    42 C30O     3.1190   8.6014  -1.4337   C.ar      1 RES1   0.0000
    43 H16O     3.8200   8.0921  -1.7715   H         1 RES1   0.0000
    44 C31O     2.2797   8.0872  -0.4602   C.ar      1 RES1   0.0000
    45 H17O     2.4326   7.2352  -0.1201   H         1 RES1   0.0000
    46 Fe1      0.0000   0.0000   4.3418   Fe        2 RES2  -1.0000
    47 N1       0.6203   1.0637   2.8590   N.2       2 RES2   0.0000
    48 N2       2.7037   1.8919   3.7366   N.2       2 RES2   0.0000
    49 N3       1.5824   0.4858   5.3530   N.2       2 RES2   0.0000
    50 N4       1.1986  -0.7089   7.3971   N.2       2 RES2   0.0000
    51 C1      -0.0430   1.2348   1.6621   C.2       2 RES2   0.0000
    52 C2       0.7105   2.1351   0.8197   C.2       2 RES2   0.0000
    53 C3       0.4340   2.5999  -0.4724   C.2       2 RES2   0.0000
    54 H1      -0.3362   2.3473  -0.9283   H         2 RES2   0.0000
    55 C4       1.3561   3.4456  -1.0308   C.2       2 RES2   0.0000
    56 H2       1.2040   3.7608  -1.8926   H         2 RES2   0.0000
    57 C5       2.5232   3.8592  -0.3604   C.ar      2 RES2   0.0000
    58 C6       3.4595   4.7299  -0.9630   C.ar      2 RES2   0.0000
    59 H3       3.3120   5.0331  -1.8296   H         2 RES2   0.0000
    60 C7       4.5730   5.1309  -0.2935   C.ar      2 RES2   0.0000
    61 H4       5.1744   5.7074  -0.7067   H         2 RES2   0.0000
    62 C8       4.8249   4.6888   1.0038   C.ar      2 RES2   0.0000
    63 H5       5.5797   4.9925   1.4548   H         2 RES2   0.0000
    64 C9       3.9799   3.8188   1.6178   C.ar      2 RES2   0.0000
    65 H6       4.1777   3.5045   2.4703   H         2 RES2   0.0000
    66 C10      2.7959   3.3884   0.9622   C.ar      2 RES2   0.0000
    67 C11      1.8460   2.5035   1.5170   C.2       2 RES2   0.0000
    68 C12      1.7658   1.8043   2.7988   C.2       2 RES2   0.0000
    69 C13      2.6135   1.2710   4.8950   C.2       2 RES2   0.0000
    70 C14      3.6526   1.3315   5.8980   C.ar      2 RES2   0.0000
    71 C15      4.8948   1.9806   5.8763   C.ar      2 RES2   0.0000
    72 H7       5.1828   2.4518   5.1279   H         2 RES2   0.0000
    73 C16      5.6645   1.8916   7.0017   C.ar      2 RES2   0.0000
    74 H8       6.4882   2.3233   7.0122   H         2 RES2   0.0000
    75 C17      5.2638   1.1730   8.1479   C.ar      2 RES2   0.0000
    76 C18      6.0736   1.0892   9.3028   C.ar      2 RES2   0.0000
    77 H9       6.9011   1.5138   9.3069   H         2 RES2   0.0000
    78 C19      5.6781   0.4091  10.4022   C.ar      2 RES2   0.0000
    79 H10      6.2400   0.3636  11.1417   H         2 RES2   0.0000
    80 C20      4.4317  -0.2277  10.4378   C.ar      2 RES2   0.0000
    81 H11      4.1625  -0.6810  11.2044   H         2 RES2   0.0000
    82 C21      3.6134  -0.1824   9.3497   C.ar      2 RES2   0.0000
    83 H12      2.7879  -0.6098   9.3796   H         2 RES2   0.0000
    84 C22      4.0015   0.5071   8.1696   C.ar      2 RES2   0.0000
    85 C23      3.2160   0.6096   6.9878   C.ar      2 RES2   0.0000
    86 C24      1.9159   0.0708   6.6126   C.2       2 RES2   0.0000
    87 N5       1.5533  -2.4446   3.2208   N.1       2 RES2   0.0000
    88 C25      0.9706  -1.5643   3.6211   C.1       2 RES2   0.0000
    89 N1H     -0.6203  -1.0637   5.8247   N.2       2 RES2   0.0000
    90 N2H     -2.7037  -1.8919   4.9471   N.2       2 RES2   0.0000
    91 N3H     -1.5824  -0.4858   3.3307   N.2       2 RES2   0.0000
    92 N4H     -1.1986   0.7089   1.2866   N.2       2 RES2   0.0000
    93 C1H      0.0430  -1.2348   7.0216   C.2       2 RES2   0.0000
    94 C2H     -0.7105  -2.1351   7.8640   C.ar      2 RES2   0.0000
    95 C3H     -0.4340  -2.5999   9.1561   C.ar      2 RES2   0.0000
    96 H1H      0.3362  -2.3473   9.6120   H         2 RES2   0.0000
    97 C4H     -1.3561  -3.4456   9.7145   C.ar      2 RES2   0.0000
    98 H2H     -1.2040  -3.7608  10.5763   H         2 RES2   0.0000
    99 C5H     -2.5232  -3.8592   9.0441   C.ar      2 RES2   0.0000
   100 C6H     -3.4595  -4.7299   9.6467   C.ar      2 RES2   0.0000
   101 H3H     -3.3120  -5.0331  10.5133   H         2 RES2   0.0000
   102 C7H     -4.5730  -5.1309   8.9772   C.ar      2 RES2   0.0000
   103 H4H     -5.1744  -5.7074   9.3904   H         2 RES2   0.0000
   104 C8H     -4.8249  -4.6888   7.6799   C.ar      2 RES2   0.0000
   105 H5H     -5.5797  -4.9925   7.2289   H         2 RES2   0.0000
   106 C9H     -3.9799  -3.8188   7.0659   C.ar      2 RES2   0.0000
   107 H6H     -4.1777  -3.5045   6.2134   H         2 RES2   0.0000
   108 C10H    -2.7959  -3.3884   7.7215   C.ar      2 RES2   0.0000
   109 C11H    -1.8460  -2.5035   7.1667   C.ar      2 RES2   0.0000
   110 C12H    -1.7658  -1.8043   5.8849   C.2       2 RES2   0.0000
   111 C13H    -2.6135  -1.2710   3.7887   C.2       2 RES2   0.0000
   112 C14H    -3.6526  -1.3315   2.7857   C.ar      2 RES2   0.0000
   113 C15H    -4.8948  -1.9806   2.8074   C.ar      2 RES2   0.0000
   114 H7H     -5.1828  -2.4518   3.5558   H         2 RES2   0.0000
   115 C16H    -5.6645  -1.8916   1.6820   C.ar      2 RES2   0.0000
   116 H8H     -6.4882  -2.3233   1.6715   H         2 RES2   0.0000
   117 C17H    -5.2638  -1.1730   0.5358   C.ar      2 RES2   0.0000
   118 C18H    -6.0736  -1.0892  -0.6191   C.ar      2 RES2   0.0000
   119 H9H     -6.9011  -1.5138  -0.6232   H         2 RES2   0.0000
   120 C19H    -5.6781  -0.4091  -1.7185   C.ar      2 RES2   0.0000
   121 H10H    -6.2400  -0.3636  -2.4580   H         2 RES2   0.0000
   122 C20H    -4.4317   0.2277  -1.7541   C.ar      2 RES2   0.0000
   123 H11H    -4.1625   0.6810  -2.5207   H         2 RES2   0.0000
   124 C21H    -3.6134   0.1824  -0.6660   C.ar      2 RES2   0.0000
   125 H12H    -2.7879   0.6098  -0.6959   H         2 RES2   0.0000
   126 C22H    -4.0015  -0.5071   0.5141   C.ar      2 RES2   0.0000
   127 C23H    -3.2160  -0.6096   1.6959   C.ar      2 RES2   0.0000
   128 C24H    -1.9159  -0.0708   2.0711   C.2       2 RES2   0.0000
   129 N5H     -1.5533   2.4446   5.4629   N.1       2 RES2   0.0000
   130 C25H    -0.9706   1.5643   5.0626   C.1       2 RES2   0.0000
@<TRIPOS>BOND
     1     1     2    1
     2     2     3   ar
     3     3     4    1
     4     5     3   ar
     5     6     5    1
     6     7     5   ar
     7     8     7    1
     8     9     7   ar
     9    10     9    1
    10    11     2   ar
    11    12    11    1
    12    13     1    1
    13    14    13   ar
    14    15    14    1
    15    16    14   ar
    16    17    16    1
    17    18    16   ar
    18    19    18    1
    19    20    18   ar
    20    21    20    1
    21    22    13   ar
    22    23    22    1
    23    24     1    1
    24    25    24   ar
    25    26    25    1
    26    27    25   ar
    27    28    27    1
    28    29    27   ar
    29    30    29    1
    30    31    29   ar
    31    32    31    1
    32    33    24   ar
    33    34    33    1
    34    35     1    1
    35    36    35   ar
    36    37    36    1
    37    38    36   ar
    38    39    38    1
    39    40    38   ar
    40    41    40    1
    41    42    40   ar
    42    43    42    1
    43    44    35   ar
    44    45    44    1
    45     9    11   ar
    46    20    22   ar
    47    31    33   ar
    48    42    44   ar
    49    46    47    1
    50    47    51    1
    51    48    68    1
    52    49    46    1
    53    50    86    1
    54    51    52    2
    55    52    53    1
    56    53    54    1
    57    55    53    2
    58    56    55    1
    59    57    55    1
    60    58    57   ar
    61    59    58    1
    62    60    58   ar
    63    61    60    1
    64    62    60   ar
    65    63    62    1
    66    64    62   ar
    67    65    64    1
    68    66    57   ar
    69    67    52    1
    70    68    47    1
    71    69    48    2
    72    70    69    1
    73    71    70   ar
    74    72    71    1
    75    73    71   ar
    76    74    73    1
    77    75    73   ar
    78    76    75   ar
    79    77    76    1
    80    78    76   ar
    81    79    78    1
    82    80    78   ar
    83    81    80    1
    84    82    80   ar
    85    83    82    1
    86    84    75   ar
    87    85    70   ar
    88    86    49    2
    89    87    88    3
    90    88    46    1
    91    89    46    1
    92    90   110    2
    93    91    46    1
    94    92    51    1
    95    93    50    2
    96    94    93    1
    97    95    94   ar
    98    96    95    1
    99    97    95   ar
   100    98    97    1
   101    99    97   ar
   102   100    99   ar
   103   101   100    1
   104   102   100   ar
   105   103   102    1
   106   104   102   ar
   107   105   104    1
   108   106   104   ar
   109   107   106    1
   110   108    99   ar
   111   109    94   ar
   112   110    89    1
   113   111    90    1
   114   112   111    1
   115   113   112   ar
   116   114   113    1
   117   115   113   ar
   118   116   115    1
   119   117   115   ar
   120   118   117   ar
   121   119   118    1
   122   120   118   ar
   123   121   120    1
   124   122   120   ar
   125   123   122    1
   126   124   122   ar
   127   125   124    1
   128   126   117   ar
   129   127   112   ar
   130   128    91    1
   131   129   130    3
   132   130    46    1
   133    49    69    1
   134    64    66   ar
   135    66    67    1
   136    67    68    2
   137    82    84   ar
   138    84    85   ar
   139    85    86    1
   140    89    93    1
   141    91   111    2
   142    92   128    2
   143   106   108   ar
   144   108   109   ar
   145   109   110    1
   146   124   126   ar
   147   126   127   ar
   148   127   128    1
@<TRIPOS>SUBSTRUCTURE
     1 RES1        1 GROUP             0 ****  ****    0  
     2 RES2       46 GROUP             0 ****  ****    0  
