@<TRIPOS>MOLECULE
ARADOO01
    81    88     1     0     0
SMALL
NO_CHARGES
****
Generated from the CSD

@<TRIPOS>ATOM
     1 Fe1      3.9045   3.7358   7.2244   Fe        1 RES1   0.0000
     2 S1       5.5476   2.4789   3.0621   S.2       1 RES1   0.0000
     3 S2       1.3100   5.1472  10.9462   S.2       1 RES1   0.0000
     4 O1       6.2449   3.3923  12.8467   O.3       1 RES1   0.0000
     5 O2       0.7515   4.0598   1.8226   O.3       1 RES1   0.0000
     6 N1       3.7331   1.5493   6.9987   N.ar      1 RES1   0.0000
     7 N2       1.4819   4.2818   5.1210   N.2       1 RES1   0.0000
     8 N3       6.1656   3.1512   9.5236   N.2       1 RES1   0.0000
     9 N4       5.5452   4.0004   8.6312   N.2       1 RES1   0.0000
    10 N5       4.0573   5.9287   7.4558   N.ar      1 RES1   0.0000
    11 N6       6.0774   5.1860  10.3943   N.pl3     1 RES1   0.0000
    12 N7       1.3374   2.2131   4.3142   N.pl3     1 RES1   0.0000
    13 N8       2.2320   3.4467   5.8930   N.2       1 RES1   0.0000
    14 C1       0.9494   3.5364   4.1777   C.2       1 RES1   0.0000
    15 C2       5.4952   5.2146   9.1768   C.2       1 RES1   0.0000
    16 C3       2.5831  -0.2344   5.8828   C.ar      1 RES1   0.0000
    17 H1       1.9419  -0.5052   5.2646   H         1 RES1   0.0000
    18 C4       3.2854  -1.1659   6.6040   C.ar      1 RES1   0.0000
    19 H2       3.1449  -2.0747   6.4705   H         1 RES1   0.0000
    20 C5       5.1320   7.6690   8.7023   C.ar      1 RES1   0.0000
    21 H3       5.7112   7.9275   9.3814   H         1 RES1   0.0000
    22 C6       3.4743   6.8562   6.7143   C.ar      1 RES1   0.0000
    23 H4       2.9032   6.5854   6.0308   H         1 RES1   0.0000
    24 C7       2.1371   2.2136   5.4126   C.2       1 RES1   0.0000
    25 C8       4.2106  -0.7187   7.5356   C.ar      1 RES1   0.0000
    26 H5       4.7051  -1.3243   8.0406   H         1 RES1   0.0000
    27 C9       4.8891   6.3380   8.4527   C.ar      1 RES1   0.0000
    28 C10      4.4947   8.6131   7.9216   C.ar      1 RES1   0.0000
    29 H6       4.6232   9.5196   8.0841   H         1 RES1   0.0000
    30 C11      4.3858   0.6424   7.7025   C.ar      1 RES1   0.0000
    31 H7       4.9931   0.9336   8.3439   H         1 RES1   0.0000
    32 C12      1.0419   1.1499   3.3912   C.ar      1 RES1   0.0000
    33 C13      6.0336   6.2090  11.4115   C.ar      1 RES1   0.0000
    34 C14      6.4652   3.8714  10.5859   C.2       1 RES1   0.0000
    35 C15      0.5306  -0.9316   1.6354   C.ar      1 RES1   0.0000
    36 C16      5.8551   8.2220  13.3052   C.ar      1 RES1   0.0000
    37 C17      3.6726   8.2026   6.9058   C.ar      1 RES1   0.0000
    38 H8       3.2554   8.8243   6.3559   H         1 RES1   0.0000
    39 C18     -0.1957   0.6096   3.3129   C.ar      1 RES1   0.0000
    40 H9      -0.8736   0.9382   3.8585   H         1 RES1   0.0000
    41 C19     -0.4649  -0.4081   2.4466   C.ar      1 RES1   0.0000
    42 H10     -1.3265  -0.7559   2.3987   H         1 RES1   0.0000
    43 C20      2.0657   0.6635   2.6120   C.ar      1 RES1   0.0000
    44 H11      2.9246   1.0164   2.6773   H         1 RES1   0.0000
    45 C21      2.8371   1.1086   6.0845   C.ar      1 RES1   0.0000
    46 C22      4.8509   6.4221  12.0573   C.ar      1 RES1   0.0000
    47 H12      4.1088   5.8963  11.8643   H         1 RES1   0.0000
    48 C23      7.1270   6.9660  11.6698   C.ar      1 RES1   0.0000
    49 H13      7.9254   6.8108  11.2171   H         1 RES1   0.0000
    50 C24      1.7806  -0.3764   1.7152   C.ar      1 RES1   0.0000
    51 H14      2.4562  -0.6973   1.1623   H         1 RES1   0.0000
    52 C25      4.7705   7.4284  13.0005   C.ar      1 RES1   0.0000
    53 H15      3.9637   7.5733  13.4402   H         1 RES1   0.0000
    54 C26      0.2416  -2.0621   0.6748   C.3       1 RES1   0.0000
    55 H16      0.3223  -2.9003   1.1333   H         1 RES1   0.0000
    56 H17      0.8688  -2.0327  -0.0508   H         1 RES1   0.0000
    57 H18     -0.6504  -1.9697   0.3323   H         1 RES1   0.0000
    58 C27      7.0356   7.9897  12.6334   C.ar      1 RES1   0.0000
    59 H19      7.7796   8.5150  12.8177   H         1 RES1   0.0000
    60 C28      5.7444   9.3221  14.3225   C.3       1 RES1   0.0000
    61 H20      4.9653   9.1800  14.8652   H         1 RES1   0.0000
    62 H21      5.6723  10.1678  13.8741   H         1 RES1   0.0000
    63 H22      6.5268   9.3216  14.8811   H         1 RES1   0.0000
    64 C29      6.8264   2.9601  14.0758   C.3       1 RES1   0.0000
    65 H23      7.0988   2.0438  13.9960   H         1 RES1   0.0000
    66 H24      6.1795   3.0416  14.7810   H         1 RES1   0.0000
    67 H25      7.5906   3.5053  14.2775   H         1 RES1   0.0000
    68 C30      7.1551   3.3604  11.7656   C.3       1 RES1   0.0000
    69 H26      7.4561   2.4516  11.6089   H         1 RES1   0.0000
    70 H27      7.9297   3.9109  11.9644   H         1 RES1   0.0000
    71 C31      0.0819   4.0656   3.0517   C.3       1 RES1   0.0000
    72 H28     -0.7175   3.5205   2.9820   H         1 RES1   0.0000
    73 H29     -0.1919   4.9723   3.2606   H         1 RES1   0.0000
    74 C32      1.9021   4.8493   1.7994   C.3       1 RES1   0.0000
    75 H30      1.6845   5.7403   2.0823   H         1 RES1   0.0000
    76 H31      2.2543   4.8738   0.9069   H         1 RES1   0.0000
    77 H32      2.5582   4.4764   2.3929   H         1 RES1   0.0000
    78 C33      2.0617   4.3376   9.7747   C.1       1 RES1   0.0000
    79 N9       2.6171   3.7765   8.9229   N.2       1 RES1   0.0000
    80 N10      5.1686   3.7466   5.4968   N.2       1 RES1   0.0000
    81 C34      5.3414   3.2178   4.4694   C.1       1 RES1   0.0000
@<TRIPOS>BOND
     1     1     6    1
     2     2    81    2
     3     3    78    2
     4     4    64    1
     5     5    71    1
     6     6    30   ar
     7     7    13    1
     8     8     9    1
     9     9     1    1
    10    10     1    1
    11    11    15    1
    12    12    14    1
    13    13     1    1
    14    14     7    2
    15    15     9    2
    16    16    17    1
    17    18    16   ar
    18    19    18    1
    19    20    21    1
    20    22    10   ar
    21    23    22    1
    22    24    12    1
    23    25    18   ar
    24    26    25    1
    25    27    10   ar
    26    28    20   ar
    27    29    28    1
    28    30    25   ar
    29    31    30    1
    30    32    12    1
    31    33    11    1
    32    34     8    2
    33    35    41   ar
    34    36    52   ar
    35    37    22   ar
    36    38    37    1
    37    39    32   ar
    38    40    39    1
    39    41    39   ar
    40    42    41    1
    41    43    32   ar
    42    44    43    1
    43    45     6   ar
    44    46    33   ar
    45    47    46    1
    46    48    33   ar
    47    49    48    1
    48    50    35   ar
    49    51    50    1
    50    52    46   ar
    51    53    52    1
    52    54    35    1
    53    55    54    1
    54    56    54    1
    55    57    54    1
    56    58    36   ar
    57    59    58    1
    58    60    36    1
    59    61    60    1
    60    62    60    1
    61    63    60    1
    62    64    65    1
    63    66    64    1
    64    67    64    1
    65    68     4    1
    66    69    68    1
    67    70    68    1
    68    71    14    1
    69    72    71    1
    70    73    71    1
    71    74     5    1
    72    75    74    1
    73    76    74    1
    74    77    74    1
    75    78    79    2
    76    79     1    1
    77    80     1    1
    78    81    80    2
    79    11    34    1
    80    13    24    2
    81    15    27    1
    82    16    45   ar
    83    20    27   ar
    84    24    45    1
    85    28    37   ar
    86    34    68    1
    87    43    50   ar
    88    48    58   ar
@<TRIPOS>SUBSTRUCTURE
     1 RES1        1 GROUP             0 ****  ****    0  
@<TRIPOS>CRYSIN
    9.0930   13.5230   14.8550   86.3300   78.1600   89.0300     2     1
