@<TRIPOS>MOLECULE
ARADOO
    81    88     1     0     0
SMALL
NO_CHARGES
****
Generated from the CSD

@<TRIPOS>ATOM
     1 Fe1      3.9044   3.7350   7.2241   Fe        1 RES1   0.0000
     2 S1       1.3073   5.1445  10.9466   S.2       1 RES1   0.0000
     3 S2       5.5476   2.4789   3.0620   S.2       1 RES1   0.0000
     4 O1       0.7745   4.0730   1.8182   O.3       1 RES1   0.0000
     5 O2       6.2487   3.3851  12.8612   O.3       1 RES1   0.0000
     6 N1       2.6225   3.7732   8.9142   N.2       1 RES1   0.0000
     7 N2       5.1704   3.7472   5.5055   N.2       1 RES1   0.0000
     8 N3       5.5464   4.0029   8.6283   N.2       1 RES1   0.0000
     9 N4       6.0756   5.1873  10.3943   N.pl3     1 RES1   0.0000
    10 N5       6.1622   3.1472   9.5251   N.2       1 RES1   0.0000
    11 N6       2.2347   3.4480   5.8930   N.2       1 RES1   0.0000
    12 N7       1.3353   2.2184   4.3127   N.pl3     1 RES1   0.0000
    13 N8       3.7362   1.5534   7.0002   N.ar      1 RES1   0.0000
    14 N9       4.0577   5.9315   7.4573   N.ar      1 RES1   0.0000
    15 N10      1.4788   4.2757   5.1108   N.2       1 RES1   0.0000
    16 C1       2.8353   1.1086   6.0845   C.ar      1 RES1   0.0000
    17 C2       5.3325   3.2289   4.4738   C.1       1 RES1   0.0000
    18 C3       1.0416   1.1471   3.3898   C.ar      1 RES1   0.0000
    19 C4       4.8884   6.3351   8.4498   C.ar      1 RES1   0.0000
    20 C5       2.1368   2.2135   5.4112   C.2       1 RES1   0.0000
    21 C6       1.7851  -0.3804   1.7152   C.ar      1 RES1   0.0000
    22 H1       2.4618  -0.7026   1.1638   H         1 RES1   0.0000
    23 C7       6.4603   3.8662  10.5888   C.2       1 RES1   0.0000
    24 C8       4.3862   0.6452   7.7039   C.ar      1 RES1   0.0000
    25 H2       4.9928   0.9338   8.3468   H         1 RES1   0.0000
    26 C9       2.5843  -0.2359   5.8799   C.ar      1 RES1   0.0000
    27 H3       1.9473  -0.5069   5.2603   H         1 RES1   0.0000
    28 C10      6.0342   6.2116  11.4101   C.ar      1 RES1   0.0000
    29 C11      3.6702   8.2025   6.9029   C.ar      1 RES1   0.0000
    30 H4       3.2505   8.8229   6.3544   H         1 RES1   0.0000
    31 C12      7.0288   7.9813  12.6276   C.ar      1 RES1   0.0000
    32 H5       7.7763   8.5014  12.8162   H         1 RES1   0.0000
    33 C13      2.0675   4.3375   9.7718   C.1       1 RES1   0.0000
    34 C14      3.2885  -1.1644   6.6055   C.ar      1 RES1   0.0000
    35 H6       3.1479  -2.0743   6.4763   H         1 RES1   0.0000
    36 C15      2.0653   0.6621   2.6105   C.ar      1 RES1   0.0000
    37 H7       2.9234   1.0177   2.6758   H         1 RES1   0.0000
    38 C16      5.8518   8.2229  13.2980   C.ar      1 RES1   0.0000
    39 C17      0.5297  -0.9344   1.6354   C.ar      1 RES1   0.0000
    40 C18      0.1003   4.0603   3.0531   C.3       1 RES1   0.0000
    41 H8      -0.6949   3.5105   2.9733   H         1 RES1   0.0000
    42 H9      -0.1832   4.9620   3.2679   H         1 RES1   0.0000
    43 C19      7.1489   3.3546  11.7801   C.3       1 RES1   0.0000
    44 H10      7.4502   2.4458  11.6248   H         1 RES1   0.0000
    45 H11      7.9233   3.9036  11.9775   H         1 RES1   0.0000
    46 C20      5.4922   5.2172   9.1754   C.2       1 RES1   0.0000
    47 C21     -0.4595  -0.4098   2.4422   C.ar      1 RES1   0.0000
    48 H12     -1.3218  -0.7524   2.3900   H         1 RES1   0.0000
    49 C22     -0.1933   0.6057   3.3158   C.ar      1 RES1   0.0000
    50 H13     -0.8701   0.9266   3.8672   H         1 RES1   0.0000
    51 C23      5.7459   9.3207  14.3210   C.3       1 RES1   0.0000
    52 H14      5.7157  10.1707  13.8770   H         1 RES1   0.0000
    53 H15      6.5099   9.2905  14.9029   H         1 RES1   0.0000
    54 H16      4.9462   9.2013  14.8376   H         1 RES1   0.0000
    55 C24      5.1299   7.6714   8.6965   C.ar      1 RES1   0.0000
    56 H17      5.7100   7.9284   9.3756   H         1 RES1   0.0000
    57 C25      4.4978   8.6143   7.9187   C.ar      1 RES1   0.0000
    58 H18      4.6305   9.5207   8.0798   H         1 RES1   0.0000
    59 C26      4.8511   6.4289  12.0573   C.ar      1 RES1   0.0000
    60 H19      4.1086   5.9030  11.8628   H         1 RES1   0.0000
    61 C27      7.1228   6.9698  11.6669   C.ar      1 RES1   0.0000
    62 H20      7.9198   6.8213  11.2113   H         1 RES1   0.0000
    63 C28      4.7635   7.4269  12.9976   C.ar      1 RES1   0.0000
    64 H21      3.9570   7.5691  13.4387   H         1 RES1   0.0000
    65 C29      3.4742   6.8508   6.7143   C.ar      1 RES1   0.0000
    66 H22      2.9057   6.5759   6.0308   H         1 RES1   0.0000
    67 C30      4.2109  -0.7189   7.5327   C.ar      1 RES1   0.0000
    68 H23      4.7066  -1.3246   8.0348   H         1 RES1   0.0000
    69 C31      0.2444  -2.0594   0.6748   C.3       1 RES1   0.0000
    70 H24     -0.6615  -2.3565   0.7894   H         1 RES1   0.0000
    71 H25      0.8449  -2.7882   0.8489   H         1 RES1   0.0000
    72 H26      0.3677  -1.7515  -0.2264   H         1 RES1   0.0000
    73 C32      6.8116   2.9627  14.0743   C.3       1 RES1   0.0000
    74 H27      7.1068   2.0529  13.9902   H         1 RES1   0.0000
    75 H28      6.1543   3.0221  14.7709   H         1 RES1   0.0000
    76 H29      7.5603   3.5224  14.2920   H         1 RES1   0.0000
    77 C33      0.9427   3.5358   4.1676   C.2       1 RES1   0.0000
    78 C34      1.9320   4.8789   1.8182   C.3       1 RES1   0.0000
    79 H30      1.7135   5.7551   2.1462   H         1 RES1   0.0000
    80 H31      2.2735   4.9491   0.9229   H         1 RES1   0.0000
    81 H32      2.5974   4.4826   2.3842   H         1 RES1   0.0000
@<TRIPOS>BOND
     1     1     6    1
     2     2    33    2
     3     3    17    2
     4     4    40    1
     5     5    43    1
     6     6    33    2
     7     7     1    1
     8     8     1    1
     9     9    23    1
    10    10     8    1
    11    11     1    1
    12    12    18    1
    13    13     1    1
    14    14     1    1
    15    15    11    1
    16    16    13   ar
    17    17     7    2
    18    18    36   ar
    19    19    14   ar
    20    20    11    2
    21    21    22    1
    22    23    10    2
    23    24    13   ar
    24    25    24    1
    25    26    16   ar
    26    27    26    1
    27    28     9    1
    28    29    30    1
    29    31    32    1
    30    34    26   ar
    31    35    34    1
    32    36    21   ar
    33    37    36    1
    34    38    31   ar
    35    39    21   ar
    36    40    41    1
    37    42    40    1
    38    43    23    1
    39    44    43    1
    40    45    43    1
    41    46     8    2
    42    47    39   ar
    43    48    47    1
    44    49    18   ar
    45    50    49    1
    46    51    38    1
    47    52    51    1
    48    53    51    1
    49    54    51    1
    50    55    19   ar
    51    56    55    1
    52    57    29   ar
    53    58    57    1
    54    59    28   ar
    55    60    59    1
    56    61    28   ar
    57    62    61    1
    58    63    38   ar
    59    64    63    1
    60    65    14   ar
    61    66    65    1
    62    67    24   ar
    63    68    67    1
    64    69    39    1
    65    70    69    1
    66    71    69    1
    67    72    69    1
    68    73     5    1
    69    74    73    1
    70    75    73    1
    71    76    73    1
    72    77    12    1
    73    78     4    1
    74    79    78    1
    75    80    78    1
    76    81    78    1
    77     9    46    1
    78    12    20    1
    79    15    77    2
    80    16    20    1
    81    19    46    1
    82    29    65   ar
    83    31    61   ar
    84    34    67   ar
    85    40    77    1
    86    47    49   ar
    87    55    57   ar
    88    59    63   ar
@<TRIPOS>SUBSTRUCTURE
     1 RES1        1 GROUP             0 ****  ****    0  
@<TRIPOS>CRYSIN
    9.0930   13.5230   14.8550   86.3300   78.1600   89.0300     2     1
