@<TRIPOS>MOLECULE
ARAGEH01
   101   107     3     0     0
SMALL
USER_CHARGES
****
Generated from the CSD

@<TRIPOS>ATOM
     1 Fe1      6.9365   4.9853   3.9102   Fe        1 RES1   2.0000
     2 O1       6.5786  10.4650   3.1541   O.2       1 RES1   0.0000
     3 O2       5.2329  11.8191   4.3736   O.3       1 RES1   0.0000
     4 O3       5.3483   3.7156  -1.0830   O.2       1 RES1   0.0000
     5 O4       5.3951   1.8771  -2.3474   O.3       1 RES1   0.0000
     6 O5       6.2088   0.7376   6.5276   O.2       1 RES1   0.0000
     7 O6       6.8017  -0.1635   8.5157   O.3       1 RES1   0.0000
     8 N1       5.2721   5.9738   3.4460   N.ar      1 RES1   0.0000
     9 N2       7.3727   6.7278   4.6793   N.2       1 RES1   0.0000
    10 N3       6.7532   8.7469   5.2943   N.pl3     1 RES1   0.0000
    11 N4       7.7486   5.3757   2.1453   N.ar      1 RES1   0.0000
    12 N5       6.4147   3.3610   2.9745   N.2       1 RES1   0.0000
    13 N6       6.3349   2.1780   1.1055   N.pl3     1 RES1   0.0000
    14 N7       8.5317   4.0602   4.6293   N.ar      1 RES1   0.0000
    15 N8       6.2386   4.3920   5.6536   N.2       1 RES1   0.0000
    16 N9       6.4415   3.2687   7.5243   N.pl3     1 RES1   0.0000
    17 C1       8.0783   8.5703   5.6950   C.2       1 RES1   0.0000
    18 H1       8.6101   9.1939   6.1338   H         1 RES1   0.0000
    19 C2       8.4230   6.4929   1.7947   C.ar      1 RES1   0.0000
    20 H2       8.4957   7.1730   2.4252   H         1 RES1   0.0000
    21 C3       8.9945   6.6837   0.5942   C.ar      1 RES1   0.0000
    22 H3       9.4466   7.4727   0.4007   H         1 RES1   0.0000
    23 C4       5.1956   7.2453   3.9262   C.ar      1 RES1   0.0000
    24 C5       5.6695   2.5776  -1.2627   C.2       1 RES1   0.0000
    25 C6       6.8184   3.3108   1.6721   C.2       1 RES1   0.0000
    26 C7       6.0119  10.7758   4.1974   C.2       1 RES1   0.0000
    27 C8       6.7754   2.1627   8.4000   C.3       1 RES1   0.0000
    28 H4       7.7024   2.2320   8.6781   H         1 RES1   0.0000
    29 H5       6.2188   2.1934   9.1946   H         1 RES1   0.0000
    30 C9      10.7913   3.2357   4.6068   C.ar      1 RES1   0.0000
    31 H6      11.5934   3.1315   4.1491   H         1 RES1   0.0000
    32 C10      7.6040   4.4426   1.1901   C.ar      1 RES1   0.0000
    33 C11      8.8935   5.6679  -0.3524   C.ar      1 RES1   0.0000
    34 H7       9.3091   5.7518  -1.1798   H         1 RES1   0.0000
    35 C12      4.2797   5.5273   2.6601   C.ar      1 RES1   0.0000
    36 H8       4.3340   4.6646   2.3164   H         1 RES1   0.0000
    37 C13      6.0117   9.9528   5.4256   C.3       1 RES1   0.0000
    38 H9       6.3850  10.4735   6.1545   H         1 RES1   0.0000
    39 H10      5.0957   9.7343   5.6587   H         1 RES1   0.0000
    40 C14      6.3798   7.5906   4.6465   C.2       1 RES1   0.0000
    41 C15      8.3896   3.4698   5.8557   C.ar      1 RES1   0.0000
    42 C16      6.5620   0.8755   7.6901   C.2       1 RES1   0.0000
    43 C17      5.6672   2.2142   3.1904   C.2       1 RES1   0.0000
    44 H11      5.2733   1.9781   3.9988   H         1 RES1   0.0000
    45 C18      5.1555   3.8255   7.5087   C.2       1 RES1   0.0000
    46 H12      4.5044   3.7410   8.1668   H         1 RES1   0.0000
    47 C19      5.5963   1.4892   2.0555   C.2       1 RES1   0.0000
    48 H13      5.1416   0.6880   1.9329   H         1 RES1   0.0000
    49 C20      3.1873   6.2943   2.3457   C.ar      1 RES1   0.0000
    50 H14      2.5326   5.9593   1.7774   H         1 RES1   0.0000
    51 C21      8.1713   4.5363  -0.0484   C.ar      1 RES1   0.0000
    52 H15      8.0721   3.8531  -0.6719   H         1 RES1   0.0000
    53 C22      8.4514   7.2988   5.3150   C.2       1 RES1   0.0000
    54 H16      9.2793   6.9012   5.4601   H         1 RES1   0.0000
    55 C23      7.0486   3.6802   6.3756   C.2       1 RES1   0.0000
    56 C24      5.0443   4.5307   6.3151   C.2       1 RES1   0.0000
    57 H17      4.3007   5.0058   6.0215   H         1 RES1   0.0000
    58 C25      4.0807   8.0201   3.6464   C.ar      1 RES1   0.0000
    59 H18      4.0153   8.8788   3.9953   H         1 RES1   0.0000
    60 C26      6.4739   1.7344  -0.2902   C.3       1 RES1   0.0000
    61 H19      6.1837   0.8117  -0.3576   H         1 RES1   0.0000
    62 H20      7.4102   1.7702  -0.5407   H         1 RES1   0.0000
    63 C27      9.7198   3.9029   4.0160   C.ar      1 RES1   0.0000
    64 H21      9.8295   4.2552   3.1627   H         1 RES1   0.0000
    65 C28      4.6285   1.7251  -4.5774   C.3       1 RES1   0.0000
    66 H22      5.4669   1.2768  -4.6863   H         1 RES1   0.0000
    67 H23      4.4377   2.2497  -5.3599   H         1 RES1   0.0000
    68 H24      3.9297   1.0737  -4.4548   H         1 RES1   0.0000
    69 C29     10.6373   2.7296   5.8954   C.ar      1 RES1   0.0000
    70 H25     11.3519   2.3354   6.3428   H         1 RES1   0.0000
    71 C30      9.4258   2.8246   6.4792   C.ar      1 RES1   0.0000
    72 H26      9.2910   2.4474   7.3170   H         1 RES1   0.0000
    73 C31      3.0636   7.5170   2.8518   C.ar      1 RES1   0.0000
    74 H27      2.3064   8.0277   2.6739   H         1 RES1   0.0000
    75 C32      6.5772  -1.5334   7.9423   C.3       1 RES1   0.0000
    76 H28      7.3535  -2.0899   8.1116   H         1 RES1   0.0000
    77 H29      6.4547  -1.4687   6.9819   H         1 RES1   0.0000
    78 C33      5.8840  13.8764   3.4547   C.3       1 RES1   0.0000
    79 H30      5.7058  14.1940   4.3425   H         1 RES1   0.0000
    80 H31      5.6606  14.5601   2.8190   H         1 RES1   0.0000
    81 H32      6.8152  13.6561   3.3735   H         1 RES1   0.0000
    82 C34      4.6851   2.6018  -3.4046   C.3       1 RES1   0.0000
    83 H33      5.1547   3.4214  -3.6222   H         1 RES1   0.0000
    84 H34      3.7896   2.8294  -3.1092   H         1 RES1   0.0000
    85 C35      5.1341  12.7655   3.2094   C.3       1 RES1   0.0000
    86 H35      5.4461  12.3268   2.4027   H         1 RES1   0.0000
    87 H36      4.2052  13.0199   3.0747   H         1 RES1   0.0000
    88 C36      5.2908  -2.1890   8.6021   C.3       1 RES1   0.0000
    89 H37      5.5640  -2.8976   9.1894   H         1 RES1   0.0000
    90 H38      4.7265  -2.5433   7.9129   H         1 RES1   0.0000
    91 H39      4.8146  -1.5243   9.1013   H         1 RES1   0.0000
    92 Cl1      2.4498   1.5045   9.9512   Cl        2 RES2   0.0000
    93 O7       2.8180   0.4550  10.8580   O.3       2 RES2  -1.0000
    94 O8       2.7791   2.7635  10.5039   O.2       2 RES2   0.0000
    95 O9       1.0349   1.5180   9.7802   O.2       2 RES2   0.0000
    96 O10      3.1785   1.3195   8.7524   O.2       2 RES2   0.0000
    97 Cl2      2.2024   2.4188   0.1121   Cl        3 RES3   0.0000
    98 O11      2.0847   3.2152  -1.0692   O.2       3 RES3   0.0000
    99 O12      0.9629   1.7492   0.3420   O.2       3 RES3   0.0000
   100 O13      3.2341   1.4407  -0.0846   O.3       3 RES3  -1.0000
   101 O14      2.5046   3.2583   1.1815   O.2       3 RES3   0.0000
@<TRIPOS>BOND
     1     1     8    1
     2     2    26    2
     3     3    26    1
     4     4    24    2
     5     5    24    1
     6     6    42    2
     7     7    42    1
     8     8    23   ar
     9     9     1    1
    10    10    17    1
    11    11     1    1
    12    12     1    1
    13    13    25    1
    14    14     1    1
    15    15     1    1
    16    16    27    1
    17    17    18    1
    18    19    11   ar
    19    20    19    1
    20    21    19   ar
    21    22    21    1
    22    23    40    1
    23    24    60    1
    24    25    12    2
    25    26    37    1
    26    27    28    1
    27    29    27    1
    28    30    31    1
    29    32    11   ar
    30    33    21   ar
    31    34    33    1
    32    35     8   ar
    33    36    35    1
    34    37    10    1
    35    38    37    1
    36    39    37    1
    37    40     9    2
    38    41    14   ar
    39    42    27    1
    40    43    12    1
    41    44    43    1
    42    45    16    1
    43    46    45    1
    44    47    13    1
    45    48    47    1
    46    49    35   ar
    47    50    49    1
    48    51    32   ar
    49    52    51    1
    50    53     9    1
    51    54    53    1
    52    55    15    2
    53    56    15    1
    54    57    56    1
    55    58    23   ar
    56    59    58    1
    57    60    13    1
    58    61    60    1
    59    62    60    1
    60    63    14   ar
    61    64    63    1
    62    65    66    1
    63    67    65    1
    64    68    65    1
    65    69    30   ar
    66    70    69    1
    67    71    41   ar
    68    72    71    1
    69    73    49   ar
    70    74    73    1
    71    75     7    1
    72    76    75    1
    73    77    75    1
    74    78    79    1
    75    80    78    1
    76    81    78    1
    77    82     5    1
    78    83    82    1
    79    84    82    1
    80    85     3    1
    81    86    85    1
    82    87    85    1
    83    88    75    1
    84    89    88    1
    85    90    88    1
    86    91    88    1
    87    10    40    1
    88    16    55    1
    89    17    53    2
    90    25    32    1
    91    30    63   ar
    92    33    51   ar
    93    41    55    1
    94    43    47    2
    95    45    56    2
    96    58    73   ar
    97    65    82    1
    98    69    71   ar
    99    78    85    1
   100    92    93    1
   101    94    92    2
   102    95    92    2
   103    96    92    2
   104    97    98    2
   105    99    97    2
   106   100    97    1
   107   101    97    2
@<TRIPOS>SUBSTRUCTURE
     1 RES1        1 GROUP             0 ****  ****    0  
     2 RES2       92 GROUP             0 ****  ****    0  
     3 RES3       97 GROUP             0 ****  ****    0  
@<TRIPOS>CRYSIN
    8.8788   13.9930   17.7990  103.1000   91.7700  102.6700     2     1
