@<TRIPOS>MOLECULE
ARESUO
    75    83     4     0     0
SMALL
USER_CHARGES
****
Generated from the CSD

@<TRIPOS>ATOM
     1 Fe1     14.3227   9.4814   3.0010   Fe        1 RES1   2.0000
     2 N1      12.3915   9.7375   2.7311   N.ar      1 RES1   0.0000
     3 N2      14.4152  10.1740   1.1464   N.ar      1 RES1   0.0000
     4 N3      14.2945   7.6329   2.3152   N.ar      1 RES1   0.0000
     5 N4      16.2832   9.1641   3.0705   N.ar      1 RES1   0.0000
     6 N5      14.1070   8.8858   4.8638   N.ar      1 RES1   0.0000
     7 N6      14.4947  11.2555   3.8469   N.ar      1 RES1   0.0000
     8 C1      11.3774   9.5226   3.5665   C.ar      1 RES1   0.0000
     9 H1      11.5734   9.2060   4.4408   H         1 RES1   0.0000
    10 C2      10.0416   9.7378   3.2272   C.ar      1 RES1   0.0000
    11 H2       9.3587   9.5825   3.8681   H         1 RES1   0.0000
    12 C3       9.7153  10.1758   1.9606   C.ar      1 RES1   0.0000
    13 H3       8.8097  10.3265   1.7167   H         1 RES1   0.0000
    14 C4      10.7615  10.3949   1.0345   C.ar      1 RES1   0.0000
    15 C5      10.5649  10.8048  -0.3240   C.ar      1 RES1   0.0000
    16 H4       9.6817  10.9317  -0.6492   H         1 RES1   0.0000
    17 C6      11.6217  11.0184  -1.1606   C.ar      1 RES1   0.0000
    18 H5      11.4615  11.2953  -2.0548   H         1 RES1   0.0000
    19 C7      12.9684  10.8299  -0.7117   C.ar      1 RES1   0.0000
    20 C8      14.1148  11.0343  -1.5164   C.ar      1 RES1   0.0000
    21 H6      14.0296  11.3219  -2.4177   H         1 RES1   0.0000
    22 C9      15.3411  10.8098  -0.9709   C.ar      1 RES1   0.0000
    23 H7      16.1192  10.9462  -1.4987   H         1 RES1   0.0000
    24 C10     15.4750  10.3797   0.3617   C.ar      1 RES1   0.0000
    25 H8      16.3440  10.2308   0.7128   H         1 RES1   0.0000
    26 C11     13.1829  10.4016   0.6103   C.ar      1 RES1   0.0000
    27 C12     12.0721  10.1751   1.4775   C.ar      1 RES1   0.0000
    28 C13     13.2513   6.8585   1.9841   C.ar      1 RES1   0.0000
    29 H9      12.3751   7.2187   2.0560   H         1 RES1   0.0000
    30 C14     13.3989   5.5539   1.5388   C.ar      1 RES1   0.0000
    31 H10     12.6326   5.0291   1.3338   H         1 RES1   0.0000
    32 C15     14.6652   5.0206   1.3950   C.ar      1 RES1   0.0000
    33 H11     14.7756   4.1317   1.0769   H         1 RES1   0.0000
    34 C16     15.7829   5.7946   1.7202   C.ar      1 RES1   0.0000
    35 C17     17.1479   5.3772   1.5871   C.ar      1 RES1   0.0000
    36 H12     17.3352   4.5063   1.2584   H         1 RES1   0.0000
    37 C18     18.1684   6.1901   1.9182   C.ar      1 RES1   0.0000
    38 H13     19.0617   5.8909   1.7933   H         1 RES1   0.0000
    39 C19     17.9369   7.4953   2.4519   C.ar      1 RES1   0.0000
    40 C20     18.9587   8.3815   2.8655   C.ar      1 RES1   0.0000
    41 H14     19.8723   8.1326   2.7901   H         1 RES1   0.0000
    42 C21     18.6114   9.6034   3.3745   C.ar      1 RES1   0.0000
    43 H15     19.2854  10.2080   3.6655   H         1 RES1   0.0000
    44 C22     17.2627   9.9612   3.4664   C.ar      1 RES1   0.0000
    45 H16     17.0396  10.8106   3.8281   H         1 RES1   0.0000
    46 C23     16.6238   7.9313   2.5850   C.ar      1 RES1   0.0000
    47 C24     15.5435   7.1023   2.1951   C.ar      1 RES1   0.0000
    48 C25     13.8587   7.6688   5.3539   C.ar      1 RES1   0.0000
    49 H17     13.7943   6.9390   4.7495   H         1 RES1   0.0000
    50 C26     13.6911   7.4228   6.7171   C.ar      1 RES1   0.0000
    51 H18     13.4952   6.5447   7.0211   H         1 RES1   0.0000
    52 C27     13.8075   8.4564   7.6208   C.ar      1 RES1   0.0000
    53 H19     13.6880   8.2982   8.5493   H         1 RES1   0.0000
    54 C28     14.1074   9.7489   7.1484   C.ar      1 RES1   0.0000
    55 C29     14.2538  10.9023   7.9861   C.ar      1 RES1   0.0000
    56 H20     14.1582  10.8094   8.9275   H         1 RES1   0.0000
    57 C30     14.5268  12.1307   7.4594   C.ar      1 RES1   0.0000
    58 H21     14.6596  12.8712   8.0391   H         1 RES1   0.0000
    59 C31     14.6186  12.3180   6.0314   C.ar      1 RES1   0.0000
    60 C32     14.8402  13.5438   5.4046   C.ar      1 RES1   0.0000
    61 H22     14.9859  14.3264   5.9242   H         1 RES1   0.0000
    62 C33     14.8501  13.6141   4.0272   C.ar      1 RES1   0.0000
    63 H23     14.9759  14.4463   3.5865   H         1 RES1   0.0000
    64 C34     14.6713  12.4375   3.2932   C.ar      1 RES1   0.0000
    65 H24     14.6772  12.4928   2.3447   H         1 RES1   0.0000
    66 C35     14.4567  11.1950   5.2043   C.ar      1 RES1   0.0000
    67 C36     14.2234   9.9079   5.7616   C.ar      1 RES1   0.0000
    68 Br1     11.5969   4.7814   4.8322   Br        2 RES2   0.0000
    69 Br2     13.8071   3.6662   4.8010   Br        2 RES2  -1.0000
    70 Br3     16.1795   2.5733   4.7316   Br        2 RES2   0.0000
    71 Br4      4.4502   5.4885   5.5227   Br        3 RES3   0.0000
    72 Br4A     4.9308   7.6490   6.2596   Br        3 RES3   0.0000
    73 Br5      9.7135   1.7026   0.2594   Br        4 RES4   0.0000
    74 Br6      9.7027   4.2144   0.9022   Br        4 RES4  -1.0000
    75 Br7      9.6534   6.6375   1.5213   Br        4 RES4   0.0000
@<TRIPOS>BOND
     1     1     2    1
     2     2     8   ar
     3     3     1    1
     4     4     1    1
     5     5     1    1
     6     6     1    1
     7     7     1    1
     8     8     9    1
     9    10     8   ar
    10    11    10    1
    11    12    10   ar
    12    13    12    1
    13    14    12   ar
    14    15    14   ar
    15    16    15    1
    16    17    15   ar
    17    18    17    1
    18    19    17   ar
    19    20    19   ar
    20    21    20    1
    21    22    20   ar
    22    23    22    1
    23    24     3   ar
    24    25    24    1
    25    26     3   ar
    26    27     2   ar
    27    28     4   ar
    28    29    28    1
    29    30    28   ar
    30    31    30    1
    31    32    30   ar
    32    33    32    1
    33    34    32   ar
    34    35    34   ar
    35    36    35    1
    36    37    35   ar
    37    38    37    1
    38    39    37   ar
    39    40    39   ar
    40    41    40    1
    41    42    40   ar
    42    43    42    1
    43    44     5   ar
    44    45    44    1
    45    46     5   ar
    46    47     4   ar
    47    48     6   ar
    48    49    48    1
    49    50    48   ar
    50    51    50    1
    51    52    50   ar
    52    53    52    1
    53    54    52   ar
    54    55    54   ar
    55    56    55    1
    56    57    55   ar
    57    58    57    1
    58    59    57   ar
    59    60    59   ar
    60    61    60    1
    61    62    60   ar
    62    63    62    1
    63    64     7   ar
    64    65    64    1
    65    66     7   ar
    66    67     6   ar
    67    14    27   ar
    68    19    26   ar
    69    22    24   ar
    70    26    27   ar
    71    34    47   ar
    72    39    46   ar
    73    42    44   ar
    74    46    47   ar
    75    54    67   ar
    76    59    66   ar
    77    62    64   ar
    78    66    67   ar
    79    68    69    1
    80    69    70    1
    81    71    72    1
    82    73    74    1
    83    74    75    1
@<TRIPOS>SUBSTRUCTURE
     1 RES1        1 GROUP             0 ****  ****    0  
     2 RES2       68 GROUP             0 ****  ****    0  
     3 RES3       71 GROUP             0 ****  ****    0  
     4 RES4       73 GROUP             0 ****  ****    0  
@<TRIPOS>CRYSIN
   12.4503   13.0003   13.0048   79.5570   65.2040   72.4180     2     1
