@<TRIPOS>MOLECULE
AROQUU
    96   104     4     0     0
SMALL
USER_CHARGES
****
Generated from the CSD

@<TRIPOS>ATOM
     1 Fe1      2.5860   8.4200   3.6916   Fe        1 RES1   2.0000
     2 N1       0.9704   8.9226   4.9717   N.ar      1 RES1   0.0000
     3 N2       1.3072   6.7508   3.4798   N.ar      1 RES1   0.0000
     4 N3       3.6809   7.7707   5.3942   N.ar      1 RES1   0.0000
     5 N4       3.7723  10.1351   4.1442   N.ar      1 RES1   0.0000
     6 N5       1.9150   9.2382   1.8723   N.ar      1 RES1   0.0000
     7 N6       4.0315   7.6762   2.3333   N.ar      1 RES1   0.0000
     8 C1       0.8444   9.9943   5.7343   C.ar      1 RES1   0.0000
     9 H1       1.5053  10.6487   5.6974   H         1 RES1   0.0000
    10 C2      -0.2294  10.1833   6.5792   C.ar      1 RES1   0.0000
    11 H2      -0.2820  10.9518   7.1016   H         1 RES1   0.0000
    12 C3      -1.2204   9.2347   6.6529   C.ar      1 RES1   0.0000
    13 H3      -1.9513   9.3648   7.2121   H         1 RES1   0.0000
    14 C4      -1.1210   8.0632   5.8727   C.ar      1 RES1   0.0000
    15 C5       0.0067   7.9491   5.0663   C.ar      1 RES1   0.0000
    16 C6      -2.1114   7.0201   5.8885   C.ar      1 RES1   0.0000
    17 C7      -1.9276   5.8896   5.1224   C.ar      1 RES1   0.0000
    18 C8      -0.7592   5.7808   4.2704   C.ar      1 RES1   0.0000
    19 C9       0.1796   6.7847   4.2442   C.ar      1 RES1   0.0000
    20 C10     -0.5491   4.6931   3.4079   C.ar      1 RES1   0.0000
    21 H4      -1.1622   3.9941   3.3939   H         1 RES1   0.0000
    22 C11      0.5460   4.6485   2.5893   C.ar      1 RES1   0.0000
    23 H5       0.6751   3.9460   1.9950   H         1 RES1   0.0000
    24 C12      1.4666   5.7077   2.6839   C.ar      1 RES1   0.0000
    25 H6       2.2316   5.6703   2.1563   H         1 RES1   0.0000
    26 C13     -2.8863   4.7448   5.1417   C.3       1 RES1   0.0000
    27 H7      -3.5149   4.8643   5.8570   H         1 RES1   0.0000
    28 H8      -2.4039   3.9246   5.2732   H         1 RES1   0.0000
    29 H9      -3.3576   4.7074   4.3055   H         1 RES1   0.0000
    30 C14     -3.3720   7.2572   6.7072   C.3       1 RES1   0.0000
    31 H10     -3.7674   8.0935   6.4530   H         1 RES1   0.0000
    32 H11     -3.1474   7.2804   7.6416   H         1 RES1   0.0000
    33 H12     -3.9960   6.5458   6.5477   H         1 RES1   0.0000
    34 C15      3.6396   6.5689   5.9709   C.ar      1 RES1   0.0000
    35 H13      3.0587   5.9288   5.6291   H         1 RES1   0.0000
    36 C16      4.4289   6.2373   7.0631   C.ar      1 RES1   0.0000
    37 H14      4.3791   5.3921   7.4470   H         1 RES1   0.0000
    38 C17      5.2828   7.1841   7.5592   C.ar      1 RES1   0.0000
    39 H15      5.8286   6.9630   8.2797   H         1 RES1   0.0000
    40 C18      5.3634   8.4822   7.0192   C.ar      1 RES1   0.0000
    41 C19      4.5422   8.7158   5.9183   C.ar      1 RES1   0.0000
    42 C20      6.2080   9.5342   7.5259   C.ar      1 RES1   0.0000
    43 C21      6.2134  10.7503   6.9000   C.ar      1 RES1   0.0000
    44 C22      5.4255  10.9910   5.7185   C.ar      1 RES1   0.0000
    45 C23      4.5774   9.9800   5.2311   C.ar      1 RES1   0.0000
    46 C24      5.4447  12.1804   4.9962   C.ar      1 RES1   0.0000
    47 H16      5.9848  12.8811   5.2820   H         1 RES1   0.0000
    48 C25      4.6777  12.3319   3.8708   C.ar      1 RES1   0.0000
    49 H17      4.7155  13.1183   3.3746   H         1 RES1   0.0000
    50 C26      3.8410  11.2835   3.4781   C.ar      1 RES1   0.0000
    51 H18      3.3103  11.3922   2.7225   H         1 RES1   0.0000
    52 C27      7.0499   9.2507   8.7390   C.3       1 RES1   0.0000
    53 H19      7.8498   9.7821   8.7039   H         1 RES1   0.0000
    54 H20      7.2861   8.3199   8.7530   H         1 RES1   0.0000
    55 H21      6.5540   9.4700   9.5314   H         1 RES1   0.0000
    56 C28      7.0635  11.9004   7.4172   C.3       1 RES1   0.0000
    57 H22      7.3713  11.6971   8.3042   H         1 RES1   0.0000
    58 H23      6.5389  12.7028   7.4365   H         1 RES1   0.0000
    59 H24      7.8193  12.0252   6.8369   H         1 RES1   0.0000
    60 C29      0.8571  10.0228   1.6637   C.ar      1 RES1   0.0000
    61 H25      0.3012  10.2207   2.3824   H         1 RES1   0.0000
    62 C30      0.5502  10.5577   0.4155   C.ar      1 RES1   0.0000
    63 H26     -0.1757  11.1283   0.3103   H         1 RES1   0.0000
    64 C31      1.3376  10.2279  -0.6609   C.ar      1 RES1   0.0000
    65 H27      1.1307  10.5702  -1.5006   H         1 RES1   0.0000
    66 C32      2.4623   9.3738  -0.5119   C.ar      1 RES1   0.0000
    67 C33      2.6881   8.9262   0.8064   C.ar      1 RES1   0.0000
    68 C34      3.3439   8.9904  -1.5795   C.ar      1 RES1   0.0000
    69 C35      4.4715   8.2682  -1.3095   C.ar      1 RES1   0.0000
    70 C36      4.7321   7.7707   0.0158   C.ar      1 RES1   0.0000
    71 C37      3.8627   8.1095   1.0571   C.ar      1 RES1   0.0000
    72 C38      5.8290   6.9577   0.3313   C.ar      1 RES1   0.0000
    73 H28      6.4387   6.7152  -0.3278   H         1 RES1   0.0000
    74 C39      5.9958   6.5190   1.6321   C.ar      1 RES1   0.0000
    75 H29      6.7125   5.9716   1.8565   H         1 RES1   0.0000
    76 C40      5.0851   6.9077   2.5858   C.ar      1 RES1   0.0000
    77 H30      5.2139   6.6153   3.4588   H         1 RES1   0.0000
    78 C41      2.9919   9.4005  -2.9767   C.3       1 RES1   0.0000
    79 H31      3.3783  10.2582  -3.1660   H         1 RES1   0.0000
    80 H32      2.0377   9.4522  -3.0643   H         1 RES1   0.0000
    81 H33      3.3359   8.7515  -3.5973   H         1 RES1   0.0000
    82 C42      5.4848   7.9312  -2.4105   C.3       1 RES1   0.0000
    83 H34      5.3047   7.0539  -2.7541   H         1 RES1   0.0000
    84 H35      6.3729   7.9580  -2.0476   H         1 RES1   0.0000
    85 H36      5.4097   8.5731  -3.1204   H         1 RES1   0.0000
    86 Cl1      7.5664   4.4964   9.3673   Cl        2 RES2   0.0000
    87 O1       6.8335   4.0744   8.2043   O.3       2 RES2  -1.0000
    88 O2       6.9984   5.6952   9.8925   O.2       2 RES2   0.0000
    89 O3       7.5116   3.4824  10.3746   O.2       2 RES2   0.0000
    90 O4       8.9311   4.7609   9.0230   O.2       2 RES2   0.0000
    91 Cl2      9.8269  12.7973   1.7417   Cl        3 RES3   0.0000
    92 O5       8.5050  12.6065   2.2316   O.3       3 RES3  -1.0000
    93 O6      10.7773  12.0734   2.5402   O.2       3 RES3   0.0000
    94 O7       9.9145  12.3194   0.3874   O.2       3 RES3   0.0000
    95 O8      10.1219  14.2202   1.7864   O.2       3 RES3   0.0000
    96 O9       8.6893  15.2384  17.5201   O.3       4 RES4   0.0000
@<TRIPOS>BOND
     1     1     2    1
     2     2     8   ar
     3     3     1    1
     4     4     1    1
     5     5     1    1
     6     6     1    1
     7     7     1    1
     8     8     9    1
     9    10     8   ar
    10    11    10    1
    11    12    10   ar
    12    13    12    1
    13    14    12   ar
    14    15     2   ar
    15    16    14   ar
    16    17    16   ar
    17    18    17   ar
    18    19     3   ar
    19    20    18   ar
    20    21    20    1
    21    22    20   ar
    22    23    22    1
    23    24     3   ar
    24    25    24    1
    25    26    17    1
    26    27    26    1
    27    28    26    1
    28    29    26    1
    29    30    16    1
    30    31    30    1
    31    32    30    1
    32    33    30    1
    33    34     4   ar
    34    35    34    1
    35    36    34   ar
    36    37    36    1
    37    38    36   ar
    38    39    38    1
    39    40    38   ar
    40    41     4   ar
    41    42    40   ar
    42    43    42   ar
    43    44    43   ar
    44    45     5   ar
    45    46    44   ar
    46    47    46    1
    47    48    46   ar
    48    49    48    1
    49    50     5   ar
    50    51    50    1
    51    52    42    1
    52    53    52    1
    53    54    52    1
    54    55    52    1
    55    56    43    1
    56    57    56    1
    57    58    56    1
    58    59    56    1
    59    60     6   ar
    60    61    60    1
    61    62    60   ar
    62    63    62    1
    63    64    62   ar
    64    65    64    1
    65    66    64   ar
    66    67     6   ar
    67    68    66   ar
    68    69    68   ar
    69    70    69   ar
    70    71     7   ar
    71    72    70   ar
    72    73    72    1
    73    74    72   ar
    74    75    74    1
    75    76     7   ar
    76    77    76    1
    77    78    68    1
    78    79    78    1
    79    80    78    1
    80    81    78    1
    81    82    69    1
    82    83    82    1
    83    84    82    1
    84    85    82    1
    85    14    15   ar
    86    15    19   ar
    87    18    19   ar
    88    22    24   ar
    89    40    41   ar
    90    41    45   ar
    91    44    45   ar
    92    48    50   ar
    93    66    67   ar
    94    67    71   ar
    95    70    71   ar
    96    74    76   ar
    97    86    87    1
    98    88    86    2
    99    89    86    2
   100    90    86    2
   101    91    92    1
   102    93    91    2
   103    94    91    2
   104    95    91    2
@<TRIPOS>SUBSTRUCTURE
     1 RES1        1 GROUP             0 ****  ****    0  
     2 RES2       86 GROUP             0 ****  ****    0  
     3 RES3       91 GROUP             0 ****  ****    0  
     4 RES4       96 GROUP             0 ****  ****    0  
@<TRIPOS>CRYSIN
   12.4375   17.8310   17.8172   90.0000  100.2910   90.0000    14     1
