@<TRIPOS>MOLECULE
AROVUA
   120   135     1     0     0
SMALL
NO_CHARGES
****
Generated from the CSD

@<TRIPOS>ATOM
     1 Fe1      1.2145   6.1959   4.7124   Fe        1 RES1   0.0000
     2 C1       3.2265   4.4076   6.1011   C.2       1 RES1   0.0000
     3 C2       4.5735   4.4008   6.6297   C.2       1 RES1   0.0000
     4 H1       5.0354   3.6565   7.0004   H         1 RES1   0.0000
     5 C3       5.0466   5.6540   6.4920   C.2       1 RES1   0.0000
     6 H2       5.9083   5.9643   6.7435   H         1 RES1   0.0000
     7 C4       3.9905   6.4378   5.8863   C.2       1 RES1   0.0000
     8 C5       4.1120   7.7920   5.6018   C.2       1 RES1   0.0000
     9 C6       3.1103   8.5524   4.9998   C.2       1 RES1   0.0000
    10 C7       3.2212   9.9557   4.7190   C.2       1 RES1   0.0000
    11 H3       3.9629  10.5132   4.9209   H         1 RES1   0.0000
    12 C8       2.0726  10.3406   4.1114   C.2       1 RES1   0.0000
    13 H4       1.8489  11.2136   3.8122   H         1 RES1   0.0000
    14 C9       1.2527   9.1490   4.0141   C.2       1 RES1   0.0000
    15 C10      0.0007   9.1170   3.3809   C.2       1 RES1   0.0000
    16 C11     -0.7703   7.9705   3.2561   C.2       1 RES1   0.0000
    17 C12     -2.0475   7.9270   2.5788   C.2       1 RES1   0.0000
    18 H5      -2.4838   8.6511   2.1475   H         1 RES1   0.0000
    19 C13     -2.4986   6.6594   2.6779   C.2       1 RES1   0.0000
    20 H6      -3.3151   6.3220   2.3292   H         1 RES1   0.0000
    21 C14     -1.5020   5.9084   3.4176   C.2       1 RES1   0.0000
    22 C15     -1.6083   4.5582   3.7040   C.2       1 RES1   0.0000
    23 C16     -0.6540   3.8243   4.4088   C.2       1 RES1   0.0000
    24 C17     -0.7569   2.4205   4.6878   C.2       1 RES1   0.0000
    25 H7      -1.4778   1.8503   4.4492   H         1 RES1   0.0000
    26 C18      0.3548   2.0657   5.3504   C.2       1 RES1   0.0000
    27 H8       0.5732   1.1967   5.6661   H         1 RES1   0.0000
    28 C19      1.1552   3.2583   5.4880   C.2       1 RES1   0.0000
    29 C20      2.4162   3.2777   6.0662   C.2       1 RES1   0.0000
    30 C21      5.4074   8.4459   5.9616   C.ar      1 RES1   0.0000
    31 C22      6.5245   8.3673   5.1430   C.ar      1 RES1   0.0000
    32 C23      7.7563   8.8829   5.4642   C.ar      1 RES1   0.0000
    33 H9       8.4954   8.7941   4.8731   H         1 RES1   0.0000
    34 C24      7.8814   9.5427   6.6829   C.ar      1 RES1   0.0000
    35 H10      8.7055   9.9582   6.9087   H         1 RES1   0.0000
    36 C25      6.8242   9.5982   7.5731   C.ar      1 RES1   0.0000
    37 H11      6.9188  10.0054   8.4266   H         1 RES1   0.0000
    38 C26      5.6289   9.0420   7.1785   C.ar      1 RES1   0.0000
    39 C27     -0.5315  10.3871   2.8064   C.ar      1 RES1   0.0000
    40 C28     -0.0096  10.9878   1.6813   C.ar      1 RES1   0.0000
    41 C29     -0.4832  12.1404   1.1270   C.ar      1 RES1   0.0000
    42 H12     -0.0793  12.5055   0.3487   H         1 RES1   0.0000
    43 C30     -1.5633  12.7665   1.7217   C.ar      1 RES1   0.0000
    44 H13     -1.9077  13.5732   1.3564   H         1 RES1   0.0000
    45 C31     -2.1392  12.2161   2.8431   C.ar      1 RES1   0.0000
    46 H14     -2.8859  12.6320   3.2561   H         1 RES1   0.0000
    47 C32     -1.6169  11.0566   3.3534   C.ar      1 RES1   0.0000
    48 C33      2.9392   2.0178   6.6958   C.ar      1 RES1   0.0000
    49 C34      3.9214   1.2392   6.1359   C.ar      1 RES1   0.0000
    50 C35      4.3766   0.0644   6.6902   C.ar      1 RES1   0.0000
    51 H15      5.0622  -0.4432   6.2718   H         1 RES1   0.0000
    52 C36      3.8000  -0.3567   7.8815   C.ar      1 RES1   0.0000
    53 H16      4.0750  -1.1787   8.2687   H         1 RES1   0.0000
    54 C37      2.8412   0.3954   8.5055   C.ar      1 RES1   0.0000
    55 H17      2.4652   0.1241   9.3333   H         1 RES1   0.0000
    56 C38      2.4436   1.5512   7.8943   C.ar      1 RES1   0.0000
    57 C39     -0.4476   7.7699   6.7765   C.2       1 RES1   0.0000
    58 H18     -0.5409   8.5388   6.2277   H         1 RES1   0.0000
    59 C40     -1.0487   7.5958   7.9842   C.2       1 RES1   0.0000
    60 H19     -1.6395   8.2068   8.4082   H         1 RES1   0.0000
    61 C41      0.1746   5.8765   7.5529   C.2       1 RES1   0.0000
    62 H20      0.6106   5.0398   7.6594   H         1 RES1   0.0000
    63 C42     -1.2329   5.7282   9.6233   C.3       1 RES1   0.0000
    64 H21     -1.3264   6.3654  10.3759   H         1 RES1   0.0000
    65 H22     -0.6160   5.0065   9.9096   H         1 RES1   0.0000
    66 C43     -2.5611   5.1431   9.3039   C.ar      1 RES1   0.0000
    67 C44     -3.5145   5.0790  10.3190   C.ar      1 RES1   0.0000
    68 H23     -3.3202   5.4395  11.1761   H         1 RES1   0.0000
    69 C45     -4.7695   4.4779  10.0712   C.ar      1 RES1   0.0000
    70 H24     -5.4342   4.4723  10.7521   H         1 RES1   0.0000
    71 C46     -5.0363   3.8958   8.8432   C.ar      1 RES1   0.0000
    72 H25     -5.8645   3.4572   8.6927   H         1 RES1   0.0000
    73 C47     -4.0858   3.9576   7.8282   C.ar      1 RES1   0.0000
    74 C48     -2.8647   4.5867   8.0834   C.ar      1 RES1   0.0000
    75 H26     -2.2204   4.6338   7.3859   H         1 RES1   0.0000
    76 C49     -4.4034   3.2788   6.5306   C.2       1 RES1   0.0000
    77 C50     -3.7899   3.3263   4.0802   C.ar      1 RES1   0.0000
    78 C51     -4.7958   2.4802   3.6030   C.ar      1 RES1   0.0000
    79 H27     -5.4676   2.1555   4.1904   H         1 RES1   0.0000
    80 C52     -4.8060   2.1204   2.2650   C.ar      1 RES1   0.0000
    81 H28     -5.4825   1.5336   1.9474   H         1 RES1   0.0000
    82 C53     -3.8578   2.5969   1.3803   C.ar      1 RES1   0.0000
    83 H29     -3.8936   2.3616   0.4607   H         1 RES1   0.0000
    84 C54     -2.8549   3.4220   1.8538   C.ar      1 RES1   0.0000
    85 H30     -2.1937   3.7461   1.2536   H         1 RES1   0.0000
    86 C55     -2.7967   3.7852   3.2029   C.ar      1 RES1   0.0000
    87 C56      1.9662   5.6548   3.1423   C.1       1 RES1   0.0000
    88 C57      3.0846   4.6257   1.0939   C.ar      1 RES1   0.0000
    89 C58      2.3520   4.2651  -0.0385   C.ar      1 RES1   0.0000
    90 C59      3.0613   3.7027  -1.0884   C.ar      1 RES1   0.0000
    91 H31      2.5994   3.4547  -1.8813   H         1 RES1   0.0000
    92 C60      4.4185   3.4968  -1.0077   C.ar      1 RES1   0.0000
    93 H32      4.8804   3.1026  -1.7382   H         1 RES1   0.0000
    94 C61      5.1150   3.8597   0.1322   C.ar      1 RES1   0.0000
    95 H33      6.0540   3.7200   0.1707   H         1 RES1   0.0000
    96 C62      4.4640   4.4249   1.2206   C.ar      1 RES1   0.0000
    97 C63      0.8798   4.4901  -0.0881   C.3       1 RES1   0.0000
    98 H34      0.4509   4.0060   0.6498   H         1 RES1   0.0000
    99 H35      0.5280   4.1623  -0.9416   H         1 RES1   0.0000
   100 H36      0.6922   5.4481  -0.0018   H         1 RES1   0.0000
   101 C64      5.1737   4.7936   2.4944   C.3       1 RES1   0.0000
   102 H37      6.1386   4.6732   2.3788   H         1 RES1   0.0000
   103 H38      4.8574   4.2191   3.2231   H         1 RES1   0.0000
   104 H39      4.9859   5.7301   2.7128   H         1 RES1   0.0000
   105 N1       2.8878   5.6561   5.6624   N.2       1 RES1   0.0000
   106 N2       1.8977   8.0694   4.5630   N.2       1 RES1   0.0000
   107 N3      -0.4488   6.7317   3.7590   N.2       1 RES1   0.0000
   108 N4       0.5173   4.3316   4.9190   N.2       1 RES1   0.0000
   109 N5       0.3115   6.6744   6.4718   N.2       1 RES1   0.0000
   110 N6      -0.6648   6.4219   8.4633   N.pl3     1 RES1   0.0000
   111 N7      -3.7404   3.7591   5.4054   N.am      1 RES1   0.0000
   112 H40     -3.2067   4.4424   5.5541   H         1 RES1   0.0000
   113 N8       2.4104   5.1932   2.1713   N.1       1 RES1   0.0000
   114 O1      -5.2293   2.3744   6.4773   O.2       1 RES1   0.0000
   115 F1       6.4041   7.7079   3.9517   F         1 RES1   0.0000
   116 F2       4.5867   9.0766   8.0393   F         1 RES1   0.0000
   117 F3       1.0505  10.3855   1.0781   F         1 RES1   0.0000
   118 F4      -2.1753  10.5308   4.4745   F         1 RES1   0.0000
   119 F5       4.4978   1.6382   4.9515   F         1 RES1   0.0000
   120 F6       1.5087   2.3143   8.5024   F         1 RES1   0.0000
@<TRIPOS>BOND
     1     1    87    1
     2     2     3    1
     3     3     4    1
     4     5     3    2
     5     6     5    1
     6     7     5    1
     7     8     7    2
     8     9     8    1
     9    10     9    2
    10    11    10    1
    11    12    10    1
    12    13    12    1
    13    14    12    2
    14    15    14    1
    15    16    15    2
    16    17    16    1
    17    18    17    1
    18    19    17    2
    19    20    19    1
    20    21    19    1
    21    22    21    1
    22    23    22    2
    23    24    23    1
    24    25    24    1
    25    26    24    2
    26    27    26    1
    27    28    26    1
    28    29     2    1
    29    30     8    1
    30    31    30   ar
    31    32    31   ar
    32    33    32    1
    33    34    32   ar
    34    35    34    1
    35    36    34   ar
    36    37    36    1
    37    38    30   ar
    38    39    15    1
    39    40    39   ar
    40    41    40   ar
    41    42    41    1
    42    43    41   ar
    43    44    43    1
    44    45    43   ar
    45    46    45    1
    46    47    39   ar
    47    48    29    1
    48    49    48   ar
    49    50    49   ar
    50    51    50    1
    51    52    50   ar
    52    53    52    1
    53    54    52   ar
    54    55    54    1
    55    56    48   ar
    56    57    58    1
    57    59    57    2
    58    60    59    1
    59    61    62    1
    60    63    64    1
    61    65    63    1
    62    66    63    1
    63    67    66   ar
    64    68    67    1
    65    69    67   ar
    66    70    69    1
    67    71    69   ar
    68    72    71    1
    69    73    71   ar
    70    74    66   ar
    71    75    74    1
    72    76    73    1
    73    77    78   ar
    74    78    79    1
    75    80    78   ar
    76    81    80    1
    77    82    80   ar
    78    83    82    1
    79    84    82   ar
    80    85    84    1
    81    86    22    1
    82    87   113    3
    83    88    89   ar
    84    89    90   ar
    85    90    91    1
    86    92    90   ar
    87    93    92    1
    88    94    92   ar
    89    95    94    1
    90    96    88   ar
    91    97    89    1
    92    98    97    1
    93    99    97    1
    94   100    97    1
    95   101    96    1
    96   102   101    1
    97   103   101    1
    98   104   101    1
    99   105     1    1
   100   106     1    1
   101   107     1    1
   102   108     1    1
   103   109     1    1
   104   110    59    1
   105   111    76   am
   106   112   111    1
   107   113    88    1
   108   114    76    2
   109   115    31    1
   110   116    38    1
   111   117    40    1
   112   118    47    1
   113   119    49    1
   114   120    56    1
   115     2   105    2
   116     7   105    1
   117     9   106    1
   118    14   106    1
   119    16   107    1
   120    21   107    2
   121    23   108    1
   122    28    29    2
   123    28   108    1
   124    36    38   ar
   125    45    47   ar
   126    54    56   ar
   127    57   109    1
   128    61   109    2
   129    61   110    1
   130    63   110    1
   131    73    74   ar
   132    77    86   ar
   133    77   111    1
   134    84    86   ar
   135    94    96   ar
@<TRIPOS>SUBSTRUCTURE
     1 RES1        1 GROUP             0 ****  ****    0  
@<TRIPOS>CRYSIN
   12.3852   12.5816   19.3657  104.4240   95.2930  111.8230     2     1
