@<TRIPOS>MOLECULE
AROZIS
    90    99     3     0     0
SMALL
USER_CHARGES
****
Generated from the CSD

@<TRIPOS>ATOM
     1 Fe1      3.0116  13.0621   4.2883   Fe        1 RES1   2.0000
     2 N1       1.2892  14.8563   6.1800   N.pl3     1 RES1   0.0000
     3 N2       1.6208  13.6828   5.5932   N.2       1 RES1   0.0000
     4 N3       2.2190  10.8596   5.9716   N.pl3     1 RES1   0.0000
     5 N4       3.3020  11.5647   5.5422   N.2       1 RES1   0.0000
     6 N5       0.7277  11.3047   4.1821   N.pl3     1 RES1   0.0000
     7 N6       1.5722  12.0336   3.4118   N.2       1 RES1   0.0000
     8 C1       0.2600  14.6787   7.0345   C.2       1 RES1   0.0000
     9 H1      -0.1436  15.3558   7.5663   H         1 RES1   0.0000
    10 C2      -0.1037  13.3544   7.0062   C.2       1 RES1   0.0000
    11 H2      -0.7963  12.9289   7.4985   H         1 RES1   0.0000
    12 C3       0.7680  12.7787   6.0988   C.2       1 RES1   0.0000
    13 C4       2.5839   9.8509   6.7927   C.2       1 RES1   0.0000
    14 H3       2.0045   9.2271   7.2146   H         1 RES1   0.0000
    15 C5       3.9490   9.8972   6.9007   C.2       1 RES1   0.0000
    16 H4       4.5038   9.3159   7.4085   H         1 RES1   0.0000
    17 C6       4.3567  10.9748   6.1100   C.2       1 RES1   0.0000
    18 H5       5.2589  11.2491   5.9925   H         1 RES1   0.0000
    19 C7      -0.1951  10.6602   3.4349   C.2       1 RES1   0.0000
    20 H6      -0.8913  10.0996   3.7548   H         1 RES1   0.0000
    21 C8       0.0674  10.9737   2.1296   C.2       1 RES1   0.0000
    22 H7      -0.4041  10.6717   1.3620   H         1 RES1   0.0000
    23 C9       1.1732  11.8277   2.1562   C.2       1 RES1   0.0000
    24 H8       1.5825  12.2078   1.3877   H         1 RES1   0.0000
    25 C10      0.9001  11.3606   5.6220   C.3       1 RES1   0.0000
    26 H9       0.2025  10.7945   6.0628   H         1 RES1   0.0000
    27 C11      2.0274  16.1121   5.9427   C.3       1 RES1   0.0000
    28 H10      2.4370  16.0925   5.0422   H         1 RES1   0.0000
    29 H11      2.7522  16.2048   6.6109   H         1 RES1   0.0000
    30 C12      1.0842  17.2877   6.0499   C.ar      1 RES1   0.0000
    31 C13      1.1785  18.1704   7.1169   C.ar      1 RES1   0.0000
    32 H12      1.8593  18.0518   7.7678   H         1 RES1   0.0000
    33 C14      0.2835  19.2251   7.2378   C.ar      1 RES1   0.0000
    34 H13      0.3533  19.8230   7.9728   H         1 RES1   0.0000
    35 C15     -0.7064  19.4085   6.2952   C.ar      1 RES1   0.0000
    36 H14     -1.3215  20.1261   6.3827   H         1 RES1   0.0000
    37 C16     -0.7999  18.5372   5.2189   C.ar      1 RES1   0.0000
    38 H15     -1.4778  18.6631   4.5653   H         1 RES1   0.0000
    39 C17      0.0916  17.4841   5.0928   C.ar      1 RES1   0.0000
    40 H16      0.0263  16.8945   4.3509   H         1 RES1   0.0000
    41 N1B      4.7340  11.2679   2.3966   N.pl3     1 RES1   0.0000
    42 N2B      4.4024  12.4414   2.9834   N.2       1 RES1   0.0000
    43 N3B      3.8042  15.2646   2.6051   N.pl3     1 RES1   0.0000
    44 N4B      2.7212  14.5595   3.0344   N.2       1 RES1   0.0000
    45 N5B      5.2955  14.8195   4.3945   N.pl3     1 RES1   0.0000
    46 N6B      4.4510  14.0906   5.1648   N.2       1 RES1   0.0000
    47 C1B      5.7632  11.4455   1.5421   C.2       1 RES1   0.0000
    48 H1B      6.1668  10.7684   1.0103   H         1 RES1   0.0000
    49 C2B      6.1269  12.7698   1.5704   C.2       1 RES1   0.0000
    50 H2B      6.8195  13.1953   1.0781   H         1 RES1   0.0000
    51 C3B      5.2552  13.3455   2.4778   C.2       1 RES1   0.0000
    52 C4B      3.4393  16.2733   1.7839   C.2       1 RES1   0.0000
    53 H3B      4.0187  16.8971   1.3620   H         1 RES1   0.0000
    54 C5B      2.0743  16.2270   1.6759   C.2       1 RES1   0.0000
    55 H4B      1.5194  16.8083   1.1681   H         1 RES1   0.0000
    56 C6B      1.6665  15.1494   2.4666   C.2       1 RES1   0.0000
    57 H5B      0.7643  14.8751   2.5841   H         1 RES1   0.0000
    58 C7B      6.2183  15.4640   5.1417   C.2       1 RES1   0.0000
    59 H6B      6.9145  16.0246   4.8218   H         1 RES1   0.0000
    60 C8B      5.9559  15.1505   6.4470   C.2       1 RES1   0.0000
    61 H7B      6.4273  15.4525   7.2146   H         1 RES1   0.0000
    62 C9B      4.8501  14.2965   6.4205   C.2       1 RES1   0.0000
    63 H8B      4.4407  13.9164   7.1889   H         1 RES1   0.0000
    64 C10B     5.1231  14.7636   2.9546   C.3       1 RES1   0.0000
    65 H9B      5.8208  15.3297   2.5138   H         1 RES1   0.0000
    66 C11B     3.9958  10.0121   2.6339   C.3       1 RES1   0.0000
    67 H10B     3.5862  10.0317   3.5344   H         1 RES1   0.0000
    68 H11B     3.2710   9.9194   1.9658   H         1 RES1   0.0000
    69 C12B     4.9390   8.8365   2.5267   C.ar      1 RES1   0.0000
    70 C13B     4.8447   7.9538   1.4597   C.ar      1 RES1   0.0000
    71 H12B     4.1639   8.0724   0.8088   H         1 RES1   0.0000
    72 C14B     5.7398   6.8991   1.3388   C.ar      1 RES1   0.0000
    73 H13B     5.6699   6.3012   0.6038   H         1 RES1   0.0000
    74 C15B     6.7296   6.7157   2.2814   C.ar      1 RES1   0.0000
    75 H14B     7.3447   5.9981   2.1939   H         1 RES1   0.0000
    76 C16B     6.8231   7.5870   3.3577   C.ar      1 RES1   0.0000
    77 H15B     7.5010   7.4611   4.0113   H         1 RES1   0.0000
    78 C17B     5.9316   8.6401   3.4838   C.ar      1 RES1   0.0000
    79 H16B     5.9969   9.2297   4.2257   H         1 RES1   0.0000
    80 F1      -1.7489   9.4988   6.1385   F         2 RES2   0.0000
    81 F2      -0.4790   9.7671   8.0014   F         2 RES2   0.0000
    82 F3      -2.5315   8.7856   8.1495   F         2 RES2   0.0000
    83 F4      -2.3495  11.0103   7.7147   F         2 RES2   0.0000
    84 B1      -1.7853   9.7582   7.5071   B         2 RES2  -1.0000
    85 N7      -0.2210   4.9299   8.6161   N.1       3 RES3   0.0000
    86 C18     -0.2978   5.5321   7.6598   C.1       3 RES3   0.0000
    87 C19     -0.3997   6.3077   6.4470   C.3       3 RES3   0.0000
    88 H17     -0.6503   5.7212   5.7034   H         3 RES3   0.0000
    89 H18      0.4646   6.7270   6.2541   H         3 RES3   0.0000
    90 H19     -1.0818   7.0013   6.5594   H         3 RES3   0.0000
@<TRIPOS>BOND
     1     1     3    1
     2     2     3    1
     3     3    12    2
     4     4     5    1
     5     5     1    1
     6     6     7    1
     7     7     1    1
     8     8     2    1
     9     9     8    1
    10    10     8    2
    11    11    10    1
    12    12    10    1
    13    13     4    1
    14    14    13    1
    15    15    13    2
    16    16    15    1
    17    17     5    2
    18    18    17    1
    19    19     6    1
    20    20    19    1
    21    21    19    2
    22    22    21    1
    23    23     7    2
    24    24    23    1
    25    25     4    1
    26    26    25    1
    27    27     2    1
    28    28    27    1
    29    29    27    1
    30    30    27    1
    31    31    30   ar
    32    32    31    1
    33    33    31   ar
    34    34    33    1
    35    35    33   ar
    36    36    35    1
    37    37    35   ar
    38    38    37    1
    39    39    30   ar
    40    40    39    1
    41    41    42    1
    42    42     1    1
    43    43    44    1
    44    44     1    1
    45    45    46    1
    46    46     1    1
    47    47    41    1
    48    48    47    1
    49    49    47    2
    50    50    49    1
    51    51    42    2
    52    52    43    1
    53    53    52    1
    54    54    52    2
    55    55    54    1
    56    56    44    2
    57    57    56    1
    58    58    45    1
    59    59    58    1
    60    60    58    2
    61    61    60    1
    62    62    46    2
    63    63    62    1
    64    64    43    1
    65    65    64    1
    66    66    41    1
    67    67    66    1
    68    68    66    1
    69    69    66    1
    70    70    69   ar
    71    71    70    1
    72    72    70   ar
    73    73    72    1
    74    74    72   ar
    75    75    74    1
    76    76    74   ar
    77    77    76    1
    78    78    69   ar
    79    79    78    1
    80     6    25    1
    81    12    25    1
    82    15    17    1
    83    21    23    1
    84    37    39   ar
    85    45    64    1
    86    49    51    1
    87    51    64    1
    88    54    56    1
    89    60    62    1
    90    76    78   ar
    91    80    84    1
    92    81    84    1
    93    82    84    1
    94    83    84    1
    95    85    86    3
    96    86    87    1
    97    87    88    1
    98    89    87    1
    99    90    87    1
@<TRIPOS>SUBSTRUCTURE
     1 RES1        1 GROUP             0 ****  ****    0  
     2 RES2       80 GROUP             0 ****  ****    0  
     3 RES3       85 GROUP             0 ****  ****    0  
@<TRIPOS>CRYSIN
    9.3961   26.1242    9.2160   90.0000  111.4680   90.0000    14     1
