@<TRIPOS>MOLECULE
ARUQUC
   133   137     2     0     0
SMALL
USER_CHARGES
****
Generated from the CSD

@<TRIPOS>ATOM
     1 Fe1      8.2834   6.6125   7.0994   Fe        1 RES1   1.0000
     2 H1       8.9145   7.5571   6.0747   H         1 RES1   0.0000
     3 P1       6.5108   7.9173   6.8185   P.3       1 RES1   0.0000
     4 P2      10.1016   5.3956   6.7575   P.3       1 RES1   0.0000
     5 N1       7.5591   5.6219   5.3896   N.3       1 RES1   0.0000
     6 H2       7.1996   4.9931   5.7299   H         1 RES1   0.0000
     7 N2       9.4703   8.1202   9.3751   N.1       1 RES1   0.0000
     8 N3       7.1022   4.9283   9.3215   N.1       1 RES1   0.0000
     9 C1       5.5914   7.0956   5.4285   C.3       1 RES1   0.0000
    10 H3       4.9556   6.4276   5.7855   H         1 RES1   0.0000
    11 H4       5.0834   7.7676   4.9091   H         1 RES1   0.0000
    12 C2       6.6171   6.4249   4.5539   C.3       1 RES1   0.0000
    13 H5       6.1625   5.8325   3.9037   H         1 RES1   0.0000
    14 H6       7.1219   7.1104   4.0483   H         1 RES1   0.0000
    15 C3       8.6252   5.1159   4.4898   C.3       1 RES1   0.0000
    16 H7       9.0439   5.8743   4.0105   H         1 RES1   0.0000
    17 H8       8.2302   4.5059   3.8170   H         1 RES1   0.0000
    18 C4       9.6673   4.3845   5.2801   C.3       1 RES1   0.0000
    19 H9      10.4725   4.2374   4.7223   H         1 RES1   0.0000
    20 H10      9.3190   3.5019   5.5653   H         1 RES1   0.0000
    21 C5       6.6689   9.6839   6.3056   C.3       1 RES1   0.0000
    22 H11      5.7661  10.1076   6.3861   H         1 RES1   0.0000
    23 C6       7.1203   9.8256   4.8646   C.3       1 RES1   0.0000
    24 H12      6.5023   9.3411   4.2774   H         1 RES1   0.0000
    25 H13      8.0231   9.4545   4.7668   H         1 RES1   0.0000
    26 H14      7.1300  10.7742   4.6177   H         1 RES1   0.0000
    27 C7       7.6251  10.4477   7.2069   C.3       1 RES1   0.0000
    28 H15      7.4099  10.2614   8.1433   H         1 RES1   0.0000
    29 H16      7.5361  11.4085   7.0356   H         1 RES1   0.0000
    30 H17      8.5456  10.1656   7.0200   H         1 RES1   0.0000
    31 C8       5.1529   7.9080   8.1073   C.3       1 RES1   0.0000
    32 H18      4.9572   6.9458   8.2968   H         1 RES1   0.0000
    33 C9       3.8344   8.5287   7.6608   C.3       1 RES1   0.0000
    34 H19      3.5723   8.1522   6.7954   H         1 RES1   0.0000
    35 H20      3.9412   9.4990   7.5761   H         1 RES1   0.0000
    36 H21      3.1403   8.3330   8.3235   H         1 RES1   0.0000
    37 C10      5.6270   8.5112   9.4319   C.3       1 RES1   0.0000
    38 H22      6.4262   8.0348   9.7404   H         1 RES1   0.0000
    39 H23      4.9184   8.4262  10.1030   H         1 RES1   0.0000
    40 H24      5.8422   9.4585   9.3022   H         1 RES1   0.0000
    41 C11     11.7241   6.1658   6.3004   C.3       1 RES1   0.0000
    42 H25     12.3865   5.4249   6.1926   H         1 RES1   0.0000
    43 C12     11.6536   6.9093   4.9690   C.3       1 RES1   0.0000
    44 H26     11.3381   6.2994   4.2707   H         1 RES1   0.0000
    45 H27     12.5450   7.2427   4.7334   H         1 RES1   0.0000
    46 H28     11.0339   7.6637   5.0493   H         1 RES1   0.0000
    47 C13     12.2587   7.0996   7.3715   C.3       1 RES1   0.0000
    48 H29     12.2991   6.6246   8.2278   H         1 RES1   0.0000
    49 H30     11.6633   7.8742   7.4560   H         1 RES1   0.0000
    50 H31     13.1566   7.4019   7.1223   H         1 RES1   0.0000
    51 C14     10.5206   4.0525   7.9640   C.3       1 RES1   0.0000
    52 H32      9.6976   3.4871   8.0232   H         1 RES1   0.0000
    53 C15     11.6293   3.1011   7.4871   C.3       1 RES1   0.0000
    54 H33     11.4287   2.7975   6.5774   H         1 RES1   0.0000
    55 H34     11.6762   2.3279   8.0877   H         1 RES1   0.0000
    56 H35     12.4884   3.5721   7.4938   H         1 RES1   0.0000
    57 C16     10.7702   4.5518   9.3918   C.3       1 RES1   0.0000
    58 H36     10.0503   5.1631   9.6559   H         1 RES1   0.0000
    59 H37     11.6277   5.0241   9.4268   H         1 RES1   0.0000
    60 H38     10.7913   3.7893  10.0051   H         1 RES1   0.0000
    61 C17      9.0135   7.5584   8.4645   C.1       1 RES1   0.0000
    62 C18     10.0179   8.7595  10.5690   C.3       1 RES1   0.0000
    63 C19     11.5337   8.6664  10.5178   C.3       1 RES1   0.0000
    64 H39     11.9141   9.0955  11.3130   H         1 RES1   0.0000
    65 H40     11.8623   9.1211   9.7137   H         1 RES1   0.0000
    66 H41     11.8024   7.7244  10.4944   H         1 RES1   0.0000
    67 C20      9.4775   8.0092  11.7926   C.3       1 RES1   0.0000
    68 H42      9.8092   8.4369  12.6098   H         1 RES1   0.0000
    69 H43      9.7801   7.0780  11.7645   H         1 RES1   0.0000
    70 H44      8.4987   8.0348  11.7846   H         1 RES1   0.0000
    71 C21      9.5406  10.2021  10.5787   C.3       1 RES1   0.0000
    72 H45      9.8788  10.6528  11.3797   H         1 RES1   0.0000
    73 H46      8.5618  10.2223  10.5812   H         1 RES1   0.0000
    74 H47      9.8755  10.6622   9.7804   H         1 RES1   0.0000
    75 C22      7.5089   5.5072   8.3898   C.1       1 RES1   0.0000
    76 C23      6.6288   4.3453  10.5765   C.3       1 RES1   0.0000
    77 C24      6.4262   2.8609  10.3603   C.3       1 RES1   0.0000
    78 H48      6.0751   2.4561  11.1818   H         1 RES1   0.0000
    79 H49      7.2837   2.4439  10.1319   H         1 RES1   0.0000
    80 H50      5.7904   2.7206   9.6292   H         1 RES1   0.0000
    81 C25      7.6574   4.5774  11.6533   C.3       1 RES1   0.0000
    82 H51      7.3322   4.2063  12.5008   H         1 RES1   0.0000
    83 H52      7.8111   5.5396  11.7556   H         1 RES1   0.0000
    84 H53      8.4955   4.1348  11.4042   H         1 RES1   0.0000
    85 C26      5.2921   5.0079  10.9302   C.3       1 RES1   0.0000
    86 H54      4.9345   4.6058  11.7490   H         1 RES1   0.0000
    87 H55      4.6563   4.8730  10.1964   H         1 RES1   0.0000
    88 H56      5.4312   5.9674  11.0705   H         1 RES1   0.0000
    89 B1       6.6186  12.8997  13.9146   B         2 RES2  -1.0000
    90 C27      7.6662  13.2222  12.6810   C.ar      2 RES2   0.0000
    91 C28      7.3644  12.9483  11.3439   C.ar      2 RES2   0.0000
    92 H57      6.5459  12.5083  11.1439   H         2 RES2   0.0000
    93 C29      8.2124  13.2910  10.2911   C.ar      2 RES2   0.0000
    94 H58      7.9761  13.0684   9.3978   H         2 RES2   0.0000
    95 C30      9.3902  13.9550  10.5469   C.ar      2 RES2   0.0000
    96 H59      9.9710  14.1925   9.8338   H         2 RES2   0.0000
    97 C31      9.7235  14.2734  11.8608   C.ar      2 RES2   0.0000
    98 H60     10.5340  14.7323  12.0492   H         2 RES2   0.0000
    99 C32      8.8644  13.9158  12.8932   C.ar      2 RES2   0.0000
   100 H61      9.1006  14.1520  13.7820   H         2 RES2   0.0000
   101 C33      5.7451  11.5300  13.6635   C.ar      2 RES2   0.0000
   102 C34      6.2429  10.4058  13.0039   C.ar      2 RES2   0.0000
   103 H62      7.1154  10.4477  12.6298   H         2 RES2   0.0000
   104 C35      5.5186   9.2237  12.8687   C.ar      2 RES2   0.0000
   105 H63      5.9020   8.4815  12.4140   H         2 RES2   0.0000
   106 C36      4.2372   9.1279  13.3976   C.ar      2 RES2   0.0000
   107 H64      3.7244   8.3357  13.2860   H         2 RES2   0.0000
   108 C37      3.7242  10.2061  14.0867   C.ar      2 RES2   0.0000
   109 H65      2.8556  10.1535  14.4693   H         2 RES2   0.0000
   110 C38      4.4660  11.3694  14.2260   C.ar      2 RES2   0.0000
   111 H66      4.0949  12.0886  14.7229   H         2 RES2   0.0000
   112 C39      5.6636  14.2330  14.0002   C.ar      2 RES2   0.0000
   113 C40      4.5003  14.3828  13.2339   C.ar      2 RES2   0.0000
   114 H67      4.2210  13.6594  12.6832   H         2 RES2   0.0000
   115 C41      3.7373  15.5487  13.2448   C.ar      2 RES2   0.0000
   116 H68      2.9559  15.6067  12.7054   H         2 RES2   0.0000
   117 C42      4.1046  16.6175  14.0300   C.ar      2 RES2   0.0000
   118 H69      3.5804  17.4083  14.0512   H         2 RES2   0.0000
   119 C43      5.2565  16.5122  14.7894   C.ar      2 RES2   0.0000
   120 H70      5.5331  17.2423  15.3302   H         2 RES2   0.0000
   121 C44      6.0137  15.3436  14.7645   C.ar      2 RES2   0.0000
   122 H71      6.8016  15.3018  15.2923   H         2 RES2   0.0000
   123 C45      7.4055  12.5906  15.3248   C.ar      2 RES2   0.0000
   124 C46      8.6220  11.8984  15.3611   C.ar      2 RES2   0.0000
   125 H72      9.0391  11.6663  14.5405   H         2 RES2   0.0000
   126 C47      9.2451  11.5367  16.5502   C.ar      2 RES2   0.0000
   127 H73     10.0648  11.0590  16.5268   H         2 RES2   0.0000
   128 C48      8.6767  11.8700  17.7645   C.ar      2 RES2   0.0000
   129 H74      9.1087  11.6393  18.5777   H         2 RES2   0.0000
   130 C49      7.4665  12.5461  17.7771   C.ar      2 RES2   0.0000
   131 H75      7.0620  12.7809  18.6044   H         2 RES2   0.0000
   132 C50      6.8451  12.8835  16.5731   C.ar      2 RES2   0.0000
   133 H76      6.0072  13.3302  16.6025   H         2 RES2   0.0000
@<TRIPOS>BOND
     1     1     2    1
     2     3     1    1
     3     4     1    1
     4     5     1    1
     5     6     5    1
     6     7    61    3
     7     8    75    3
     8     9     3    1
     9    10     9    1
    10    11     9    1
    11    12     5    1
    12    13    12    1
    13    14    12    1
    14    15     5    1
    15    16    15    1
    16    17    15    1
    17    18     4    1
    18    19    18    1
    19    20    18    1
    20    21     3    1
    21    22    21    1
    22    23    21    1
    23    24    23    1
    24    25    23    1
    25    26    23    1
    26    27    21    1
    27    28    27    1
    28    29    27    1
    29    30    27    1
    30    31     3    1
    31    32    31    1
    32    33    31    1
    33    34    33    1
    34    35    33    1
    35    36    33    1
    36    37    31    1
    37    38    37    1
    38    39    37    1
    39    40    37    1
    40    41     4    1
    41    42    41    1
    42    43    41    1
    43    44    43    1
    44    45    43    1
    45    46    43    1
    46    47    41    1
    47    48    47    1
    48    49    47    1
    49    50    47    1
    50    51     4    1
    51    52    51    1
    52    53    51    1
    53    54    53    1
    54    55    53    1
    55    56    53    1
    56    57    51    1
    57    58    57    1
    58    59    57    1
    59    60    57    1
    60    61     1    1
    61    62     7    1
    62    63    62    1
    63    64    63    1
    64    65    63    1
    65    66    63    1
    66    67    62    1
    67    68    67    1
    68    69    67    1
    69    70    67    1
    70    71    62    1
    71    72    71    1
    72    73    71    1
    73    74    71    1
    74    75     1    1
    75    76     8    1
    76    77    76    1
    77    78    77    1
    78    79    77    1
    79    80    77    1
    80    81    76    1
    81    82    81    1
    82    83    81    1
    83    84    81    1
    84    85    76    1
    85    86    85    1
    86    87    85    1
    87    88    85    1
    88     9    12    1
    89    15    18    1
    90    89    90    1
    91    90    91   ar
    92    91    92    1
    93    93    91   ar
    94    94    93    1
    95    95    93   ar
    96    96    95    1
    97    97    95   ar
    98    98    97    1
    99    99    90   ar
   100   100    99    1
   101   101    89    1
   102   102   101   ar
   103   103   102    1
   104   104   102   ar
   105   105   104    1
   106   106   104   ar
   107   107   106    1
   108   108   106   ar
   109   109   108    1
   110   110   101   ar
   111   111   110    1
   112   112    89    1
   113   113   112   ar
   114   114   113    1
   115   115   113   ar
   116   116   115    1
   117   117   115   ar
   118   118   117    1
   119   119   117   ar
   120   120   119    1
   121   121   112   ar
   122   122   121    1
   123   123    89    1
   124   124   123   ar
   125   125   124    1
   126   126   124   ar
   127   127   126    1
   128   128   126   ar
   129   129   128    1
   130   130   128   ar
   131   131   130    1
   132   132   123   ar
   133   133   132    1
   134    97    99   ar
   135   108   110   ar
   136   119   121   ar
   137   130   132   ar
@<TRIPOS>SUBSTRUCTURE
     1 RES1        1 GROUP             0 ****  ****    0  
     2 RES2       89 GROUP             0 ****  ****    0  
@<TRIPOS>CRYSIN
   16.1788   13.4948   22.2434   90.0000   90.0000   90.0000    33     1
