@<TRIPOS>MOLECULE
ARURAJ
   133   137     2     0     0
SMALL
USER_CHARGES
****
Generated from the CSD

@<TRIPOS>ATOM
     1 Fe1     10.3232   3.8392  10.3181   Fe        1 RES1   1.0000
     2 H1      10.4489   4.5329  11.6120   H         1 RES1   0.0000
     3 P1      11.2326   2.1052  11.3643   P.3       1 RES1   0.0000
     4 P2       9.8695   5.8369   9.4710   P.3       1 RES1   0.0000
     5 N1      12.3031   4.3649   9.9357   N.3       1 RES1   0.0000
     6 H2      12.5559   4.7988  10.6287   H         1 RES1   0.0000
     7 N2       7.5169   3.2029  11.0773   N.1       1 RES1   0.0000
     8 N3      10.1129   2.3380   7.7076   N.1       1 RES1   0.0000
     9 C1      13.0340   2.3228  11.0378   C.3       1 RES1   0.0000
    10 H3      13.4683   2.7571  11.8137   H         1 RES1   0.0000
    11 H4      13.4597   1.4413  10.8941   H         1 RES1   0.0000
    12 C2      13.1957   3.1847   9.8057   C.3       1 RES1   0.0000
    13 H5      14.1363   3.4800   9.7200   H         1 RES1   0.0000
    14 H6      12.9573   2.6675   8.9966   H         1 RES1   0.0000
    15 C3      12.4490   5.2894   8.7903   C.3       1 RES1   0.0000
    16 H7      12.2083   4.8257   7.9497   H         1 RES1   0.0000
    17 H8      13.3879   5.5933   8.7203   H         1 RES1   0.0000
    18 C4      11.5336   6.4835   9.0037   C.3       1 RES1   0.0000
    19 H9      11.4703   7.0182   8.1733   H         1 RES1   0.0000
    20 H10     11.8899   7.0615   9.7236   H         1 RES1   0.0000
    21 C5      10.9323   0.4134  10.6587   C.3       1 RES1   0.0000
    22 H11     11.3598   0.4212   9.7545   H         1 RES1   0.0000
    23 C6      11.6185  -0.7184  11.4266   C.3       1 RES1   0.0000
    24 H12     11.5819  -1.5413  10.8959   H         1 RES1   0.0000
    25 H13     11.1590  -0.8588  12.2808   H         1 RES1   0.0000
    26 H14     12.5532  -0.4794  11.5938   H         1 RES1   0.0000
    27 C7       9.4555   0.0848  10.4119   C.3       1 RES1   0.0000
    28 H15      9.3868  -0.7587   9.9181   H         1 RES1   0.0000
    29 H16      9.0446   0.8035   9.8890   H         1 RES1   0.0000
    30 H17      8.9925  -0.0015  11.2703   H         1 RES1   0.0000
    31 C8      11.1635   1.8908  13.2046   C.3       1 RES1   0.0000
    32 H18     11.7387   1.1067  13.4404   H         1 RES1   0.0000
    33 C9      11.7059   3.1063  13.9596   C.3       1 RES1   0.0000
    34 H19     11.6191   2.9572  14.9235   H         1 RES1   0.0000
    35 H20     11.1950   3.9026  13.7057   H         1 RES1   0.0000
    36 H21     12.6507   3.2365  13.7330   H         1 RES1   0.0000
    37 C10      9.7436   1.5794  13.6717   C.3       1 RES1   0.0000
    38 H22      9.7338   1.4861  14.6472   H         1 RES1   0.0000
    39 H23      9.4405   0.7438  13.2604   H         1 RES1   0.0000
    40 H24      9.1451   2.3090  13.4077   H         1 RES1   0.0000
    41 C11      8.9850   5.9160   7.8327   C.3       1 RES1   0.0000
    42 H25      9.6001   5.4828   7.1737   H         1 RES1   0.0000
    43 C12      8.7425   7.3365   7.3009   C.3       1 RES1   0.0000
    44 H26      8.4171   7.2885   6.3776   H         1 RES1   0.0000
    45 H27      9.5815   7.8426   7.3263   H         1 RES1   0.0000
    46 H28      8.0743   7.7844   7.8588   H         1 RES1   0.0000
    47 C13      7.6972   5.0952   7.7929   C.3       1 RES1   0.0000
    48 H29      7.3762   5.0348   6.8683   H         1 RES1   0.0000
    49 H30      7.0163   5.5291   8.3478   H         1 RES1   0.0000
    50 H31      7.8722   4.1954   8.1369   H         1 RES1   0.0000
    51 C14      9.1554   7.2167  10.4784   C.3       1 RES1   0.0000
    52 H32      9.2286   8.0577   9.9417   H         1 RES1   0.0000
    53 C15      9.9324   7.4206  11.7745   C.3       1 RES1   0.0000
    54 H33      9.5221   8.1458  12.2899   H         1 RES1   0.0000
    55 H34     10.8620   7.6530  11.5647   H         1 RES1   0.0000
    56 H35      9.9118   6.5940  12.3008   H         1 RES1   0.0000
    57 C16      7.6751   6.9871  10.7885   C.3       1 RES1   0.0000
    58 H36      7.3475   7.7052  11.3702   H         1 RES1   0.0000
    59 H37      7.5655   6.1250  11.2412   H         1 RES1   0.0000
    60 H38      7.1633   6.9853   9.9526   H         1 RES1   0.0000
    61 C17      8.6203   3.4526  10.7792   C.1       1 RES1   0.0000
    62 C18      6.1267   2.8028  11.2236   C.3       1 RES1   0.0000
    63 C19      5.2800   4.0590  11.3762   C.3       1 RES1   0.0000
    64 H39      5.3426   4.5971  10.5596   H         1 RES1   0.0000
    65 H40      5.6065   4.5822  12.1372   H         1 RES1   0.0000
    66 H41      4.3452   3.8071  11.5302   H         1 RES1   0.0000
    67 C20      5.7295   2.0288   9.9820   C.3       1 RES1   0.0000
    68 H42      6.2878   1.2277   9.9035   H         1 RES1   0.0000
    69 H43      5.8560   2.5928   9.1911   H         1 RES1   0.0000
    70 H44      4.7884   1.7654  10.0489   H         1 RES1   0.0000
    71 C21      6.0100   1.9439  12.4766   C.3       1 RES1   0.0000
    72 H45      6.5639   1.1426  12.3753   H         1 RES1   0.0000
    73 H46      5.0754   1.6802  12.6061   H         1 RES1   0.0000
    74 H47      6.3166   2.4569  13.2532   H         1 RES1   0.0000
    75 C22     10.2064   2.9354   8.7027   C.1       1 RES1   0.0000
    76 C23      9.9393   1.6604   6.4388   C.3       1 RES1   0.0000
    77 C24     10.8207   2.3703   5.4259   C.3       1 RES1   0.0000
    78 H48     10.5810   3.3202   5.3925   H         1 RES1   0.0000
    79 H49     10.6903   1.9685   4.5419   H         1 RES1   0.0000
    80 H50     11.7592   2.2807   5.6906   H         1 RES1   0.0000
    81 C25      8.4722   1.7539   6.0599   C.3       1 RES1   0.0000
    82 H51      7.9243   1.3651   6.7738   H         1 RES1   0.0000
    83 H52      8.3179   1.2635   5.2253   H         1 RES1   0.0000
    84 H53      8.2255   2.6944   5.9359   H         1 RES1   0.0000
    85 C26     10.3484   0.2094   6.5928   C.3       1 RES1   0.0000
    86 H54      9.8099  -0.2091   7.2972   H         1 RES1   0.0000
    87 H55     11.2969   0.1613   6.8356   H         1 RES1   0.0000
    88 H56     10.2040  -0.2629   5.7469   H         1 RES1   0.0000
    89 B1      10.2422  11.3704  16.1059   B         2 RES2  -1.0000
    90 C27      9.1486  11.5895  14.8935   C.ar      2 RES2   0.0000
    91 C28      8.8010  12.8665  14.4454   C.ar      2 RES2   0.0000
    92 H57      9.2134  13.6212  14.8489   H         2 RES2   0.0000
    93 C29      7.8719  13.0736  13.4309   C.ar      2 RES2   0.0000
    94 H58      7.6465  13.9602  13.1714   H         2 RES2   0.0000
    95 C30      7.2740  12.0037  12.7986   C.ar      2 RES2   0.0000
    96 H59      6.6691  12.1426  12.0791   H         2 RES2   0.0000
    97 C31      7.5694  10.7343  13.2303   C.ar      2 RES2   0.0000
    98 H60      7.1480   9.9859  12.8242   H         2 RES2   0.0000
    99 C32      8.4797  10.5422  14.2588   C.ar      2 RES2   0.0000
   100 H61      8.6567   9.6543  14.5454   H         2 RES2   0.0000
   101 C33     10.8146   9.8149  16.0430   C.ar      2 RES2   0.0000
   102 C34     11.2305   9.2113  14.8429   C.ar      2 RES2   0.0000
   103 H62     11.2190   9.7320  14.0492   H         2 RES2   0.0000
   104 C35     11.6571   7.8891  14.7595   C.ar      2 RES2   0.0000
   105 H63     11.9362   7.5320  13.9238   H         2 RES2   0.0000
   106 C36     11.6765   7.0930  15.8927   C.ar      2 RES2   0.0000
   107 H64     11.9664   6.1893  15.8467   H         2 RES2   0.0000
   108 C37     11.2649   7.6400  17.0914   C.ar      2 RES2   0.0000
   109 H65     11.2636   7.1048  17.8769   H         2 RES2   0.0000
   110 C38     10.8512   8.9682  17.1610   C.ar      2 RES2   0.0000
   111 H66     10.5817   9.3168  18.0023   H         2 RES2   0.0000
   112 C39      9.4992  11.5889  17.5595   C.ar      2 RES2   0.0000
   113 C40      8.1114  11.4941  17.7142   C.ar      2 RES2   0.0000
   114 H67      7.5765  11.3883  16.9372   H         2 RES2   0.0000
   115 C41      7.4769  11.5474  18.9537   C.ar      2 RES2   0.0000
   116 H68      6.5318  11.4690  19.0055   H         2 RES2   0.0000
   117 C42      8.2186  11.7133  20.1086   C.ar      2 RES2   0.0000
   118 H69      7.7919  11.7453  20.9575   H         2 RES2   0.0000
   119 C43      9.5914  11.8322  20.0048   C.ar      2 RES2   0.0000
   120 H70     10.1157  11.9589  20.7867   H         2 RES2   0.0000
   121 C44     10.2087  11.7681  18.7584   C.ar      2 RES2   0.0000
   122 H71     11.1539  11.8498  18.7166   H         2 RES2   0.0000
   123 C45     11.4482  12.4803  15.8707   C.ar      2 RES2   0.0000
   124 C46     11.5612  13.6630  16.6150   C.ar      2 RES2   0.0000
   125 H72     10.9564  13.8049  17.3334   H         2 RES2   0.0000
   126 C47     12.5181  14.6417  16.3504   C.ar      2 RES2   0.0000
   127 H73     12.5538  15.4254  16.8863   H         2 RES2   0.0000
   128 C48     13.4151  14.4783  15.3117   C.ar      2 RES2   0.0000
   129 H74     14.0734  15.1386  15.1306   H         2 RES2   0.0000
   130 C49     13.3332  13.3323  14.5398   C.ar      2 RES2   0.0000
   131 H75     13.9342  13.2060  13.8148   H         2 RES2   0.0000
   132 C50     12.3723  12.3657  14.8211   C.ar      2 RES2   0.0000
   133 H76     12.3403  11.5885  14.2746   H         2 RES2   0.0000
@<TRIPOS>BOND
     1     1     2    1
     2     3     1    1
     3     4     1    1
     4     5     1    1
     5     6     5    1
     6     7    61    3
     7     8    75    3
     8     9     3    1
     9    10     9    1
    10    11     9    1
    11    12     5    1
    12    13    12    1
    13    14    12    1
    14    15     5    1
    15    16    15    1
    16    17    15    1
    17    18     4    1
    18    19    18    1
    19    20    18    1
    20    21     3    1
    21    22    21    1
    22    23    21    1
    23    24    23    1
    24    25    23    1
    25    26    23    1
    26    27    21    1
    27    28    27    1
    28    29    27    1
    29    30    27    1
    30    31     3    1
    31    32    31    1
    32    33    31    1
    33    34    33    1
    34    35    33    1
    35    36    33    1
    36    37    31    1
    37    38    37    1
    38    39    37    1
    39    40    37    1
    40    41     4    1
    41    42    41    1
    42    43    41    1
    43    44    43    1
    44    45    43    1
    45    46    43    1
    46    47    41    1
    47    48    47    1
    48    49    47    1
    49    50    47    1
    50    51     4    1
    51    52    51    1
    52    53    51    1
    53    54    53    1
    54    55    53    1
    55    56    53    1
    56    57    51    1
    57    58    57    1
    58    59    57    1
    59    60    57    1
    60    61     1    1
    61    62     7    1
    62    63    62    1
    63    64    63    1
    64    65    63    1
    65    66    63    1
    66    67    62    1
    67    68    67    1
    68    69    67    1
    69    70    67    1
    70    71    62    1
    71    72    71    1
    72    73    71    1
    73    74    71    1
    74    75     1    1
    75    76     8    1
    76    77    76    1
    77    78    77    1
    78    79    77    1
    79    80    77    1
    80    81    76    1
    81    82    81    1
    82    83    81    1
    83    84    81    1
    84    85    76    1
    85    86    85    1
    86    87    85    1
    87    88    85    1
    88     9    12    1
    89    15    18    1
    90    89    90    1
    91    90    91   ar
    92    91    92    1
    93    93    91   ar
    94    94    93    1
    95    95    93   ar
    96    96    95    1
    97    97    95   ar
    98    98    97    1
    99    99    90   ar
   100   100    99    1
   101   101    89    1
   102   102   101   ar
   103   103   102    1
   104   104   102   ar
   105   105   104    1
   106   106   104   ar
   107   107   106    1
   108   108   106   ar
   109   109   108    1
   110   110   101   ar
   111   111   110    1
   112   112    89    1
   113   113   112   ar
   114   114   113    1
   115   115   113   ar
   116   116   115    1
   117   117   115   ar
   118   118   117    1
   119   119   117   ar
   120   120   119    1
   121   121   112   ar
   122   122   121    1
   123   123    89    1
   124   124   123   ar
   125   125   124    1
   126   126   124   ar
   127   127   126    1
   128   128   126   ar
   129   129   128    1
   130   130   128   ar
   131   131   130    1
   132   132   123   ar
   133   133   132    1
   134    97    99   ar
   135   108   110   ar
   136   119   121   ar
   137   130   132   ar
@<TRIPOS>SUBSTRUCTURE
     1 RES1        1 GROUP             0 ****  ****    0  
     2 RES2       89 GROUP             0 ****  ****    0  
@<TRIPOS>CRYSIN
   17.6110   14.9355   18.8924   90.0000  105.8407   90.0000    14     1
