@<TRIPOS>MOLECULE
ARUYOE
    78    79     1     0     0
SMALL
USER_CHARGES
****
Generated from the CSD

@<TRIPOS>ATOM
     1 Fe1      8.6497   6.1971  12.2319   Fe        1 RES1   1.0000
     2 H1       7.5024   6.0706  11.3335   H         1 RES1   0.0000
     3 P1       7.6115   7.8784  13.2155   P.3       1 RES1   0.0000
     4 P2       9.3613   4.2747  11.4307   P.3       1 RES1   0.0000
     5 N1       7.6090   5.0168  13.5968   N.3       1 RES1   0.0000
     6 H2       8.1664   4.9287  14.2718   H         1 RES1   0.0000
     7 N2       9.9986   7.8503  10.1734   N.1       1 RES1   0.0000
     8 C1       6.6852   7.0573  14.5845   C.3       1 RES1   0.0000
     9 H3       7.2328   7.0450  15.4081   H         1 RES1   0.0000
    10 H4       5.8461   7.5488  14.7718   H         1 RES1   0.0000
    11 C2       6.3726   5.6362  14.1416   C.3       1 RES1   0.0000
    12 H5       6.0426   5.1079  14.9111   H         1 RES1   0.0000
    13 H6       5.6669   5.6477  13.4466   H         1 RES1   0.0000
    14 C3       7.3196   3.6415  13.1181   C.3       1 RES1   0.0000
    15 H7       6.6278   3.6678  12.4110   H         1 RES1   0.0000
    16 H8       6.9795   3.0881  13.8646   H         1 RES1   0.0000
    17 C4       8.6039   3.0389  12.5667   C.3       1 RES1   0.0000
    18 H9       8.4052   2.2016  12.0766   H         1 RES1   0.0000
    19 H10      9.2272   2.8287  13.3058   H         1 RES1   0.0000
    20 C5       6.3071   8.8655  12.3269   C.3       1 RES1   0.0000
    21 H11      6.0725   9.6521  12.8986   H         1 RES1   0.0000
    22 C6       5.0338   8.0608  12.0853   C.3       1 RES1   0.0000
    23 H12      4.6678   7.7628  12.9435   H         1 RES1   0.0000
    24 H13      5.2412   7.2804  11.5301   H         1 RES1   0.0000
    25 H14      4.3747   8.6228  11.6261   H         1 RES1   0.0000
    26 C7       6.8179   9.3899  10.9905   C.3       1 RES1   0.0000
    27 H15      7.6022   9.9570  11.1400   H         1 RES1   0.0000
    28 H16      6.1142   9.9148  10.5548   H         1 RES1   0.0000
    29 H17      7.0657   8.6347  10.4170   H         1 RES1   0.0000
    30 C8       8.6260   9.1445  14.1269   C.3       1 RES1   0.0000
    31 H18      9.1656   8.6298  14.7919   H         1 RES1   0.0000
    32 C9       9.6368   9.8451  13.2319   C.3       1 RES1   0.0000
    33 H19     10.1694   9.1755  12.7531   H         1 RES1   0.0000
    34 H20     10.2291  10.4011  13.7810   H         1 RES1   0.0000
    35 H21      9.1652  10.4105  12.5859   H         1 RES1   0.0000
    36 C10      7.8292  10.1576  14.9388   C.3       1 RES1   0.0000
    37 H22      7.2057   9.6856  15.5288   H         1 RES1   0.0000
    38 H23      7.3265  10.7404  14.3321   H         1 RES1   0.0000
    39 H24      8.4429  10.6995  15.4777   H         1 RES1   0.0000
    40 C11      8.8584   3.6898   9.7371   C.3       1 RES1   0.0000
    41 H25      9.3845   2.8664   9.5223   H         1 RES1   0.0000
    42 C12      9.1597   4.7386   8.6688   C.3       1 RES1   0.0000
    43 H26     10.1124   4.9661   8.6940   H         1 RES1   0.0000
    44 H27      8.6269   5.5431   8.8411   H         1 RES1   0.0000
    45 H28      8.9331   4.3795   7.7853   H         1 RES1   0.0000
    46 C13      7.3729   3.3384   9.6613   C.3       1 RES1   0.0000
    47 H29      7.1739   2.6210  10.2978   H         1 RES1   0.0000
    48 H30      7.1536   3.0401   8.7544   H         1 RES1   0.0000
    49 H31      6.8380   4.1289   9.8830   H         1 RES1   0.0000
    50 C14     11.1651   3.8461  11.5492   C.3       1 RES1   0.0000
    51 H32     11.4309   4.0482  12.4915   H         1 RES1   0.0000
    52 C15     12.0428   4.7289  10.6736   C.3       1 RES1   0.0000
    53 H33     11.7537   5.6616  10.7561   H         1 RES1   0.0000
    54 H34     11.9641   4.4440   9.7390   H         1 RES1   0.0000
    55 H35     12.9764   4.6500  10.9620   H         1 RES1   0.0000
    56 C16     11.5060   2.3708  11.3295   C.3       1 RES1   0.0000
    57 H36     10.9497   1.8166  11.9156   H         1 RES1   0.0000
    58 H37     12.4516   2.2200  11.5379   H         1 RES1   0.0000
    59 H38     11.3348   2.1315  10.3938   H         1 RES1   0.0000
    60 C17      9.4472   7.1965  10.9858   C.1       1 RES1   0.0000
    61 C18     10.3544   8.6396   9.0170   C.3       1 RES1   0.0000
    62 C19     10.4681  10.0977   9.4475   C.3       1 RES1   0.0000
    63 H39     10.7042  10.6501   8.6724   H         1 RES1   0.0000
    64 H40     11.1631  10.1829  10.1322   H         1 RES1   0.0000
    65 H41      9.6103  10.3981   9.8133   H         1 RES1   0.0000
    66 C20     11.6867   8.1342   8.4750   C.3       1 RES1   0.0000
    67 H42     11.9288   8.6452   7.6738   H         1 RES1   0.0000
    68 H43     11.6066   7.1851   8.2451   H         1 RES1   0.0000
    69 H44     12.3809   8.2478   9.1569   H         1 RES1   0.0000
    70 C21      9.2724   8.4796   7.9513   C.3       1 RES1   0.0000
    71 H45      9.4927   9.0370   7.1754   H         1 RES1   0.0000
    72 H46      8.4085   8.7590   8.3194   H         1 RES1   0.0000
    73 H47      9.2216   7.5408   7.6754   H         1 RES1   0.0000
    74 B1      10.4130   6.0225  14.3173   B         1 RES1  -1.0000
    75 H48      9.9941   6.3777  13.2113   H         1 RES1   0.0000
    76 H49      9.7505   6.4310  15.1263   H         1 RES1   0.0000
    77 H50     11.4536   6.4457  14.4111   H         1 RES1   0.0000
    78 H51     10.4439   4.9055  14.3492   H         1 RES1   0.0000
@<TRIPOS>BOND
     1     1     2    1
     2     3     1    1
     3     4     1    1
     4     5     1    1
     5     6     5    1
     6     7    60    3
     7     8     3    1
     8     9     8    1
     9    10     8    1
    10    11     5    1
    11    12    11    1
    12    13    11    1
    13    14     5    1
    14    15    14    1
    15    16    14    1
    16    17     4    1
    17    18    17    1
    18    19    17    1
    19    20     3    1
    20    21    20    1
    21    22    20    1
    22    23    22    1
    23    24    22    1
    24    25    22    1
    25    26    20    1
    26    27    26    1
    27    28    26    1
    28    29    26    1
    29    30     3    1
    30    31    30    1
    31    32    30    1
    32    33    32    1
    33    34    32    1
    34    35    32    1
    35    36    30    1
    36    37    36    1
    37    38    36    1
    38    39    36    1
    39    40     4    1
    40    41    40    1
    41    42    40    1
    42    43    42    1
    43    44    42    1
    44    45    42    1
    45    46    40    1
    46    47    46    1
    47    48    46    1
    48    49    46    1
    49    50     4    1
    50    51    50    1
    51    52    50    1
    52    53    52    1
    53    54    52    1
    54    55    52    1
    55    56    50    1
    56    57    56    1
    57    58    56    1
    58    59    56    1
    59    60     1    1
    60    61     7    1
    61    62    61    1
    62    63    62    1
    63    64    62    1
    64    65    62    1
    65    66    61    1
    66    67    66    1
    67    68    66    1
    68    69    66    1
    69    70    61    1
    70    71    70    1
    71    72    70    1
    72    73    70    1
    73    74    75    1
    74    75     1    1
    75    76    74    1
    76    77    74    1
    77    78    74    1
    78     8    11    1
    79    14    17    1
@<TRIPOS>SUBSTRUCTURE
     1 RES1        1 GROUP             0 ****  ****    0  
@<TRIPOS>CRYSIN
    8.3288   10.5531   15.9720   89.0195   75.8707   78.7435     2     1
