@<TRIPOS>MOLECULE
ARUZEV
   139   142     3     0     0
SMALL
USER_CHARGES
****
Generated from the CSD

@<TRIPOS>ATOM
     1 Fe1      2.0535   4.4743  10.2118   Fe        1 RES1   1.0000
     2 Br1      1.2085   5.1849   7.9739   Br        1 RES1   0.0000
     3 P1       3.6849   3.1146   9.3631   P.3       1 RES1   0.0000
     4 P2       0.6123   5.7709  11.4133   P.3       1 RES1   0.0000
     5 N1       2.7930   3.8883  12.0471   N.3       1 RES1   0.0000
     6 H1       2.4064   3.1827  12.2138   H         1 RES1   0.0000
     7 N2       4.0752   6.7158  10.2353   N.1       1 RES1   0.0000
     8 N3      -0.0560   2.2899  10.3510   N.1       1 RES1   0.0000
     9 C1       4.4431   2.4973  10.9227   C.3       1 RES1   0.0000
    10 H2       4.0168   1.6462  11.1932   H         1 RES1   0.0000
    11 H3       5.4105   2.3351  10.7900   H         1 RES1   0.0000
    12 C2       4.2341   3.5522  12.0012   C.3       1 RES1   0.0000
    13 H4       4.5288   3.2041  12.8789   H         1 RES1   0.0000
    14 H5       4.7642   4.3616  11.7919   H         1 RES1   0.0000
    15 C3       2.5028   4.8491  13.1426   C.3       1 RES1   0.0000
    16 H6       3.0462   5.6680  13.0252   H         1 RES1   0.0000
    17 H7       2.7355   4.4438  14.0153   H         1 RES1   0.0000
    18 C4       1.0344   5.1984  13.1137   C.3       1 RES1   0.0000
    19 H8       0.8426   5.9148  13.7703   H         1 RES1   0.0000
    20 H9       0.4905   4.4045  13.3501   H         1 RES1   0.0000
    21 C5       5.1188   3.9515   8.5225   C.3       1 RES1   0.0000
    22 H10      5.4129   4.6739   9.1468   H         1 RES1   0.0000
    23 C6       6.3491   3.0790   8.2979   C.3       1 RES1   0.0000
    24 H11      6.5919   2.6343   9.1365   H         1 RES1   0.0000
    25 H12      7.0957   3.6380   7.9968   H         1 RES1   0.0000
    26 H13      6.1517   2.4043   7.6158   H         1 RES1   0.0000
    27 C7       4.7361   4.6512   7.2432   C.3       1 RES1   0.0000
    28 H14      3.9581   5.2246   7.4065   H         1 RES1   0.0000
    29 H15      4.5146   3.9849   6.5594   H         1 RES1   0.0000
    30 H16      5.4872   5.1995   6.9336   H         1 RES1   0.0000
    31 C8       3.3673   1.6033   8.3268   C.3       1 RES1   0.0000
    32 H17      4.2009   1.4507   7.7961   H         1 RES1   0.0000
    33 C9       3.1518   0.3516   9.1314   C.3       1 RES1   0.0000
    34 H18      3.9763   0.1252   9.6094   H         1 RES1   0.0000
    35 H19      2.9076  -0.3850   8.5327   H         1 RES1   0.0000
    36 H20      2.4294   0.4995   9.7779   H         1 RES1   0.0000
    37 C10      2.2616   1.8035   7.3181   C.3       1 RES1   0.0000
    38 H21      2.4613   2.5867   6.7652   H         1 RES1   0.0000
    39 H22      1.4132   1.9442   7.7876   H         1 RES1   0.0000
    40 H23      2.1903   1.0096   6.7482   H         1 RES1   0.0000
    41 C11      0.9471   7.6026  11.4619   C.3       1 RES1   0.0000
    42 H24      1.9227   7.6861  11.6593   H         1 RES1   0.0000
    43 C12      0.7561   8.2547  10.0977   C.3       1 RES1   0.0000
    44 H25      1.2145   7.7218   9.4138   H         1 RES1   0.0000
    45 H26      1.1312   9.1594  10.1113   H         1 RES1   0.0000
    46 H27     -0.2001   8.3012   9.8884   H         1 RES1   0.0000
    47 C13      0.2494   8.4287  12.5387   C.3       1 RES1   0.0000
    48 H28      0.3118   7.9638  13.3995   H         1 RES1   0.0000
    49 H29     -0.6940   8.5479  12.3006   H         1 RES1   0.0000
    50 H30      0.6800   9.3060  12.6102   H         1 RES1   0.0000
    51 C14     -1.2204   5.4785  11.3446   C.3       1 RES1   0.0000
    52 H31     -1.3380   4.4975  11.5028   H         1 RES1   0.0000
    53 C15     -1.8385   5.7419   9.9803   C.3       1 RES1   0.0000
    54 H32     -1.3196   5.2746   9.2913   H         1 RES1   0.0000
    55 H33     -1.8291   6.7051   9.7983   H         1 RES1   0.0000
    56 H34     -2.7613   5.4153   9.9701   H         1 RES1   0.0000
    57 C16     -2.0241   6.1603  12.4401   C.3       1 RES1   0.0000
    58 H35     -1.5270   6.1210  13.2838   H         1 RES1   0.0000
    59 H36     -2.8853   5.7026  12.5472   H         1 RES1   0.0000
    60 H37     -2.1803   7.0960  12.1951   H         1 RES1   0.0000
    61 C17      3.2793   5.8683  10.1878   C.1       1 RES1   0.0000
    62 C18      5.0405   7.8136  10.3222   C.3       1 RES1   0.0000
    63 C19      6.3261   7.3809   9.6435   C.3       1 RES1   0.0000
    64 H38      6.9827   8.1069   9.6911   H         1 RES1   0.0000
    65 H39      6.1430   7.1687   8.7045   H         1 RES1   0.0000
    66 H40      6.6831   6.5870  10.0943   H         1 RES1   0.0000
    67 C20      4.3985   9.0164   9.6316   C.3       1 RES1   0.0000
    68 H41      5.0321   9.7638   9.6197   H         1 RES1   0.0000
    69 H42      3.5902   9.2798  10.1181   H         1 RES1   0.0000
    70 H43      4.1609   8.7756   8.7113   H         1 RES1   0.0000
    71 C21      5.2750   8.0878  11.7987   C.3       1 RES1   0.0000
    72 H44      5.9525   8.7899  11.8974   H         1 RES1   0.0000
    73 H45      5.5881   7.2689  12.2376   H         1 RES1   0.0000
    74 H46      4.4373   8.3810  12.2138   H         1 RES1   0.0000
    75 C22      0.7648   3.0992  10.2508   C.1       1 RES1   0.0000
    76 C23     -1.1287   1.2969  10.4464   C.3       1 RES1   0.0000
    77 C24     -0.5502  -0.0310   9.9718   C.3       1 RES1   0.0000
    78 H47     -1.2329  -0.7295  10.0483   H         1 RES1   0.0000
    79 H48      0.2229  -0.2682  10.5246   H         1 RES1   0.0000
    80 H49     -0.2696   0.0501   9.0362   H         1 RES1   0.0000
    81 C25     -1.5528   1.2266  11.9076   C.3       1 RES1   0.0000
    82 H50     -2.2458   0.5412  12.0131   H         1 RES1   0.0000
    83 H51     -1.9083   2.0956  12.1849   H         1 RES1   0.0000
    84 H52     -0.7788   0.9977  12.4622   H         1 RES1   0.0000
    85 C26     -2.2786   1.7546   9.5669   C.3       1 RES1   0.0000
    86 H53     -3.0089   1.1038   9.6197   H         1 RES1   0.0000
    87 H54     -1.9724   1.8274   8.6381   H         1 RES1   0.0000
    88 H55     -2.5970   2.6284   9.8748   H         1 RES1   0.0000
    89 B1       8.3383  10.9677   6.5390   B         2 RES2  -1.0000
    90 C27      6.8585  11.2764   5.9028   C.ar      2 RES2   0.0000
    91 C28      5.7421  10.5588   6.3417   C.ar      2 RES2   0.0000
    92 H56      5.8637   9.9211   7.0340   H         2 RES2   0.0000
    93 C29      4.4689  10.7281   5.8211   C.ar      2 RES2   0.0000
    94 H57      3.7495  10.2012   6.1511   H         2 RES2   0.0000
    95 C30      4.2409  11.6614   4.8226   C.ar      2 RES2   0.0000
    96 H58      3.3697  11.8057   4.4739   H         2 RES2   0.0000
    97 C31      5.3304  12.3778   4.3480   C.ar      2 RES2   0.0000
    98 H59      5.2031  13.0108   3.6522   H         2 RES2   0.0000
    99 C32      6.5984  12.1871   4.8685   C.ar      2 RES2   0.0000
   100 H60      7.3184  12.6925   4.5130   H         2 RES2   0.0000
   101 C33      8.7806   9.5492   5.8058   C.ar      2 RES2   0.0000
   102 C34      9.3598   9.5099   4.5351   C.ar      2 RES2   0.0000
   103 H61      9.5907  10.3276   4.1098   H         2 RES2   0.0000
   104 C35      9.6118   8.3059   3.8632   C.ar      2 RES2   0.0000
   105 H62     10.0078   8.3202   3.0007   H         2 RES2   0.0000
   106 C36      9.2908   7.1103   4.4449   C.ar      2 RES2   0.0000
   107 H63      9.4582   6.2962   3.9857   H         2 RES2   0.0000
   108 C37      8.7221   7.0913   5.6969   C.ar      2 RES2   0.0000
   109 H64      8.5067   6.2628   6.1103   H         2 RES2   0.0000
   110 C38      8.4623   8.2928   6.3638   C.ar      2 RES2   0.0000
   111 H65      8.0579   8.2630   7.2228   H         2 RES2   0.0000
   112 C39      9.4375  12.1633   6.2597   C.ar      2 RES2   0.0000
   113 C40      9.0980  13.5210   6.2838   C.ar      2 RES2   0.0000
   114 H66      8.1868  13.7594   6.4131   H         2 RES2   0.0000
   115 C41     10.0299  14.5318   6.1307   C.ar      2 RES2   0.0000
   116 H67      9.7416  15.4377   6.1392   H         2 RES2   0.0000
   117 C42     11.3611  14.2481   5.9691   C.ar      2 RES2   0.0000
   118 H68     11.9986  14.9454   5.8637   H         2 RES2   0.0000
   119 C43     11.7587  12.9107   5.9623   C.ar      2 RES2   0.0000
   120 H69     12.6773  12.6866   5.8637   H         2 RES2   0.0000
   121 C44     10.8112  11.9094   6.0984   C.ar      2 RES2   0.0000
   122 H70     11.1046  11.0058   6.0848   H         2 RES2   0.0000
   123 C45      8.2602  10.8139   8.1686   C.ar      2 RES2   0.0000
   124 C46      9.1786  10.0761   8.9103   C.ar      2 RES2   0.0000
   125 H71      9.8560   9.6004   8.4442   H         2 RES2   0.0000
   126 C47      9.1591   9.9950  10.3103   C.ar      2 RES2   0.0000
   127 H72      9.8005   9.4622  10.7645   H         2 RES2   0.0000
   128 C48      8.2049  10.6911  11.0248   C.ar      2 RES2   0.0000
   129 H73      8.1832  10.6506  11.9740   H         2 RES2   0.0000
   130 C49      7.2831  11.4493  10.3273   C.ar      2 RES2   0.0000
   131 H74      6.6229  11.9392  10.8036   H         2 RES2   0.0000
   132 C50      7.3102  11.5041   8.9341   C.ar      2 RES2   0.0000
   133 H75      6.6586  12.0310   8.4850   H         2 RES2   0.0000
   134 N4       1.2606   9.6636   6.6870   N.1       3 RES3   0.0000
   135 C51      0.3867   9.0104   6.7414   C.1       3 RES3   0.0000
   136 C52     -0.7617   8.1498   6.7414   C.3       3 RES3   0.0000
   137 H76     -1.1924   8.1796   5.8602   H         3 RES3   0.0000
   138 H77     -1.3956   8.4502   7.4253   H         3 RES3   0.0000
   139 H78     -0.4807   7.2307   6.9353   H         3 RES3   0.0000
@<TRIPOS>BOND
     1     1     2    1
     2     3     1    1
     3     4     1    1
     4     5     1    1
     5     6     5    1
     6     7    61    3
     7     8    75    3
     8     9     3    1
     9    10     9    1
    10    11     9    1
    11    12     5    1
    12    13    12    1
    13    14    12    1
    14    15     5    1
    15    16    15    1
    16    17    15    1
    17    18     4    1
    18    19    18    1
    19    20    18    1
    20    21     3    1
    21    22    21    1
    22    23    21    1
    23    24    23    1
    24    25    23    1
    25    26    23    1
    26    27    21    1
    27    28    27    1
    28    29    27    1
    29    30    27    1
    30    31     3    1
    31    32    31    1
    32    33    31    1
    33    34    33    1
    34    35    33    1
    35    36    33    1
    36    37    31    1
    37    38    37    1
    38    39    37    1
    39    40    37    1
    40    41     4    1
    41    42    41    1
    42    43    41    1
    43    44    43    1
    44    45    43    1
    45    46    43    1
    46    47    41    1
    47    48    47    1
    48    49    47    1
    49    50    47    1
    50    51     4    1
    51    52    51    1
    52    53    51    1
    53    54    53    1
    54    55    53    1
    55    56    53    1
    56    57    51    1
    57    58    57    1
    58    59    57    1
    59    60    57    1
    60    61     1    1
    61    62     7    1
    62    63    62    1
    63    64    63    1
    64    65    63    1
    65    66    63    1
    66    67    62    1
    67    68    67    1
    68    69    67    1
    69    70    67    1
    70    71    62    1
    71    72    71    1
    72    73    71    1
    73    74    71    1
    74    75     1    1
    75    76     8    1
    76    77    76    1
    77    78    77    1
    78    79    77    1
    79    80    77    1
    80    81    76    1
    81    82    81    1
    82    83    81    1
    83    84    81    1
    84    85    76    1
    85    86    85    1
    86    87    85    1
    87    88    85    1
    88     9    12    1
    89    15    18    1
    90    89    90    1
    91    90    91   ar
    92    91    92    1
    93    93    91   ar
    94    94    93    1
    95    95    93   ar
    96    96    95    1
    97    97    95   ar
    98    98    97    1
    99    99    90   ar
   100   100    99    1
   101   101    89    1
   102   102   101   ar
   103   103   102    1
   104   104   102   ar
   105   105   104    1
   106   106   104   ar
   107   107   106    1
   108   108   106   ar
   109   109   108    1
   110   110   101   ar
   111   111   110    1
   112   112    89    1
   113   113   112   ar
   114   114   113    1
   115   115   113   ar
   116   116   115    1
   117   117   115   ar
   118   118   117    1
   119   119   117   ar
   120   120   119    1
   121   121   112   ar
   122   122   121    1
   123   123    89    1
   124   124   123   ar
   125   125   124    1
   126   126   124   ar
   127   127   126    1
   128   128   126   ar
   129   129   128    1
   130   130   128   ar
   131   131   130    1
   132   132   123   ar
   133   133   132    1
   134    97    99   ar
   135   108   110   ar
   136   119   121   ar
   137   130   132   ar
   138   134   135    3
   139   135   136    1
   140   136   137    1
   141   138   136    1
   142   139   136    1
@<TRIPOS>SUBSTRUCTURE
     1 RES1        1 GROUP             0 ****  ****    0  
     2 RES2       89 GROUP             0 ****  ****    0  
     3 RES3      134 GROUP             0 ****  ****    0  
@<TRIPOS>CRYSIN
   12.9028   11.9201   17.4225   90.0000  102.4792   90.0000     7     1
