@<TRIPOS>MOLECULE
ASALIQ
   130   139     5     0     0
SMALL
USER_CHARGES
****
Generated from the CSD

@<TRIPOS>ATOM
     1 Fe1      6.2364   7.5935   8.3416   Fe        1 RES1   2.0000
     2 C1       4.7760  11.2736  12.4797   C.ar      1 RES1   0.0000
     3 H1       5.5149  11.3542  11.8881   H         1 RES1   0.0000
     4 C2       4.7278  12.0480  13.6255   C.ar      1 RES1   0.0000
     5 H2       5.4263  12.6679  13.8053   H         1 RES1   0.0000
     6 C3       3.6850  11.9290  14.5003   C.ar      1 RES1   0.0000
     7 H3       3.6719  12.4427  15.3001   H         1 RES1   0.0000
     8 C4       2.6576  11.0620  14.2202   C.ar      1 RES1   0.0000
     9 H4       1.9215  10.9909  14.8163   H         1 RES1   0.0000
    10 C5       2.6910  10.2899  13.0639   C.ar      1 RES1   0.0000
    11 H5       1.9747   9.6963  12.8751   H         1 RES1   0.0000
    12 C6       3.7530  10.3767  12.1861   C.ar      1 RES1   0.0000
    13 C7       3.8400   9.4819  11.0328   C.2       1 RES1   0.0000
    14 C8       2.9272   8.6086  10.4921   C.2       1 RES1   0.0000
    15 H6       2.0192   8.4981  10.7468   H         1 RES1   0.0000
    16 C9       3.1616   6.8323   8.6843   C.3       1 RES1   0.0000
    17 H7       3.1651   7.1238   7.7377   H         1 RES1   0.0000
    18 H8       2.2354   6.5787   8.9209   H         1 RES1   0.0000
    19 C10      4.0535   5.6364   8.8356   C.ar      1 RES1   0.0000
    20 C11      3.4911   4.4294   9.2025   C.ar      1 RES1   0.0000
    21 H9       2.5681   4.3832   9.4182   H         1 RES1   0.0000
    22 C12      4.2705   3.2974   9.2534   C.ar      1 RES1   0.0000
    23 H10      3.8941   2.4618   9.5036   H         1 RES1   0.0000
    24 C13      5.5993   3.4017   8.9374   C.ar      1 RES1   0.0000
    25 H11      6.1523   2.6284   8.9419   H         1 RES1   0.0000
    26 C14      6.1317   4.6341   8.6109   C.ar      1 RES1   0.0000
    27 C15      7.6153   4.7082   8.3323   C.3       1 RES1   0.0000
    28 H12      8.0745   5.0744   9.1291   H         1 RES1   0.0000
    29 H13      7.9595   3.7918   8.1795   H         1 RES1   0.0000
    30 C16      8.6028   5.2280   6.0481   C.2       1 RES1   0.0000
    31 H14      8.9368   4.3769   5.7890   H         1 RES1   0.0000
    32 C17      8.6928   6.4093   5.3502   C.2       1 RES1   0.0000
    33 C18      9.2881   6.7309   4.0366   C.ar      1 RES1   0.0000
    34 C19     10.2157   5.8862   3.4674   C.ar      1 RES1   0.0000
    35 H15     10.4806   5.0914   3.9168   H         1 RES1   0.0000
    36 C20     10.7702   6.2163   2.1988   C.ar      1 RES1   0.0000
    37 H16     11.4156   5.6477   1.7959   H         1 RES1   0.0000
    38 C21     10.3656   7.3551   1.5697   C.ar      1 RES1   0.0000
    39 H17     10.7293   7.5703   0.7189   H         1 RES1   0.0000
    40 C22      9.4452   8.1983   2.1359   C.ar      1 RES1   0.0000
    41 H18      9.1742   8.9872   1.6835   H         1 RES1   0.0000
    42 C23      8.9156   7.8858   3.3746   C.ar      1 RES1   0.0000
    43 H19      8.2872   8.4741   3.7760   H         1 RES1   0.0000
    44 N1       5.0213   9.3218  10.3663   N.2       1 RES1   0.0000
    45 N2       4.8521   8.3837   9.4555   N.2       1 RES1   0.0000
    46 N3       3.5854   7.9449   9.5281   N.pl3     1 RES1   0.0000
    47 N4       5.3809   5.7711   8.5624   N.ar      1 RES1   0.0000
    48 N5       7.9420   5.5351   7.1760   N.pl3     1 RES1   0.0000
    49 N6       7.6282   6.8340   7.1985   N.2       1 RES1   0.0000
    50 N7       8.0813   7.3832   6.0812   N.2       1 RES1   0.0000
    51 C24      8.5513   6.0397  14.2771   C.ar      1 RES1   0.0000
    52 H20      9.2640   6.6572  14.1528   H         1 RES1   0.0000
    53 C25      8.4277   5.3754  15.4858   C.ar      1 RES1   0.0000
    54 H21      9.0595   5.5252  16.1793   H         1 RES1   0.0000
    55 C26      7.3952   4.5109  15.6760   C.ar      1 RES1   0.0000
    56 H22      7.2887   4.0810  16.5178   H         1 RES1   0.0000
    57 C27      6.5148   4.2529  14.6710   C.ar      1 RES1   0.0000
    58 H23      5.8152   3.6222  14.7983   H         1 RES1   0.0000
    59 C28      6.6451   4.9201  13.4503   C.ar      1 RES1   0.0000
    60 H24      6.0244   4.7478  12.7523   H         1 RES1   0.0000
    61 C29      7.6577   5.8198  13.2511   C.ar      1 RES1   0.0000
    62 C30      7.7713   6.5515  11.9794   C.2       1 RES1   0.0000
    63 C31      8.7854   7.3748  11.5376   C.2       1 RES1   0.0000
    64 H25      9.5849   7.6043  11.9974   H         1 RES1   0.0000
    65 C32      9.0789   8.6236   9.3448   C.3       1 RES1   0.0000
    66 H26      9.3395   8.0740   8.5645   H         1 RES1   0.0000
    67 H27      9.9060   8.9877   9.7507   H         1 RES1   0.0000
    68 C33      8.2117   9.7587   8.8835   C.ar      1 RES1   0.0000
    69 C34      8.6238  11.0538   9.1007   C.ar      1 RES1   0.0000
    70 H28      9.4046  11.2262   9.6144   H         1 RES1   0.0000
    71 C35      7.8982  12.0972   8.5674   C.ar      1 RES1   0.0000
    72 H29      8.1506  12.9983   8.7337   H         1 RES1   0.0000
    73 C36      6.8040  11.8069   7.7916   C.ar      1 RES1   0.0000
    74 H30      6.3326  12.5016   7.3497   H         1 RES1   0.0000
    75 C37      6.3952  10.4946   7.6598   C.ar      1 RES1   0.0000
    76 C38      5.1146  10.2480   6.8929   C.3       1 RES1   0.0000
    77 H31      4.3687  10.1643   7.5385   H         1 RES1   0.0000
    78 H32      4.9308  11.0338   6.3192   H         1 RES1   0.0000
    79 C39      4.9354   8.9206   4.7421   C.2       1 RES1   0.0000
    80 H33      4.8014   9.6133   4.1055   H         1 RES1   0.0000
    81 C40      4.9532   7.5693   4.5084   C.2       1 RES1   0.0000
    82 C41      4.7762   6.8385   3.2592   C.ar      1 RES1   0.0000
    83 C42      4.1888   7.4431   2.1748   C.ar      1 RES1   0.0000
    84 H34      3.9035   8.3468   2.2407   H         1 RES1   0.0000
    85 C43      4.0028   6.7463   0.9811   C.ar      1 RES1   0.0000
    86 H35      3.6068   7.1831   0.2352   H         1 RES1   0.0000
    87 C44      4.3874   5.4427   0.8792   C.ar      1 RES1   0.0000
    88 H36      4.2288   4.9560   0.0779   H         1 RES1   0.0000
    89 C45      5.0091   4.8395   1.9516   C.ar      1 RES1   0.0000
    90 H37      5.3077   3.9395   1.8812   H         1 RES1   0.0000
    91 C46      5.2039   5.5393   3.1394   C.ar      1 RES1   0.0000
    92 H38      5.6346   5.1150   3.8718   H         1 RES1   0.0000
    93 N8       6.8049   6.5020  11.0285   N.2       1 RES1   0.0000
    94 N9       7.2078   7.2471  10.0031   N.2       1 RES1   0.0000
    95 N10      8.4014   7.7806  10.3169   N.pl3     1 RES1   0.0000
    96 N11      7.0556   9.4519   8.2123   N.ar      1 RES1   0.0000
    97 N12      5.1480   9.0569   6.0601   N.pl3     1 RES1   0.0000
    98 N13      5.3004   7.8555   6.6356   N.2       1 RES1   0.0000
    99 N14      5.1751   6.9285   5.6873   N.2       1 RES1   0.0000
   100 Cl1     -0.6757   6.0825   8.3838   Cl        2 RES2   0.0000
   101 O1      -1.9351   5.5926   8.8266   O.3       2 RES2  -1.0000
   102 O2      -0.7502   6.3777   7.0097   O.2       2 RES2   0.0000
   103 O3      -0.2843   7.2339   9.1321   O.2       2 RES2   0.0000
   104 O4       0.2853   5.0466   8.6019   O.2       2 RES2   0.0000
   105 Cl2      0.5973  -4.3785  12.0352   Cl        3 RES3   0.0000
   106 O5      -0.8193  -4.2367  11.9514   O.3       3 RES3  -1.0000
   107 O6       1.1254  -4.4220  10.7183   O.2       3 RES3   0.0000
   108 O7       1.1578  -3.2619  12.7132   O.2       3 RES3   0.0000
   109 O8       0.8765  -5.5766  12.7164   O.2       3 RES3   0.0000
   110 C47      1.5932   8.3971   5.4625   C.1       4 RES4   0.0000
   111 C48      0.9159   7.5680   4.4695   C.3       4 RES4   0.0000
   112 H39      0.6131   6.7369   4.8888   H         4 RES4   0.0000
   113 H40      1.5348   7.3600   3.7400   H         4 RES4   0.0000
   114 H41      0.1425   8.0529   4.1130   H         4 RES4   0.0000
   115 N15      2.1120   9.0321   6.2264   N.1       4 RES4   0.0000
   116 O9       6.2901   1.7165   2.1583   O.3       5 RES5   0.0000
   117 C49      8.4682   2.7419   2.9926   C.3       5 RES5   0.0000
   118 H42      8.5275   3.4340   2.3006   H         5 RES5   0.0000
   119 H43      9.3704   2.4481   3.2398   H         5 RES5   0.0000
   120 H44      8.0151   3.1059   3.7820   H         5 RES5   0.0000
   121 C50      7.7869   1.7179   2.5298   C.3       5 RES5   0.0000
   122 H45      7.8993   0.9952   3.1978   H         5 RES5   0.0000
   123 H46      8.2669   1.4197   1.7165   H         5 RES5   0.0000
   124 C51      5.3278   0.8613   1.6730   C.3       5 RES5   0.0000
   125 H47      5.8020   0.4263   0.9212   H         5 RES5   0.0000
   126 H48      5.2911   0.1713   2.3815   H         5 RES5   0.0000
   127 C52      4.1563   0.8695   1.2641   C.3       5 RES5   0.0000
   128 H49      3.5583   1.1374   1.9936   H         5 RES5   0.0000
   129 H50      3.9116  -0.0273   0.9556   H         5 RES5   0.0000
   130 H51      4.0723   1.5056   0.5227   H         5 RES5   0.0000
@<TRIPOS>BOND
     1     1    45    1
     2     2     3    1
     3     4     2   ar
     4     5     4    1
     5     6     4   ar
     6     7     6    1
     7     8     6   ar
     8     9     8    1
     9    10     8   ar
    10    11    10    1
    11    12     2   ar
    12    13    12    1
    13    14    13    2
    14    15    14    1
    15    16    17    1
    16    18    16    1
    17    19    16    1
    18    20    19   ar
    19    21    20    1
    20    22    20   ar
    21    23    22    1
    22    24    22   ar
    23    25    24    1
    24    26    24   ar
    25    27    26    1
    26    28    27    1
    27    29    27    1
    28    30    31    1
    29    32    30    2
    30    33    32    1
    31    34    33   ar
    32    35    34    1
    33    36    34   ar
    34    37    36    1
    35    38    36   ar
    36    39    38    1
    37    40    38   ar
    38    41    40    1
    39    42    33   ar
    40    43    42    1
    41    44    13    1
    42    45    44    2
    43    46    14    1
    44    47     1    1
    45    48    27    1
    46    49     1    1
    47    50    32    1
    48    51    52    1
    49    53    51   ar
    50    54    53    1
    51    55    53   ar
    52    56    55    1
    53    57    55   ar
    54    58    57    1
    55    59    57   ar
    56    60    59    1
    57    61    51   ar
    58    62    61    1
    59    63    62    2
    60    64    63    1
    61    65    66    1
    62    67    65    1
    63    68    65    1
    64    69    68   ar
    65    70    69    1
    66    71    69   ar
    67    72    71    1
    68    73    71   ar
    69    74    73    1
    70    75    73   ar
    71    76    75    1
    72    77    76    1
    73    78    76    1
    74    79    80    1
    75    81    79    2
    76    82    81    1
    77    83    82   ar
    78    84    83    1
    79    85    83   ar
    80    86    85    1
    81    87    85   ar
    82    88    87    1
    83    89    87   ar
    84    90    89    1
    85    91    82   ar
    86    92    91    1
    87    93    62    1
    88    94     1    1
    89    95    63    1
    90    96     1    1
    91    97    76    1
    92    98     1    1
    93    99    81    1
    94    10    12   ar
    95    16    46    1
    96    19    47   ar
    97    26    47   ar
    98    30    48    1
    99    40    42   ar
   100    45    46    1
   101    48    49    1
   102    49    50    2
   103    59    61   ar
   104    65    95    1
   105    68    96   ar
   106    75    96   ar
   107    79    97    1
   108    89    91   ar
   109    93    94    2
   110    94    95    1
   111    97    98    1
   112    98    99    2
   113   100   101    1
   114   102   100    2
   115   103   100    2
   116   104   100    2
   117   105   106    1
   118   107   105    2
   119   108   105    2
   120   109   105    2
   121   110   111    1
   122   111   112    1
   123   113   111    1
   124   114   111    1
   125   115   110    3
   126   116   121    1
   127   117   118    1
   128   119   117    1
   129   120   117    1
   130   121   117    1
   131   122   121    1
   132   123   121    1
   133   124   116    1
   134   125   124    1
   135   126   124    1
   136   127   124    1
   137   128   127    1
   138   129   127    1
   139   130   127    1
@<TRIPOS>SUBSTRUCTURE
     1 RES1        1 GROUP             0 ****  ****    0  
     2 RES2      100 GROUP             0 ****  ****    0  
     3 RES3      105 GROUP             0 ****  ****    0  
     4 RES4      110 GROUP             0 ****  ****    0  
     5 RES5      116 GROUP             0 ****  ****    0  
@<TRIPOS>CRYSIN
   12.4446   14.6888   17.0173  114.1500  101.2550   96.1870     2     1
