@<TRIPOS>MOLECULE
ASAYAW
    75    83     2     0     0
SMALL
USER_CHARGES
****
Generated from the CSD

@<TRIPOS>ATOM
     1 Fe1      1.7105   3.1907  12.1755   Fe        1 RES1   1.0000
     2 S1       1.9254   1.2206  13.1555   S.3       1 RES1   0.0000
     3 N1       2.0757   5.0487  11.3743   N.ar      1 RES1   0.0000
     4 N2      -0.0840   2.6997  11.7079   N.2       1 RES1   0.0000
     5 N3      -1.8533   4.1312  14.3520   N.pl3     1 RES1   0.0000
     6 H1      -1.5683   4.6400  14.9836   H         1 RES1   0.0000
     7 C1      -0.2254   1.9510  10.6514   C.2       1 RES1   0.0000
     8 H2      -1.0488   1.5893  10.4112   H         1 RES1   0.0000
     9 C2       3.2525   2.0989   9.6518   C.ar      1 RES1   0.0000
    10 N4       2.0856   2.2869  10.3606   N.ar      1 RES1   0.0000
    11 N5      -1.2061   2.9577  12.4557   N.2       1 RES1   0.0000
    12 N6       4.0325   0.4966  14.5435   N.pl3     1 RES1   0.0000
    13 H3       3.5139  -0.1712  14.7008   H         1 RES1   0.0000
    14 N7       3.4208   3.5405  12.9569   N.2       1 RES1   0.0000
    15 C3       3.4848   1.5239  13.8673   C.2       1 RES1   0.0000
    16 C4       0.9573   1.7187   9.8854   C.ar      1 RES1   0.0000
    17 C5       5.3582   0.3820  15.0280   C.ar      1 RES1   0.0000
    18 C6       1.2922   5.8337  10.5584   C.ar      1 RES1   0.0000
    19 C7       0.9312   0.9374   8.7198   C.ar      1 RES1   0.0000
    20 H4       0.1307   0.5730   8.4185   H         1 RES1   0.0000
    21 C8       1.5617   7.2237  10.4307   C.ar      1 RES1   0.0000
    22 C9       3.1577   5.6001  11.9479   C.ar      1 RES1   0.0000
    23 C10      2.0730   0.7192   8.0395   C.ar      1 RES1   0.0000
    24 H5       2.0649   0.1892   7.2743   H         1 RES1   0.0000
    25 C11      5.6212   1.7119   8.2064   C.ar      1 RES1   0.0000
    26 H6       6.4135   1.5911   7.7350   H         1 RES1   0.0000
    27 C12     -0.9066   3.7111  13.4934   C.2       1 RES1   0.0000
    28 C13     -0.3561   7.4637   8.9960   C.ar      1 RES1   0.0000
    29 H7      -0.9328   8.0025   8.5042   H         1 RES1   0.0000
    30 C14      5.6065   2.5029   9.3467   C.ar      1 RES1   0.0000
    31 H8       6.3939   2.9084   9.6313   H         1 RES1   0.0000
    32 C15      7.3937   1.2628  15.9206   C.ar      1 RES1   0.0000
    33 H9       7.8854   1.9840  16.2414   H         1 RES1   0.0000
    34 C16      0.6926   8.0133   9.6482   C.ar      1 RES1   0.0000
    35 H10      0.8446   8.9287   9.5798   H         1 RES1   0.0000
    36 C17      0.2254   5.2866   9.8275   C.ar      1 RES1   0.0000
    37 H11      0.0637   4.3716   9.8669   H         1 RES1   0.0000
    38 C18     -4.0252   4.7590  15.0882   C.ar      1 RES1   0.0000
    39 H12     -3.6331   5.5050  15.4829   H         1 RES1   0.0000
    40 C19      6.0901   1.4529  15.5049   C.ar      1 RES1   0.0000
    41 H13      5.7062   2.2993  15.5450   H         1 RES1   0.0000
    42 C20      5.9316  -0.8815  15.0130   C.ar      1 RES1   0.0000
    43 H14      5.4350  -1.6128  14.7244   H         1 RES1   0.0000
    44 C21     -3.8226   2.7552  13.8187   C.ar      1 RES1   0.0000
    45 H15     -3.3097   2.1497  13.3338   H         1 RES1   0.0000
    46 C22      7.2319  -1.0541  15.4244   C.ar      1 RES1   0.0000
    47 H16      7.6126  -1.9029  15.4057   H         1 RES1   0.0000
    48 C23      7.9687   0.0144  15.8625   C.ar      1 RES1   0.0000
    49 H17      8.8557  -0.1027  16.1192   H         1 RES1   0.0000
    50 C24      3.5171   6.9516  11.7709   C.ar      1 RES1   0.0000
    51 H18      4.3029   7.2853  12.1425   H         1 RES1   0.0000
    52 C25      3.2737   1.2909   8.4845   C.ar      1 RES1   0.0000
    53 C26     -3.2427   3.8688  14.3824   C.ar      1 RES1   0.0000
    54 C27      4.4891   1.1172   7.7836   C.ar      1 RES1   0.0000
    55 H19      4.5071   0.5856   7.0215   H         1 RES1   0.0000
    56 C28     -0.5783   6.0798   9.0605   C.ar      1 RES1   0.0000
    57 H20     -1.2758   5.6996   8.5771   H         1 RES1   0.0000
    58 C29      2.6987   7.7565  11.0501   C.ar      1 RES1   0.0000
    59 H21      2.8931   8.6620  10.9661   H         1 RES1   0.0000
    60 C30     -5.1818   2.5552  13.9879   C.ar      1 RES1   0.0000
    61 H22     -5.5771   1.7948  13.6252   H         1 RES1   0.0000
    62 C31     -5.3696   4.5554  15.2129   C.ar      1 RES1   0.0000
    63 H23     -5.8908   5.1770  15.6671   H         1 RES1   0.0000
    64 C32      4.4565   2.6970  10.0600   C.ar      1 RES1   0.0000
    65 H24      4.4712   3.2291  10.8226   H         1 RES1   0.0000
    66 C33     -5.9528   3.4453  14.6740   C.ar      1 RES1   0.0000
    67 H25     -6.8660   3.2994  14.7736   H         1 RES1   0.0000
    68 S2       0.7214   4.2339  13.8634   S.3       1 RES1   0.0000
    69 N8       4.1289   2.6624  13.7415   N.2       1 RES1   0.0000
    70 C34      3.9092   4.7310  12.8082   C.2       1 RES1   0.0000
    71 H26      4.6917   5.0040  13.2288   H         1 RES1   0.0000
    72 N9       6.4298   6.3633  14.6757   N.pl3     2 RES2   0.0000
    73 O1       6.5034   6.4510  13.4484   O.3       2 RES2  -1.0000
    74 O2       7.0359   5.5140  15.2776   O.2       2 RES2   0.0000
    75 O3       5.7029   7.1529  15.2607   O.2       2 RES2   0.0000
@<TRIPOS>BOND
     1     1     2    1
     2     2    15    1
     3     3     1    1
     4     4     1    1
     5     5     6    1
     6     7     4    2
     7     8     7    1
     8     9    10   ar
     9    10     1    1
    10    11     4    1
    11    12    13    1
    12    14     1    1
    13    15    12    1
    14    16     7    1
    15    17    12    1
    16    18     3   ar
    17    19    16   ar
    18    20    19    1
    19    21    18   ar
    20    22     3   ar
    21    23    19   ar
    22    24    23    1
    23    25    26    1
    24    27     5    1
    25    28    29    1
    26    30    25   ar
    27    31    30    1
    28    32    33    1
    29    34    21   ar
    30    35    34    1
    31    36    18   ar
    32    37    36    1
    33    38    39    1
    34    40    17   ar
    35    41    40    1
    36    42    17   ar
    37    43    42    1
    38    44    45    1
    39    46    42   ar
    40    47    46    1
    41    48    32   ar
    42    49    48    1
    43    50    22   ar
    44    51    50    1
    45    52     9   ar
    46    53     5    1
    47    54    25   ar
    48    55    54    1
    49    56    28   ar
    50    57    56    1
    51    58    21   ar
    52    59    58    1
    53    60    44   ar
    54    61    60    1
    55    62    38   ar
    56    63    62    1
    57    64     9   ar
    58    65    64    1
    59    66    60   ar
    60    67    66    1
    61    68     1    1
    62    69    14    1
    63    70    14    2
    64    71    70    1
    65    10    16   ar
    66    11    27    2
    67    15    69    2
    68    22    70    1
    69    23    52   ar
    70    27    68    1
    71    28    34   ar
    72    30    64   ar
    73    32    40   ar
    74    36    56   ar
    75    38    53   ar
    76    44    53   ar
    77    46    48   ar
    78    50    58   ar
    79    52    54   ar
    80    62    66   ar
    81    72    73    1
    82    74    72    2
    83    75    72    2
@<TRIPOS>SUBSTRUCTURE
     1 RES1        1 GROUP             0 ****  ****    0  
     2 RES2       72 GROUP             0 ****  ****    0  
@<TRIPOS>CRYSIN
   16.3360   18.0196   21.4266   90.0000   90.0000   90.0000    61     1
