@<TRIPOS>MOLECULE
ATASEU
    89    97     3     0     0
SMALL
USER_CHARGES
****
Generated from the CSD

@<TRIPOS>ATOM
     1 C1       5.2637   2.5614  13.3584   C.ar      1 RES1   0.0000
     2 C2       5.0471   2.6153  14.7539   C.ar      1 RES1   0.0000
     3 C3       5.1584   3.8298  15.4118   C.ar      1 RES1   0.0000
     4 H1       5.0024   3.8678  16.3488   H         1 RES1   0.0000
     5 C4       5.4900   4.9760  14.7372   C.ar      1 RES1   0.0000
     6 H2       5.5819   5.7946  15.2110   H         1 RES1   0.0000
     7 C5       5.6918   4.9456  13.3677   C.ar      1 RES1   0.0000
     8 H3       5.9172   5.7404  12.9003   H         1 RES1   0.0000
     9 C6       5.5639   3.7483  12.6833   C.ar      1 RES1   0.0000
    10 C7       5.1216   1.2642  12.6266   C.ar      1 RES1   0.0000
    11 C8       6.0818   0.2483  12.7907   C.ar      1 RES1   0.0000
    12 C9       5.9412  -0.9351  12.0727   C.ar      1 RES1   0.0000
    13 H4       6.5811  -1.6277  12.1867   H         1 RES1   0.0000
    14 C10      4.8927  -1.1226  11.2002   C.ar      1 RES1   0.0000
    15 H5       4.8086  -1.9386  10.7227   H         1 RES1   0.0000
    16 C11      3.9655  -0.1149  11.0234   C.ar      1 RES1   0.0000
    17 H6       3.2482  -0.2332  10.4112   H         1 RES1   0.0000
    18 C12      4.0776   1.0656  11.7348   C.ar      1 RES1   0.0000
    19 C13      6.6211   2.9157  10.5535   C.3       1 RES1   0.0000
    20 H7       6.8277   2.1435  11.1366   H         1 RES1   0.0000
    21 H8       7.4586   3.4202  10.4010   H         1 RES1   0.0000
    22 C14      6.0773   2.4269   9.2386   C.ar      1 RES1   0.0000
    23 C15      6.8127   1.7388   8.2937   C.ar      1 RES1   0.0000
    24 H9       7.7347   1.5617   8.4355   H         1 RES1   0.0000
    25 C16      6.1847   1.3099   7.1339   C.ar      1 RES1   0.0000
    26 H10      6.6744   0.8362   6.4714   H         1 RES1   0.0000
    27 C17      4.8440   1.5744   6.9478   C.ar      1 RES1   0.0000
    28 H11      4.4038   1.2838   6.1569   H         1 RES1   0.0000
    29 C18      4.1466   2.2629   7.9173   C.ar      1 RES1   0.0000
    30 C19      2.7211   2.6184   7.9094   C.ar      1 RES1   0.0000
    31 C20      1.8161   2.2846   6.9116   C.ar      1 RES1   0.0000
    32 H12      2.1093   1.8138   6.1394   H         1 RES1   0.0000
    33 C21      0.4896   2.6382   7.0461   C.ar      1 RES1   0.0000
    34 H13     -0.1391   2.4144   6.3705   H         1 RES1   0.0000
    35 C22      0.0918   3.3203   8.1737   C.ar      1 RES1   0.0000
    36 H14     -0.8174   3.5710   8.2863   H         1 RES1   0.0000
    37 C23      1.0175   3.6362   9.1311   C.ar      1 RES1   0.0000
    38 H15      0.7318   4.1127   9.9023   H         1 RES1   0.0000
    39 C24      2.3230   2.6083  12.6457   C.3       1 RES1   0.0000
    40 H16      2.7046   2.2330  13.4780   H         1 RES1   0.0000
    41 H17      1.3853   2.2966  12.5713   H         1 RES1   0.0000
    42 C25      2.3481   4.1111  12.7149   C.ar      1 RES1   0.0000
    43 C26      1.8814   4.8625  13.7797   C.ar      1 RES1   0.0000
    44 H18      1.5521   4.4378  14.5632   H         1 RES1   0.0000
    45 C27      1.9027   6.2435  13.6828   C.ar      1 RES1   0.0000
    46 H19      1.5627   6.7768  14.3920   H         1 RES1   0.0000
    47 C28      2.4235   6.8494  12.5450   C.ar      1 RES1   0.0000
    48 H20      2.4339   7.7968  12.4689   H         1 RES1   0.0000
    49 C29      2.9230   6.0655  11.5299   C.ar      1 RES1   0.0000
    50 C30      3.5558   6.5045  10.2918   C.ar      1 RES1   0.0000
    51 C31      3.6754   7.8250   9.8906   C.ar      1 RES1   0.0000
    52 H21      3.3812   8.5293  10.4566   H         1 RES1   0.0000
    53 C32      4.2294   8.1065   8.6534   C.ar      1 RES1   0.0000
    54 H22      4.3202   9.0075   8.3667   H         1 RES1   0.0000
    55 C33      4.6484   7.0802   7.8402   C.ar      1 RES1   0.0000
    56 H23      5.0001   7.2574   6.9759   H         1 RES1   0.0000
    57 C34      4.5443   5.7816   8.3111   C.ar      1 RES1   0.0000
    58 H24      4.8556   5.0738   7.7598   H         1 RES1   0.0000
    59 C35      4.5942   1.4079  15.5358   C.3       1 RES1   0.0000
    60 H25      4.9879   1.4322  16.4322   H         1 RES1   0.0000
    61 H26      4.8828   0.5936  15.0750   H         1 RES1   0.0000
    62 H27      3.6166   1.4133  15.6073   H         1 RES1   0.0000
    63 C36      7.2926   0.4447  13.6667   C.3       1 RES1   0.0000
    64 H28      7.0331   0.3557  14.6085   H         1 RES1   0.0000
    65 H29      7.6660   1.3379  13.5146   H         1 RES1   0.0000
    66 H30      7.9668  -0.2332  13.4502   H         1 RES1   0.0000
    67 N1       5.6158   3.7990  11.2266   N.pl3     1 RES1   0.0000
    68 N2       4.7710   2.6917   9.0375   N.ar      1 RES1   0.0000
    69 N3       2.3178   3.2989   9.0222   N.ar      1 RES1   0.0000
    70 N4       3.1104   2.1124  11.4652   N.pl3     1 RES1   0.0000
    71 N5       2.8633   4.7033  11.6309   N.ar      1 RES1   0.0000
    72 N6       4.0222   5.4813   9.5114   N.ar      1 RES1   0.0000
    73 Fe1      3.7667   3.6847  10.3018   Fe        1 RES1   2.0000
    74 H31      2.5220   1.7690  10.9143   H         1 RES1   0.0000
    75 H32      5.8269   4.6168  11.0123   H         1 RES1   0.0000
    76 F1      10.1461   6.4461  10.8764   F         2 RES2   0.0000
    77 F2       8.4976   7.4324  12.0344   F         2 RES2   0.0000
    78 F3       8.5721   7.7054   9.7895   F         2 RES2   0.0000
    79 F4       6.9819   6.4204  10.6990   F         2 RES2   0.0000
    80 F5       8.6567   5.4759   9.5772   F         2 RES2   0.0000
    81 F6       8.5069   5.2179  11.7955   F         2 RES2   0.0000
    82 P1       8.5581   6.4727  10.7988   P.3       2 RES2  -1.0000
    83 F7       0.3176  -1.4786  10.1209   F         3 RES3   0.0000
    84 F8      -0.7148   0.0066   8.8043   F         3 RES3   0.0000
    85 F9      -1.8177  -0.9033  10.5247   F         3 RES3   0.0000
    86 F10     -0.1897  -0.2122  11.9012   F         3 RES3   0.0000
    87 F11     -1.2167   1.2661  10.5916   F         3 RES3   0.0000
    88 F12      0.9175   0.6791  10.1420   F         3 RES3   0.0000
    89 P2      -0.4677  -0.1072  10.3592   P.3       3 RES3  -1.0000
@<TRIPOS>BOND
     1     1     2   ar
     2     2     3   ar
     3     3     4    1
     4     5     3   ar
     5     6     5    1
     6     7     5   ar
     7     8     7    1
     8     9     1   ar
     9    10     1    1
    10    11    10   ar
    11    12    11   ar
    12    13    12    1
    13    14    12   ar
    14    15    14    1
    15    16    14   ar
    16    17    16    1
    17    18    10   ar
    18    19    20    1
    19    21    19    1
    20    22    19    1
    21    23    22   ar
    22    24    23    1
    23    25    23   ar
    24    26    25    1
    25    27    25   ar
    26    28    27    1
    27    29    27   ar
    28    30    29    1
    29    31    30   ar
    30    32    31    1
    31    33    31   ar
    32    34    33    1
    33    35    33   ar
    34    36    35    1
    35    37    35   ar
    36    38    37    1
    37    39    40    1
    38    41    39    1
    39    42    39    1
    40    43    42   ar
    41    44    43    1
    42    45    43   ar
    43    46    45    1
    44    47    45   ar
    45    48    47    1
    46    49    47   ar
    47    50    49    1
    48    51    50   ar
    49    52    51    1
    50    53    51   ar
    51    54    53    1
    52    55    53   ar
    53    56    55    1
    54    57    55   ar
    55    58    57    1
    56    59     2    1
    57    60    59    1
    58    61    59    1
    59    62    59    1
    60    63    11    1
    61    64    63    1
    62    65    63    1
    63    66    63    1
    64    67     9    1
    65    68    22   ar
    66    69    30   ar
    67    70    18    1
    68    71    42   ar
    69    72    50   ar
    70    73    67    1
    71    74    70    1
    72    75    67    1
    73     7     9   ar
    74    16    18   ar
    75    19    67    1
    76    29    68   ar
    77    37    69   ar
    78    39    70    1
    79    49    71   ar
    80    57    72   ar
    81    68    73    1
    82    69    73    1
    83    70    73    1
    84    71    73    1
    85    72    73    1
    86    76    82    1
    87    77    82    1
    88    78    82    1
    89    79    82    1
    90    80    82    1
    91    81    82    1
    92    83    89    1
    93    84    89    1
    94    85    89    1
    95    86    89    1
    96    87    89    1
    97    88    89    1
@<TRIPOS>SUBSTRUCTURE
     1 RES1        1 GROUP             0 ****  ****    0  
     2 RES2       76 GROUP             0 ****  ****    0  
     3 RES3       83 GROUP             0 ****  ****    0  
@<TRIPOS>CRYSIN
   10.4965   23.5552   14.7345   90.0000   97.0030   90.0000   231     1
