@<TRIPOS>MOLECULE
ATELIX
    77    87     1     0     0
SMALL
NO_CHARGES
****
Generated from the CSD

@<TRIPOS>ATOM
     1 Fe1      3.9995  11.1926   2.1201   Fe        1 RES1   0.0000
     2 C1       4.3277   9.4982   1.6635   C.1       1 RES1   0.0000
     3 O1       4.4376   8.4079   1.3352   O.2       1 RES1   0.0000
     4 S1       1.7850  10.6137   2.2775   S.3       1 RES1   0.0000
     5 C2       1.0080  11.6557   3.4933   C.ar      1 RES1   0.0000
     6 C3       0.0589  11.0740   4.3300   C.ar      1 RES1   0.0000
     7 H1      -0.1386  10.1495   4.2297   H         1 RES1   0.0000
     8 C4      -0.6064  11.8008   5.3057   C.ar      1 RES1   0.0000
     9 H2      -1.2637  11.3829   5.8482   H         1 RES1   0.0000
    10 C5      -0.3117  13.1083   5.4746   C.ar      1 RES1   0.0000
    11 H3      -0.7496  13.6058   6.1558   H         1 RES1   0.0000
    12 C6       0.6364  13.7327   4.6528   C.ar      1 RES1   0.0000
    13 H4       0.8296  14.6546   4.7804   H         1 RES1   0.0000
    14 C7       1.3017  13.0204   3.6497   C.ar      1 RES1   0.0000
    15 C8       3.5684  13.1266   2.4783   C.ar      1 RES1   0.0000
    16 C9       2.3586  13.7351   2.8676   C.ar      1 RES1   0.0000
    17 C10      2.1828  15.1218   2.6243   C.ar      1 RES1   0.0000
    18 H5       1.3459  15.5235   2.8243   H         1 RES1   0.0000
    19 C11      3.1858  15.8975   2.1079   C.ar      1 RES1   0.0000
    20 H6       3.0193  16.8079   1.8952   H         1 RES1   0.0000
    21 C12      4.4505  15.3535   1.8969   C.ar      1 RES1   0.0000
    22 H7       5.1793  15.9019   1.6311   H         1 RES1   0.0000
    23 C13      4.6154  13.9717   2.0856   C.ar      1 RES1   0.0000
    24 N1       5.8312  11.9435   1.9093   N.ar      1 RES1   0.0000
    25 C14      5.9131  13.3132   1.8949   C.ar      1 RES1   0.0000
    26 C15      7.1309  13.9449   1.7131   C.ar      1 RES1   0.0000
    27 H8       7.1742  14.8942   1.7344   H         1 RES1   0.0000
    28 C16      8.2837  13.2144   1.5021   C.ar      1 RES1   0.0000
    29 H9       9.1176  13.6467   1.3606   H         1 RES1   0.0000
    30 C17      8.1898  11.8289   1.5021   C.ar      1 RES1   0.0000
    31 H10      8.9614  11.2944   1.3555   H         1 RES1   0.0000
    32 C18      6.9590  11.2374   1.7181   C.ar      1 RES1   0.0000
    33 H11      6.9080  10.2891   1.7329   H         1 RES1   0.0000
    34 P1       3.6265  11.6604  -0.0221   P.3       1 RES1   0.0000
    35 C19      2.9590  10.3129  -1.0800   C.3       1 RES1   0.0000
    36 H12      3.5812   9.5431  -1.0465   H         1 RES1   0.0000
    37 H13      2.0920  10.0143  -0.7076   H         1 RES1   0.0000
    38 C20      2.4945  13.0070  -0.5437   C.3       1 RES1   0.0000
    39 H14      1.5978  12.8458  -0.1569   H         1 RES1   0.0000
    40 H15      2.8289  13.8684  -0.1883   H         1 RES1   0.0000
    41 C21      5.0649  12.1070  -1.1197   C.3       1 RES1   0.0000
    42 H16      5.4833  12.9380  -0.7826   H         1 RES1   0.0000
    43 H17      5.7429  11.3862  -1.0729   H         1 RES1   0.0000
    44 N2       2.7602  10.6996  -2.4927   N.3       1 RES1   0.0000
    45 C22      1.8711  11.8606  -2.6045   C.3       1 RES1   0.0000
    46 H18      1.6843  12.0201  -3.5623   H         1 RES1   0.0000
    47 H19      1.0113  11.6389  -2.1657   H         1 RES1   0.0000
    48 N3       2.3806  13.0997  -2.0198   N.3       1 RES1   0.0000
    49 C23      3.6683  13.3924  -2.6343   C.3       1 RES1   0.0000
    50 H20      4.0408  14.2065  -2.2127   H         1 RES1   0.0000
    51 H21      3.5218  13.5924  -3.5928   H         1 RES1   0.0000
    52 N4       4.6703  12.3033  -2.5275   N.3       1 RES1   0.0000
    53 C24      4.0450  11.0776  -3.0787   C.3       1 RES1   0.0000
    54 H22      3.9178  11.2039  -4.0525   H         1 RES1   0.0000
    55 H23      4.6767  10.3244  -2.9580   H         1 RES1   0.0000
    56 P2       4.3689  10.7031   4.2545   P.3       1 RES1   0.0000
    57 C25      4.2817   8.9299   4.7421   C.3       1 RES1   0.0000
    58 H24      3.3597   8.6012   4.5920   H         1 RES1   0.0000
    59 H25      4.8864   8.4066   4.1591   H         1 RES1   0.0000
    60 C26      3.3906  11.3679   5.6881   C.3       1 RES1   0.0000
    61 H26      3.4434  12.3563   5.6871   H         1 RES1   0.0000
    62 H27      2.4396  11.1141   5.5776   H         1 RES1   0.0000
    63 C27      6.0430  11.0435   4.9234   C.3       1 RES1   0.0000
    64 H28      6.7150  10.6023   4.3474   H         1 RES1   0.0000
    65 H29      6.2094  12.0190   4.8899   H         1 RES1   0.0000
    66 N5       4.6483   8.6872   6.1449   N.3       1 RES1   0.0000
    67 C28      3.7902   9.4190   7.0462   C.3       1 RES1   0.0000
    68 H30      2.8529   9.1604   6.8615   H         1 RES1   0.0000
    69 H31      3.9989   9.1349   7.9714   H         1 RES1   0.0000
    70 N6       3.8841  10.8544   6.9816   N.3       1 RES1   0.0000
    71 C29      5.2907  11.2252   7.1976   C.3       1 RES1   0.0000
    72 H32      5.3796  12.2053   7.0942   H         1 RES1   0.0000
    73 H33      5.5385  10.9991   8.1298   H         1 RES1   0.0000
    74 N7       6.2218  10.5800   6.3038   N.3       1 RES1   0.0000
    75 C30      6.0160   9.1189   6.4031   C.3       1 RES1   0.0000
    76 H34      6.6181   8.6688   5.7584   H         1 RES1   0.0000
    77 H35      6.2755   8.8225   7.3116   H         1 RES1   0.0000
@<TRIPOS>BOND
     1     1     2    1
     2     2     3    3
     3     4     1    1
     4     5     4    1
     5     6     5   ar
     6     7     6    1
     7     8     6   ar
     8     9     8    1
     9    10     8   ar
    10    11    10    1
    11    12    10   ar
    12    13    12    1
    13    14     5   ar
    14    15     1    1
    15    16    14    1
    16    17    16   ar
    17    18    17    1
    18    19    17   ar
    19    20    19    1
    20    21    19   ar
    21    22    21    1
    22    23    15   ar
    23    24     1    1
    24    25    23    1
    25    26    25   ar
    26    27    26    1
    27    28    26   ar
    28    29    28    1
    29    30    28   ar
    30    31    30    1
    31    32    24   ar
    32    33    32    1
    33    34     1    1
    34    35    34    1
    35    36    35    1
    36    37    35    1
    37    38    34    1
    38    39    38    1
    39    40    38    1
    40    41    34    1
    41    42    41    1
    42    43    41    1
    43    44    35    1
    44    45    44    1
    45    46    45    1
    46    47    45    1
    47    48    38    1
    48    49    48    1
    49    50    49    1
    50    51    49    1
    51    52    41    1
    52    53    44    1
    53    54    53    1
    54    55    53    1
    55    56     1    1
    56    57    56    1
    57    58    57    1
    58    59    57    1
    59    60    56    1
    60    61    60    1
    61    62    60    1
    62    63    56    1
    63    64    63    1
    64    65    63    1
    65    66    57    1
    66    67    66    1
    67    68    67    1
    68    69    67    1
    69    70    60    1
    70    71    70    1
    71    72    71    1
    72    73    71    1
    73    74    63    1
    74    75    66    1
    75    76    75    1
    76    77    75    1
    77    12    14   ar
    78    15    16   ar
    79    21    23   ar
    80    24    25   ar
    81    30    32   ar
    82    45    48    1
    83    49    52    1
    84    52    53    1
    85    67    70    1
    86    71    74    1
    87    74    75    1
@<TRIPOS>SUBSTRUCTURE
     1 RES1        1 GROUP             0 ****  ****    0  
@<TRIPOS>CRYSIN
    9.9900   12.1960   24.8280   90.0000   90.0000   90.0000    19     1
