@<TRIPOS>MOLECULE
AVAZIJ
   143   152     3     0     0
SMALL
NO_CHARGES
****
Generated from the CSD

@<TRIPOS>ATOM
     1 Fe1      2.8281   4.3297   6.9418   Fe        1 RES1   0.0000
     2 O1      -0.4861   0.9667   3.1085   O.3       1 RES1   0.0000
     3 O2      -0.1457   1.8193  11.5358   O.3       1 RES1   0.0000
     4 O3      -0.8346  -0.0919   8.5703   O.3       1 RES1   0.0000
     5 O4       3.7064   5.6826  12.7437   O.3       1 RES1   0.0000
     6 N1       4.0998   5.7327   7.3347   N.2       1 RES1   0.0000
     7 N2       0.8742   2.2949   8.7786   N.2       1 RES1   0.0000
     8 N3       2.5535   4.0729   8.8383   N.2       1 RES1   0.0000
     9 N4       4.0523   5.7281   9.7629   N.2       1 RES1   0.0000
    10 N5       4.3334   2.8873   7.0278   N.3       1 RES1   0.0000
    11 C1       1.6406   3.1904   9.3867   C.2       1 RES1   0.0000
    12 C2       2.5436   4.3636  11.1443   C.ar      1 RES1   0.0000
    13 C3       0.8682   2.1541   7.4499   C.2       1 RES1   0.0000
    14 C4       1.5919   3.3716  10.8333   C.ar      1 RES1   0.0000
    15 C5       3.1356   4.7856   9.8823   C.2       1 RES1   0.0000
    16 C6      -0.5821   0.7321   4.4719   C.2       1 RES1   0.0000
    17 C7      -1.4362  -0.2558   4.9231   C.2       1 RES1   0.0000
    18 H1      -1.9523  -0.7471   4.2956   H         1 RES1   0.0000
    19 C8       4.5002   6.1654   8.5911   C.2       1 RES1   0.0000
    20 C9      -0.8152   0.1369   7.2347   C.2       1 RES1   0.0000
    21 C10      0.1605   1.4353   5.4021   C.2       1 RES1   0.0000
    22 C11      2.7695   4.7172  12.4855   C.ar      1 RES1   0.0000
    23 C12      0.8135   2.7790  11.8218   C.ar      1 RES1   0.0000
    24 C13     -1.5565  -0.5480   6.2865   C.2       1 RES1   0.0000
    25 H2      -2.1578  -1.2275   6.5669   H         1 RES1   0.0000
    26 C14      0.0172   1.1884   6.7766   C.2       1 RES1   0.0000
    27 C15      1.0431   3.1506  13.1241   C.ar      1 RES1   0.0000
    28 H3       0.5317   2.7454  13.8155   H         1 RES1   0.0000
    29 C16     -1.3457   2.3789  10.9319   C.3       1 RES1   0.0000
    30 H4      -1.7466   1.7152  10.3155   H         1 RES1   0.0000
    31 H5      -1.1069   3.1834  10.4043   H         1 RES1   0.0000
    32 C17      1.9966   4.0967  13.4601   C.ar      1 RES1   0.0000
    33 H6       2.1236   4.3275  14.3722   H         1 RES1   0.0000
    34 C18     -1.7516  -1.0989   9.0423   C.3       1 RES1   0.0000
    35 H7      -1.6105  -1.9485   8.5550   H         1 RES1   0.0000
    36 H8      -2.6867  -0.8059   8.9021   H         1 RES1   0.0000
    37 C19     -1.0401   2.2393   2.6990   C.3       1 RES1   0.0000
    38 H9      -0.4598   2.6501   2.0103   H         1 RES1   0.0000
    39 H10     -1.0821   2.8515   3.4750   H         1 RES1   0.0000
    40 C20      3.7986   6.1048  14.1168   C.3       1 RES1   0.0000
    41 H11      4.0564   5.3425  14.6916   H         1 RES1   0.0000
    42 H12      2.9244   6.4512  14.4278   H         1 RES1   0.0000
    43 C21     -1.4764  -1.2834  10.5084   C.3       1 RES1   0.0000
    44 H13     -0.5493  -1.5778  10.6320   H         1 RES1   0.0000
    45 H14     -2.0846  -1.9596  10.8722   H         1 RES1   0.0000
    46 H15     -1.6144  -0.4331  10.9763   H         1 RES1   0.0000
    47 C22      4.8408   7.1857  14.1904   C.3       1 RES1   0.0000
    48 H16      5.7263   6.7970  14.0293   H         1 RES1   0.0000
    49 H17      4.8214   7.5977  15.0789   H         1 RES1   0.0000
    50 H18      4.6539   7.8668  13.5101   H         1 RES1   0.0000
    51 C23     -2.3426   2.7505  11.9898   C.3       1 RES1   0.0000
    52 H19     -2.5955   1.9501  12.4952   H         1 RES1   0.0000
    53 H20     -3.1394   3.1346  11.5664   H         1 RES1   0.0000
    54 H21     -1.9448   3.4082  12.5965   H         1 RES1   0.0000
    55 C24     -2.4413   2.0256   2.1325   C.3       1 RES1   0.0000
    56 H22     -2.3916   1.4352   1.3523   H         1 RES1   0.0000
    57 H23     -2.8213   2.8879   1.8659   H         1 RES1   0.0000
    58 H24     -3.0108   1.6148   2.8170   H         1 RES1   0.0000
    59 C25      5.3585   3.0226   8.0497   C.3       1 RES1   0.0000
    60 H25      5.9175   2.2174   8.0608   H         1 RES1   0.0000
    61 H26      4.9342   3.1373   8.9257   H         1 RES1   0.0000
    62 H27      5.9160   3.8043   7.8511   H         1 RES1   0.0000
    63 C26      5.0144   2.5814   5.7672   C.3       1 RES1   0.0000
    64 H28      5.4637   3.3855   5.4340   H         1 RES1   0.0000
    65 H29      4.3575   2.2768   5.1064   H         1 RES1   0.0000
    66 H30      5.6778   1.8744   5.9172   H         1 RES1   0.0000
    67 H31      3.8950   2.2271   7.2056   H         1 RES1   0.0000
    68 O1A      6.1422   7.6928  10.7750   O.3       1 RES1   0.0000
    69 O2A      5.8018   6.8402   2.3477   O.3       1 RES1   0.0000
    70 O3A      6.4907   8.7514   5.3132   O.3       1 RES1   0.0000
    71 O4A      1.9498   2.9768   1.1398   O.3       1 RES1   0.0000
    72 N1A      1.5563   2.9267   6.5489   N.2       1 RES1   0.0000
    73 N2A      4.7820   6.3645   5.1050   N.2       1 RES1   0.0000
    74 N3A      3.1026   4.5866   5.0453   N.2       1 RES1   0.0000
    75 N4A      1.6039   2.9313   4.1206   N.2       1 RES1   0.0000
    76 C1A      4.0155   5.4691   4.4969   C.2       1 RES1   0.0000
    77 C2A      3.1126   4.2959   2.7392   C.ar      1 RES1   0.0000
    78 C3A      4.7879   6.5054   6.4336   C.2       1 RES1   0.0000
    79 C4A      4.0642   5.2879   3.0502   C.ar      1 RES1   0.0000
    80 C5A      2.5206   3.8739   4.0012   C.2       1 RES1   0.0000
    81 C6A      6.2382   7.9274   9.4116   C.ar      1 RES1   0.0000
    82 C7A      7.0924   8.9153   8.9604   C.ar      1 RES1   0.0000
    83 H1A      7.6084   9.4066   9.5880   H         1 RES1   0.0000
    84 C8A      1.1560   2.4940   5.2924   C.2       1 RES1   0.0000
    85 C9A      6.4713   8.5225   6.6488   C.ar      1 RES1   0.0000
    86 C10A     5.4956   7.2242   8.4814   C.ar      1 RES1   0.0000
    87 C11A     2.8867   3.9423   1.3981   C.ar      1 RES1   0.0000
    88 C12A     4.8427   5.8805   2.0617   C.ar      1 RES1   0.0000
    89 C13A     7.2127   9.2075   7.5971   C.ar      1 RES1   0.0000
    90 H2A      7.8140   9.8869   7.3166   H         1 RES1   0.0000
    91 C14A     5.6390   7.4711   7.1070   C.ar      1 RES1   0.0000
    92 C15A     4.6130   5.5089   0.7594   C.ar      1 RES1   0.0000
    93 H3A      5.1244   5.9140   0.0680   H         1 RES1   0.0000
    94 C16A     7.0018   6.2806   2.9516   C.3       1 RES1   0.0000
    95 H4A      7.4027   6.9443   3.5681   H         1 RES1   0.0000
    96 H5A      6.7631   5.4760   3.4792   H         1 RES1   0.0000
    97 C17A     3.6595   4.5628   0.4234   C.ar      1 RES1   0.0000
    98 H6A      3.5326   4.3320  -0.4887   H         1 RES1   0.0000
    99 C18A     7.4077   9.7583   4.8412   C.3       1 RES1   0.0000
   100 H7A      7.2666  10.6079   5.3285   H         1 RES1   0.0000
   101 H8A      8.3428   9.4654   4.9814   H         1 RES1   0.0000
   102 C19A     6.6962   6.4202  11.1846   C.3       1 RES1   0.0000
   103 H9A      6.1160   6.0094  11.8732   H         1 RES1   0.0000
   104 H10A     6.7382   5.8080  10.4085   H         1 RES1   0.0000
   105 C20A     1.8575   2.5546  -0.2332   C.3       1 RES1   0.0000
   106 H11A     1.5998   3.3169  -0.8080   H         1 RES1   0.0000
   107 H12A     2.7318   2.2082  -0.5442   H         1 RES1   0.0000
   108 C21A     7.1326   9.9429   3.3751   C.3       1 RES1   0.0000
   109 H13A     6.2055  10.2373   3.2515   H         1 RES1   0.0000
   110 H14A     7.7408  10.6190   3.0113   H         1 RES1   0.0000
   111 H15A     7.2706   9.0926   2.9072   H         1 RES1   0.0000
   112 C22A     0.8153   1.4738  -0.3068   C.3       1 RES1   0.0000
   113 H16A    -0.0701   1.8624  -0.1458   H         1 RES1   0.0000
   114 H17A     0.8347   1.0618  -1.1954   H         1 RES1   0.0000
   115 H18A     1.0022   0.7927   0.3735   H         1 RES1   0.0000
   116 C23A     7.9988   5.9089   1.8937   C.3       1 RES1   0.0000
   117 H19A     8.2516   6.7094   1.3884   H         1 RES1   0.0000
   118 H20A     8.7956   5.5249   2.3172   H         1 RES1   0.0000
   119 H21A     7.6010   5.2513   1.2870   H         1 RES1   0.0000
   120 C24A     8.0974   6.6338  11.7510   C.3       1 RES1   0.0000
   121 H22A     8.0478   7.2243  12.5313   H         1 RES1   0.0000
   122 H23A     8.4774   5.7716  12.0176   H         1 RES1   0.0000
   123 H24A     8.6669   7.0446  11.0666   H         1 RES1   0.0000
   124 N5A      1.3227   5.7721   6.8557   N.3       1 RES1   0.0000
   125 C25A     0.2977   5.6369   5.8339   C.3       1 RES1   0.0000
   126 H25A    -0.2614   6.4421   5.8228   H         1 RES1   0.0000
   127 H26A     0.7220   5.5221   4.9578   H         1 RES1   0.0000
   128 H27A    -0.2599   4.8551   6.0324   H         1 RES1   0.0000
   129 C26A     0.6417   6.0781   8.1163   C.3       1 RES1   0.0000
   130 H28A     0.1924   5.2740   8.4495   H         1 RES1   0.0000
   131 H29A     1.2987   6.3827   8.7772   H         1 RES1   0.0000
   132 H30A    -0.0217   6.7851   7.9664   H         1 RES1   0.0000
   133 H31A     1.7611   6.4324   6.6780   H         1 RES1   0.0000
   134 Cl1      2.9055  -0.5551   8.0025   Cl        2 RES2   0.0000
   135 Cl2      3.6372   0.5029  10.6166   Cl        2 RES2   0.0000
   136 C27      2.4255  -0.3818   9.7032   C.3       2 RES2   0.0000
   137 H32      1.5608   0.0977   9.7532   H         2 RES2   0.0000
   138 H33      2.3019  -1.2788  10.1030   H         2 RES2   0.0000
   139 Cl3      2.4162   9.0992   9.4675   Cl        3 RES3   0.0000
   140 Cl4      2.2811   9.4141  12.3329   Cl        3 RES3   0.0000
   141 C28      2.8931   8.4195  11.0221   C.3       3 RES3   0.0000
   142 H34      2.5346   7.4997  11.1082   H         3 RES3   0.0000
   143 H35      3.8807   8.3700  11.0763   H         3 RES3   0.0000
@<TRIPOS>BOND
     1     1     6    1
     2     2    16    1
     3     3    23    1
     4     4    20    1
     5     5    22    1
     6     6    19    1
     7     7    11    2
     8     8     1    1
     9     9    15    1
    10    10     1    1
    11    11     8    1
    12    12    14   ar
    13    13     7    1
    14    14    11    1
    15    15     8    2
    16    16    17    2
    17    17    18    1
    18    19     9    2
    19    20    24    2
    20    21    16    1
    21    22    12   ar
    22    23    14   ar
    23    24    17    1
    24    25    24    1
    25    26    13    2
    26    27    23   ar
    27    28    27    1
    28    29     3    1
    29    30    29    1
    30    31    29    1
    31    32    22   ar
    32    33    32    1
    33    34     4    1
    34    35    34    1
    35    36    34    1
    36    37     2    1
    37    38    37    1
    38    39    37    1
    39    40     5    1
    40    41    40    1
    41    42    40    1
    42    43    34    1
    43    44    43    1
    44    45    43    1
    45    46    43    1
    46    47    40    1
    47    48    47    1
    48    49    47    1
    49    50    47    1
    50    51    29    1
    51    52    51    1
    52    53    51    1
    53    54    51    1
    54    55    37    1
    55    56    55    1
    56    57    55    1
    57    58    55    1
    58    59    10    1
    59    60    59    1
    60    61    59    1
    61    62    59    1
    62    63    10    1
    63    64    63    1
    64    65    63    1
    65    66    63    1
    66    67    10    1
    67    68    81    1
    68    69    88    1
    69    70    85    1
    70    71    87    1
    71    72     1    1
    72    73    76    1
    73    74     1    1
    74    75    80    2
    75    76    74    2
    76    77    79   ar
    77    78     6    1
    78    79    76    1
    79    80    74    1
    80    81    82   ar
    81    82    83    1
    82    84    21    2
    83    85    89   ar
    84    86    19    1
    85    87    77   ar
    86    88    79   ar
    87    89    82   ar
    88    90    89    1
    89    91    78    1
    90    92    88   ar
    91    93    92    1
    92    94    69    1
    93    95    94    1
    94    96    94    1
    95    97    87   ar
    96    98    97    1
    97    99    70    1
    98   100    99    1
    99   101    99    1
   100   102    68    1
   101   103   102    1
   102   104   102    1
   103   105    71    1
   104   106   105    1
   105   107   105    1
   106   108    99    1
   107   109   108    1
   108   110   108    1
   109   111   108    1
   110   112   105    1
   111   113   112    1
   112   114   112    1
   113   115   112    1
   114   116    94    1
   115   117   116    1
   116   118   116    1
   117   119   116    1
   118   120   102    1
   119   121   120    1
   120   122   120    1
   121   123   120    1
   122   124     1    1
   123   125   124    1
   124   126   125    1
   125   127   125    1
   126   128   125    1
   127   129   124    1
   128   130   129    1
   129   131   129    1
   130   132   129    1
   131   133   124    1
   132    12    15    1
   133    13    72    1
   134    20    26    1
   135    21    26    1
   136    27    32   ar
   137    72    84    1
   138    73    78    2
   139    75    84    1
   140    77    80    1
   141    81    86   ar
   142    85    91   ar
   143    86    91   ar
   144    92    97   ar
   145   134   136    1
   146   135   136    1
   147   136   137    1
   148   138   136    1
   149   139   141    1
   150   140   141    1
   151   141   142    1
   152   143   141    1
@<TRIPOS>SUBSTRUCTURE
     1 RES1        1 GROUP             0 ****  ****    0  
     2 RES2      134 GROUP             0 ****  ****    0  
     3 RES3      139 GROUP             0 ****  ****    0  
@<TRIPOS>CRYSIN
    8.5240   12.9360   14.5290  105.8190   94.1800   98.0380     2     1
