@<TRIPOS>MOLECULE
AVAZEF
   134   144     2     0     0
SMALL
NO_CHARGES
****
Generated from the CSD

@<TRIPOS>ATOM
     1 Fe1      5.5382   4.0510   9.2634   Fe        1 RES1   0.0000
     2 O1      11.4111   3.0431   8.2981   O.3       1 RES1   0.0000
     3 O2       5.3946   7.3654   4.3408   O.3       1 RES1   0.0000
     4 O3       8.8767   6.8299   5.1115   O.3       1 RES1   0.0000
     5 O4       0.7836   7.4319   7.4718   O.3       1 RES1   0.0000
     6 N1       3.8552   3.8249  10.2175   N.2       1 RES1   0.0000
     7 N2       4.6233   5.2581   8.0462   N.2       1 RES1   0.0000
     8 N3       2.3953   5.2687   8.9818   N.2       1 RES1   0.0000
     9 N4       5.9974   5.6187  10.4287   N.2       1 RES1   0.0000
    10 N5       6.4757   5.8253   6.5955   N.2       1 RES1   0.0000
    11 C1       2.6638   4.3653   9.9266   C.2       1 RES1   0.0000
    12 C2       9.4499   4.2373   7.6793   C.ar      1 RES1   0.0000
    13 C3      10.8147   3.9821   7.4978   C.ar      1 RES1   0.0000
    14 C4       3.3311   5.6640   8.1203   C.2       1 RES1   0.0000
    15 C5       7.3821   5.1407   7.2477   C.2       1 RES1   0.0000
    16 C6       1.9326   7.3906   6.7030   C.ar      1 RES1   0.0000
    17 C7       4.2267   6.6768   6.2694   C.ar      1 RES1   0.0000
    18 C8       5.2062   5.8642   6.9568   C.2       1 RES1   0.0000
    19 C9       8.7904   5.1439   6.8605   C.ar      1 RES1   0.0000
    20 C10      9.4780   5.9071   5.9026   C.ar      1 RES1   0.0000
    21 C11      4.2545   7.4230   5.0837   C.ar      1 RES1   0.0000
    22 C12     11.4619   4.7032   6.5159   C.ar      1 RES1   0.0000
    23 H1      12.3836   4.5314   6.3528   H         1 RES1   0.0000
    24 C13      3.0329   6.6184   7.0531   C.ar      1 RES1   0.0000
    25 C14     10.8227   5.6665   5.7600   C.ar      1 RES1   0.0000
    26 H2      11.3232   6.1720   5.1301   H         1 RES1   0.0000
    27 C15      3.1205   8.1060   4.7151   C.ar      1 RES1   0.0000
    28 H3       3.1083   8.5823   3.8943   H         1 RES1   0.0000
    29 C16     12.8272   2.8600   8.1240   C.3       1 RES1   0.0000
    30 H4      13.3026   3.7034   8.3278   H         1 RES1   0.0000
    31 H5      13.0207   2.6112   7.1865   H         1 RES1   0.0000
    32 C17      7.1754   5.7459  11.0160   C.2       1 RES1   0.0000
    33 H6       7.2612   6.4086  11.4495   H         1 RES1   0.0000
    34 H7       7.7297   5.1690  10.9864   H         1 RES1   0.0000
    35 C18      0.9570   7.8896   8.8317   C.3       1 RES1   0.0000
    36 H8       1.9216   8.0144   9.0244   H         1 RES1   0.0000
    37 H9       0.5980   7.2180   9.4635   H         1 RES1   0.0000
    38 C19      5.3743   8.0039   3.0514   C.3       1 RES1   0.0000
    39 H10      5.2099   8.9753   3.1533   H         1 RES1   0.0000
    40 H11      4.6539   7.6198   2.4900   H         1 RES1   0.0000
    41 C20      6.7051   7.7665   2.4214   C.3       1 RES1   0.0000
    42 H12      7.3879   8.2882   2.8939   H         1 RES1   0.0000
    43 H13      6.6739   8.0428   1.4821   H         1 RES1   0.0000
    44 H14      6.9261   6.8137   2.4752   H         1 RES1   0.0000
    45 C21      1.9642   8.1100   5.5469   C.ar      1 RES1   0.0000
    46 H15      1.2047   8.6212   5.2912   H         1 RES1   0.0000
    47 C22      0.2362   9.1811   9.0003   C.3       1 RES1   0.0000
    48 H16      0.6720   9.8722   8.4593   H         1 RES1   0.0000
    49 H17      0.2539   9.4452   9.9433   H         1 RES1   0.0000
    50 H18     -0.6946   9.0766   8.7076   H         1 RES1   0.0000
    51 C23      5.0952   6.6573  10.6621   C.3       1 RES1   0.0000
    52 H19      5.4873   7.2925  11.2976   H         1 RES1   0.0000
    53 H20      4.2657   6.2919  11.0345   H         1 RES1   0.0000
    54 H21      4.8998   7.1167   9.8192   H         1 RES1   0.0000
    55 C24     13.2878   1.7897   9.0336   C.3       1 RES1   0.0000
    56 H22     12.9949   1.9890   9.9470   H         1 RES1   0.0000
    57 H23     14.2649   1.7379   9.0096   H         1 RES1   0.0000
    58 H24     12.9075   0.9325   8.7483   H         1 RES1   0.0000
    59 C25      8.4285   8.0160   5.8433   C.3       1 RES1   0.0000
    60 H25      7.6950   8.4519   5.3413   H         1 RES1   0.0000
    61 H26      8.0717   7.7397   6.7252   H         1 RES1   0.0000
    62 C26      9.5136   8.9769   6.0434   C.3       1 RES1   0.0000
    63 H27     10.2360   8.5532   6.5529   H         1 RES1   0.0000
    64 H28      9.1767   9.7523   6.5381   H         1 RES1   0.0000
    65 H29      9.8563   9.2686   5.1727   H         1 RES1   0.0000
    66 O1B     -0.3347   5.0588  10.2286   O.3       1 RES1   0.0000
    67 O2B      5.6817   0.7365  14.1859   O.3       1 RES1   0.0000
    68 O3B      2.1996   1.2720  13.4152   O.3       1 RES1   0.0000
    69 O4B     10.2927   0.6700  11.0549   O.3       1 RES1   0.0000
    70 N1B      7.2212   4.2770   8.3092   N.2       1 RES1   0.0000
    71 N2B      6.4531   2.8438  10.4806   N.2       1 RES1   0.0000
    72 N3B      8.6811   2.8332   9.5450   N.2       1 RES1   0.0000
    73 N5B      4.6007   2.2766  11.9312   N.2       1 RES1   0.0000
    74 C1B      8.4126   3.7366   8.6001   C.2       1 RES1   0.0000
    75 C2B      1.6265   3.8646  10.8474   C.2       1 RES1   0.0000
    76 C3B      0.2617   4.1198  11.0290   C.2       1 RES1   0.0000
    77 C4B      7.7453   2.4379  10.4065   C.2       1 RES1   0.0000
    78 C5B      3.6942   2.9612  11.2791   C.2       1 RES1   0.0000
    79 C6B      9.1438   0.7113  11.8238   C.ar      1 RES1   0.0000
    80 C7B      6.8497   1.4251  12.2573   C.ar      1 RES1   0.0000
    81 C8B      5.8702   2.2377  11.5700   C.2       1 RES1   0.0000
    82 C9B      2.2859   2.9580  11.6663   C.2       1 RES1   0.0000
    83 C10B     1.5984   2.1948  12.6241   C.2       1 RES1   0.0000
    84 C11B     6.8219   0.6789  13.4430   C.ar      1 RES1   0.0000
    85 C12B    -0.3855   3.3987  12.0109   C.2       1 RES1   0.0000
    86 H1B     -1.3072   3.5705  12.1739   H         1 RES1   0.0000
    87 C13B     8.0435   1.4835  11.4736   C.ar      1 RES1   0.0000
    88 C14B     0.2536   2.4354  12.7668   C.2       1 RES1   0.0000
    89 H2B     -0.2469   1.9299  13.3967   H         1 RES1   0.0000
    90 C15B     7.9558  -0.0041  13.8117   C.ar      1 RES1   0.0000
    91 H3B      7.9681  -0.4804  14.6324   H         1 RES1   0.0000
    92 C16B    -1.7508   5.2419  10.4028   C.3       1 RES1   0.0000
    93 H4B     -2.2262   4.3985  10.1990   H         1 RES1   0.0000
    94 H5B     -1.9444   5.4907  11.3402   H         1 RES1   0.0000
    95 C18B    10.1194   0.2123   9.6950   C.3       1 RES1   0.0000
    96 H8B      9.1548   0.0875   9.5024   H         1 RES1   0.0000
    97 H9B     10.4784   0.8839   9.0633   H         1 RES1   0.0000
    98 C19B     5.7021   0.0980  15.4754   C.3       1 RES1   0.0000
    99 H10B     5.8665  -0.8734  15.3735   H         1 RES1   0.0000
   100 H11B     6.4225   0.4821  16.0367   H         1 RES1   0.0000
   101 C20B     4.3713   0.3354  16.1053   C.3       1 RES1   0.0000
   102 H12B     3.6884  -0.1863  15.6329   H         1 RES1   0.0000
   103 H13B     4.4024   0.0591  17.0446   H         1 RES1   0.0000
   104 H14B     4.1502   1.2882  16.0516   H         1 RES1   0.0000
   105 C21B     9.1122  -0.0081  12.9798   C.ar      1 RES1   0.0000
   106 H15B     9.8717  -0.5193  13.2355   H         1 RES1   0.0000
   107 C22B    10.8402  -1.0792   9.5265   C.3       1 RES1   0.0000
   108 H16B    10.4044  -1.7703  10.0674   H         1 RES1   0.0000
   109 H17B    10.8224  -1.3433   8.5834   H         1 RES1   0.0000
   110 H18B    11.7710  -0.9747   9.8192   H         1 RES1   0.0000
   111 C24B    -2.2114   6.3122   9.4931   C.3       1 RES1   0.0000
   112 H22B    -1.9185   6.1129   8.5797   H         1 RES1   0.0000
   113 H23B    -3.1885   6.3640   9.5172   H         1 RES1   0.0000
   114 H24B    -1.8311   7.1694   9.7784   H         1 RES1   0.0000
   115 C25B     2.6479   0.0859  12.6834   C.3       1 RES1   0.0000
   116 H25B     3.3814  -0.3500  13.1855   H         1 RES1   0.0000
   117 H26B     3.0047   0.3622  11.8015   H         1 RES1   0.0000
   118 C26B     1.5628  -0.8750  12.4833   C.3       1 RES1   0.0000
   119 H27B     0.8404  -0.4513  11.9738   H         1 RES1   0.0000
   120 H28B     1.8997  -1.6504  11.9887   H         1 RES1   0.0000
   121 H29B     1.2201  -1.1667  13.3541   H         1 RES1   0.0000
   122 N4B      5.0790   2.4832   8.0980   N.2       1 RES1   0.0000
   123 C17B     3.9010   2.3560   7.5107   C.2       1 RES1   0.0000
   124 H6B      3.8152   1.6933   7.0772   H         1 RES1   0.0000
   125 H7B      3.3467   2.9329   7.5404   H         1 RES1   0.0000
   126 C23B     5.9812   1.4446   7.8646   C.3       1 RES1   0.0000
   127 H19B     5.5891   0.8094   7.2291   H         1 RES1   0.0000
   128 H20B     6.8107   1.8100   7.4922   H         1 RES1   0.0000
   129 H21B     6.1766   0.9852   8.7076   H         1 RES1   0.0000
   130 Cl1     16.1820   6.9215   4.4196   Cl        2 RES2   0.0000
   131 Cl2     13.9588   7.7373   6.1018   Cl        2 RES2   0.0000
   132 C27     15.5608   8.1675   5.5117   C.3       2 RES2   0.0000
   133 H30     16.1788   8.2712   6.2787   H         2 RES2   0.0000
   134 H31     15.5159   9.0328   5.0337   H         2 RES2   0.0000
@<TRIPOS>BOND
     1     1     6    1
     2     2    13    1
     3     3    21    1
     4     4    20    1
     5     5    16    1
     6     6    11    1
     7     7     1    1
     8     8    11    1
     9     9     1    1
    10    10    15    2
    11    11    75    2
    12    12    13   ar
    13    13    22   ar
    14    14     7    1
    15    15    19    1
    16    16    24   ar
    17    17    18    1
    18    18     7    2
    19    19    12   ar
    20    20    19   ar
    21    21    17   ar
    22    22    23    1
    23    24    14    1
    24    25    20   ar
    25    26    25    1
    26    27    21   ar
    27    28    27    1
    28    29     2    1
    29    30    29    1
    30    31    29    1
    31    32     9    2
    32    33    32    1
    33    34    32    1
    34    35     5    1
    35    36    35    1
    36    37    35    1
    37    38     3    1
    38    39    38    1
    39    40    38    1
    40    41    38    1
    41    42    41    1
    42    43    41    1
    43    44    41    1
    44    45    16   ar
    45    46    45    1
    46    47    35    1
    47    48    47    1
    48    49    47    1
    49    50    47    1
    50    51     9    1
    51    52    51    1
    52    53    51    1
    53    54    51    1
    54    55    29    1
    55    56    55    1
    56    57    55    1
    57    58    55    1
    58    59     4    1
    59    60    59    1
    60    61    59    1
    61    62    59    1
    62    63    62    1
    63    64    62    1
    64    65    62    1
    65    66    76    1
    66    67    84    1
    67    68    83    1
    68    69    79    1
    69    70     1    1
    70    71     1    1
    71    72    74    2
    72    73    78    1
    73    74    12    1
    74    75    76    1
    75    76    85    2
    76    77    71    2
    77    78     6    1
    78    79    87   ar
    79    80    81    1
    80    81    71    1
    81    82    75    1
    82    83    82    1
    83    84    80   ar
    84    85    86    1
    85    87    77    1
    86    88    83    2
    87    89    88    1
    88    90    84   ar
    89    91    90    1
    90    92    66    1
    91    93    92    1
    92    94    92    1
    93    95    69    1
    94    96    95    1
    95    97    95    1
    96    98    67    1
    97    99    98    1
    98   100    98    1
    99   101    98    1
   100   102   101    1
   101   103   101    1
   102   104   101    1
   103   105    79   ar
   104   106   105    1
   105   107    95    1
   106   108   107    1
   107   109   107    1
   108   110   107    1
   109   111    92    1
   110   112   111    1
   111   113   111    1
   112   114   111    1
   113   115    68    1
   114   116   115    1
   115   117   115    1
   116   118   115    1
   117   119   118    1
   118   120   118    1
   119   121   118    1
   120   122     1    1
   121   123   122    2
   122   124   123    1
   123   125   123    1
   124   126   122    1
   125   127   126    1
   126   128   126    1
   127   129   126    1
   128     8    14    2
   129    10    18    1
   130    15    70    1
   131    17    24   ar
   132    22    25   ar
   133    27    45   ar
   134    70    74    1
   135    72    77    1
   136    73    81    2
   137    78    82    2
   138    80    87   ar
   139    85    88    1
   140    90   105   ar
   141   130   132    1
   142   131   132    1
   143   132   133    1
   144   134   132    1
@<TRIPOS>SUBSTRUCTURE
     1 RES1        1 GROUP             0 ****  ****    0  
     2 RES2      130 GROUP             0 ****  ****    0  
@<TRIPOS>CRYSIN
   17.3340    8.1019   19.5550   90.0000  108.6630   90.0000   231     1
