@<TRIPOS>MOLECULE
AVEDOW
    85    93     1     0     0
SMALL
USER_CHARGES
****
Generated from the CSD

@<TRIPOS>ATOM
     1 Br1     -8.4148   3.7752   9.2037   Br        1 RES1   0.0000
     2 Br2    -10.0649   0.6250   4.7783   Br        1 RES1   0.0000
     3 Fe1     -2.1466   2.1922   4.0959   Fe        1 RES1   2.0000
     4 O1      -4.6528   3.5187   4.6728   O.3       1 RES1   0.0000
     5 O2      -3.8700   1.9812   6.4293   O.3       1 RES1   0.0000
     6 O3      -4.7846   1.0704   4.3287   O.3       1 RES1   0.0000
     7 N1      -3.3368   3.6674   4.2746   N.2       1 RES1   0.0000
     8 N2      -3.6437   1.1788   3.5498   N.2       1 RES1   0.0000
     9 C1      -6.3638   2.1811   5.9210   C.ar      1 RES1   0.0000
    10 C2      -7.3895   1.5039   5.2526   C.ar      1 RES1   0.0000
    11 H1      -7.1913   1.0124   4.4645   H         1 RES1   0.0000
    12 C3      -9.0231   2.2341   6.8909   C.ar      1 RES1   0.0000
    13 H2      -9.9156   2.2584   7.2137   H         1 RES1   0.0000
    14 C4      -8.6946   1.5401   5.7293   C.ar      1 RES1   0.0000
    15 B1      -4.8751   2.1820   5.3345   B         1 RES1  -1.0000
    16 C5      -7.9969   2.8903   7.5594   C.ar      1 RES1   0.0000
    17 C6      -6.6881   2.8869   7.0925   C.ar      1 RES1   0.0000
    18 H3      -6.0137   3.3599   7.5643   H         1 RES1   0.0000
    19 N3      -2.6095   1.7602   5.9114   N.2       1 RES1   0.0000
    20 C7      -2.8586   4.8857   4.2499   C.2       1 RES1   0.0000
    21 C8      -1.7656   1.0460   6.6304   C.2       1 RES1   0.0000
    22 C9      -4.9763   0.1210   1.7612   C.3       1 RES1   0.0000
    23 H4      -5.3382  -0.5184   2.4248   H         1 RES1   0.0000
    24 H5      -4.7511  -0.3840   0.9404   H         1 RES1   0.0000
    25 C10     -3.6578   6.1216   4.5645   C.3       1 RES1   0.0000
    26 H6      -4.5996   5.9780   4.2974   H         1 RES1   0.0000
    27 H7      -3.3024   6.8820   4.0369   H         1 RES1   0.0000
    28 C11     -3.6039   6.4703   6.0537   C.3       1 RES1   0.0000
    29 H8      -4.1124   7.2912   6.2159   H         1 RES1   0.0000
    30 H9      -2.6704   6.6073   6.3224   H         1 RES1   0.0000
    31 H10     -3.9894   5.7368   6.5747   H         1 RES1   0.0000
    32 C12     -2.0422   0.5907   8.0296   C.3       1 RES1   0.0000
    33 H11     -1.6043  -0.2848   8.1787   H         1 RES1   0.0000
    34 H12     -3.0170   0.4629   8.1410   H         1 RES1   0.0000
    35 C13     -3.7366   0.7612   2.3101   C.2       1 RES1   0.0000
    36 C14     -1.5415   1.5913   9.0913   C.3       1 RES1   0.0000
    37 H13     -1.9635   2.4626   8.9438   H         1 RES1   0.0000
    38 H14     -0.5679   1.6837   9.0192   H         1 RES1   0.0000
    39 H15     -1.7724   1.2628   9.9858   H         1 RES1   0.0000
    40 C15     -6.0411   1.1796   1.4368   C.3       1 RES1   0.0000
    41 H16     -5.6953   1.7938   0.7569   H         1 RES1   0.0000
    42 H17     -6.2605   1.6821   2.2495   H         1 RES1   0.0000
    43 H18     -6.8489   0.7385   1.0977   H         1 RES1   0.0000
    44 Br1A     4.1217   3.7752  -1.0119   Br        1 RES1   0.0000
    45 Br2A     5.7718   0.6250   3.4135   Br        1 RES1   0.0000
    46 O1A      0.3596   3.5187   3.5190   O.3       1 RES1   0.0000
    47 O2A     -0.4231   1.9812   1.7625   O.3       1 RES1   0.0000
    48 O3A      0.4914   1.0704   3.8631   O.3       1 RES1   0.0000
    49 N1A     -0.9563   3.6674   3.9172   N.2       1 RES1   0.0000
    50 N2A     -0.6495   1.1788   4.6420   N.2       1 RES1   0.0000
    51 C1A      2.0706   2.1811   2.2708   C.ar      1 RES1   0.0000
    52 C2A      3.0963   1.5039   2.9392   C.ar      1 RES1   0.0000
    53 H1A      2.8982   1.0124   3.7273   H         1 RES1   0.0000
    54 C3A      4.7300   2.2341   1.3009   C.ar      1 RES1   0.0000
    55 H2A      5.6225   2.2584   0.9781   H         1 RES1   0.0000
    56 C4A      4.4015   1.5401   2.4625   C.ar      1 RES1   0.0000
    57 B1A      0.5820   2.1820   2.8573   B         1 RES1  -1.0000
    58 C5A      3.7038   2.8903   0.6324   C.ar      1 RES1   0.0000
    59 C6A      2.3949   2.8869   1.0993   C.ar      1 RES1   0.0000
    60 H3A      1.7205   3.3599   0.6275   H         1 RES1   0.0000
    61 N3A     -1.6837   1.7602   2.2804   N.2       1 RES1   0.0000
    62 C7A     -1.4346   4.8857   3.9419   C.2       1 RES1   0.0000
    63 C8A     -2.5276   1.0460   1.5614   C.2       1 RES1   0.0000
    64 C9A      0.6832   0.1210   6.4306   C.3       1 RES1   0.0000
    65 H4A      1.0450  -0.5184   5.7670   H         1 RES1   0.0000
    66 H5A      0.4579  -0.3840   7.2514   H         1 RES1   0.0000
    67 C10A    -0.6353   6.1216   3.6273   C.3       1 RES1   0.0000
    68 H6A      0.3064   5.9780   3.8944   H         1 RES1   0.0000
    69 H7A     -0.9907   6.8820   4.1549   H         1 RES1   0.0000
    70 C11A    -0.6892   6.4703   2.1381   C.3       1 RES1   0.0000
    71 H8A     -0.1807   7.2912   1.9759   H         1 RES1   0.0000
    72 H9A     -1.6227   6.6073   1.8694   H         1 RES1   0.0000
    73 H10A    -0.3038   5.7368   1.6171   H         1 RES1   0.0000
    74 C12A    -2.2510   0.5907   0.1622   C.3       1 RES1   0.0000
    75 H11A    -2.6888  -0.2848   0.0131   H         1 RES1   0.0000
    76 H12A    -1.2761   0.4629   0.0508   H         1 RES1   0.0000
    77 C13A    -0.5566   0.7612   5.8817   C.2       1 RES1   0.0000
    78 C14A    -2.7517   1.5913  -0.8995   C.3       1 RES1   0.0000
    79 H13A    -2.3297   2.4626  -0.7520   H         1 RES1   0.0000
    80 H14A    -3.7253   1.6837  -0.8274   H         1 RES1   0.0000
    81 H15A    -2.5207   1.2628  -1.7940   H         1 RES1   0.0000
    82 C15A     1.7480   1.1796   6.7550   C.3       1 RES1   0.0000
    83 H16A     1.4021   1.7938   7.4349   H         1 RES1   0.0000
    84 H17A     1.9674   1.6821   5.9423   H         1 RES1   0.0000
    85 H18A     2.5557   0.7385   7.0941   H         1 RES1   0.0000
@<TRIPOS>BOND
     1     1    16    1
     2     2    14    1
     3     3     7    1
     4     4     7    1
     5     5    15    1
     6     6     8    1
     7     7    20    2
     8     8     3    1
     9     9    10   ar
    10    10    11    1
    11    12    13    1
    12    14    10   ar
    13    15     4    1
    14    16    12   ar
    15    17     9   ar
    16    18    17    1
    17    19     3    1
    18    20    25    1
    19    21    19    2
    20    22    23    1
    21    24    22    1
    22    25    26    1
    23    27    25    1
    24    28    25    1
    25    29    28    1
    26    30    28    1
    27    31    28    1
    28    32    21    1
    29    33    32    1
    30    34    32    1
    31    35     8    2
    32    36    32    1
    33    37    36    1
    34    38    36    1
    35    39    36    1
    36    40    22    1
    37    41    40    1
    38    42    40    1
    39    43    40    1
    40    44    58    1
    41    45    56    1
    42    46    49    1
    43    47    57    1
    44    48    50    1
    45    49     3    1
    46    50     3    1
    47    51    52   ar
    48    52    53    1
    49    54    55    1
    50    56    52   ar
    51    57    46    1
    52    58    54   ar
    53    59    51   ar
    54    60    59    1
    55    61     3    1
    56    62    20    1
    57    63    35    1
    58    64    65    1
    59    66    64    1
    60    67    62    1
    61    68    67    1
    62    69    67    1
    63    70    67    1
    64    71    70    1
    65    72    70    1
    66    73    70    1
    67    74    63    1
    68    75    74    1
    69    76    74    1
    70    77    21    1
    71    78    74    1
    72    79    78    1
    73    80    78    1
    74    81    78    1
    75    82    64    1
    76    83    82    1
    77    84    82    1
    78    85    82    1
    79     5    19    1
    80     6    15    1
    81     9    15    1
    82    12    14   ar
    83    16    17   ar
    84    22    35    1
    85    47    61    1
    86    48    57    1
    87    49    62    2
    88    50    77    2
    89    51    57    1
    90    54    56   ar
    91    58    59   ar
    92    61    63    2
    93    64    77    1
@<TRIPOS>SUBSTRUCTURE
     1 RES1        1 GROUP             0 ****  ****    0  
@<TRIPOS>CRYSIN
   26.1400    8.4019   18.4972   90.0000  117.6580   90.0000    15     1
