@<TRIPOS>MOLECULE
AVINUO
    73    77     4     0     0
SMALL
USER_CHARGES
****
Generated from the CSD

@<TRIPOS>ATOM
     1 Fe1     -0.3416   4.3211   1.0245   Fe        1 RES1   2.0000
     2 N1      -0.5597   6.1929   0.3848   N.3       1 RES1   0.0000
     3 N2      -1.0605   5.1120   2.6922   N.ar      1 RES1   0.0000
     4 N3       1.4353   5.0501   1.5948   N.ar      1 RES1   0.0000
     5 N4      -2.2836   4.0673   0.3164   N.ar      1 RES1   0.0000
     6 N5       0.3692   3.9954  -0.9012   N.ar      1 RES1   0.0000
     7 N6       0.0682   2.6633   1.9834   N.1       1 RES1   0.0000
     8 C1      -1.7026   4.5094   3.7035   C.ar      1 RES1   0.0000
     9 C2      -2.0942   5.2144   4.8148   C.ar      1 RES1   0.0000
    10 C3      -1.8594   6.5588   4.8895   C.ar      1 RES1   0.0000
    11 C4      -1.2146   7.2075   3.8402   C.ar      1 RES1   0.0000
    12 C5      -0.8170   6.4421   2.7643   C.ar      1 RES1   0.0000
    13 C6      -0.0144   6.9328   1.5859   C.3       1 RES1   0.0000
    14 C7       1.3772   6.3902   1.7783   C.ar      1 RES1   0.0000
    15 C8       2.4776   7.1362   2.1365   C.ar      1 RES1   0.0000
    16 C9       3.6787   6.4781   2.3239   C.ar      1 RES1   0.0000
    17 C10      3.7420   5.1056   2.1479   C.ar      1 RES1   0.0000
    18 C11      2.6003   4.4274   1.7809   C.ar      1 RES1   0.0000
    19 C12     -3.0820   2.9762   0.2000   C.ar      1 RES1   0.0000
    20 C13     -4.2940   3.0337  -0.4835   C.ar      1 RES1   0.0000
    21 C14     -4.6978   4.2056  -1.0581   C.ar      1 RES1   0.0000
    22 C15     -3.9232   5.3325  -0.9075   C.ar      1 RES1   0.0000
    23 C16     -2.7403   5.2305  -0.1949   C.ar      1 RES1   0.0000
    24 C17     -1.9962   6.4838   0.1468   C.3       1 RES1   0.0000
    25 C18      0.2568   6.4238  -0.8278   C.3       1 RES1   0.0000
    26 C19      0.4297   5.1666  -1.5923   C.ar      1 RES1   0.0000
    27 C20      0.7270   5.2219  -2.9479   C.ar      1 RES1   0.0000
    28 C21      0.9810   4.0631  -3.6200   C.ar      1 RES1   0.0000
    29 C22      0.9664   2.8838  -2.9314   C.ar      1 RES1   0.0000
    30 C23      0.6654   2.8519  -1.5733   C.ar      1 RES1   0.0000
    31 C24      0.4005   1.8624   2.7074   C.1       1 RES1   0.0000
    32 C25      0.8284   0.8175   3.6351   C.3       1 RES1   0.0000
    33 C26     -2.6928   1.6950   0.8708   C.3       1 RES1   0.0000
    34 C27      0.6967   1.5581  -0.8480   C.3       1 RES1   0.0000
    35 H1      -1.8870   3.5888   3.6516   H         1 RES1   0.0000
    36 H2      -2.5250   4.7719   5.5249   H         1 RES1   0.0000
    37 H3      -2.1344   7.0425   5.6476   H         1 RES1   0.0000
    38 H4      -1.0584   8.1338   3.8655   H         1 RES1   0.0000
    39 H5      -0.0386   7.9163   1.4809   H         1 RES1   0.0000
    40 H6       2.4150   8.0663   2.2504   H         1 RES1   0.0000
    41 H7       4.4473   6.9600   2.5694   H         1 RES1   0.0000
    42 H8       4.5519   4.6463   2.2758   H         1 RES1   0.0000
    43 H9       2.6440   3.4969   1.6581   H         1 RES1   0.0000
    44 H10     -4.8346   2.2669  -0.5493   H         1 RES1   0.0000
    45 H11     -5.4961   4.2412  -1.5530   H         1 RES1   0.0000
    46 H12     -4.1905   6.1519  -1.2809   H         1 RES1   0.0000
    47 H13     -2.0837   7.1269  -0.5873   H         1 RES1   0.0000
    48 H14     -2.3869   6.8869   0.9506   H         1 RES1   0.0000
    49 H15      1.1354   6.7725  -0.5683   H         1 RES1   0.0000
    50 H16     -0.1791   7.0931  -1.3948   H         1 RES1   0.0000
    51 H17      0.7524   6.0488  -3.3959   H         1 RES1   0.0000
    52 H18      1.1604   4.0744  -4.5414   H         1 RES1   0.0000
    53 H19      1.1647   2.0812  -3.3820   H         1 RES1   0.0000
    54 H20      0.3730  -0.0112   3.4200   H         1 RES1   0.0000
    55 H21      0.6087   1.0800   4.5414   H         1 RES1   0.0000
    56 H22      1.7866   0.6900   3.5592   H         1 RES1   0.0000
    57 H23     -1.7871   1.4606   0.6177   H         1 RES1   0.0000
    58 H24     -3.2993   0.9900   0.5974   H         1 RES1   0.0000
    59 H25     -2.7404   1.8075   1.8340   H         1 RES1   0.0000
    60 H26      1.2145   1.6575  -0.0342   H         1 RES1   0.0000
    61 H27      1.1056   0.8831  -1.4113   H         1 RES1   0.0000
    62 H28     -0.2087   1.2919  -0.6253   H         1 RES1   0.0000
    63 Cl1     -2.7218   0.4562   5.1432   Cl        2 RES2   0.0000
    64 O1      -4.0629   0.2231   5.5603   O.3       2 RES2  -1.0000
    65 O2      -1.8559  -0.2775   5.9375   O.2       2 RES2   0.0000
    66 O3      -2.4592   1.8075   5.1793   O.2       2 RES2   0.0000
    67 O4      -2.5080  -0.0150   3.8592   O.2       2 RES2   0.0000
    68 Cl2      4.6363   1.1203   2.1574   Cl        3 RES3   0.0000
    69 O5       4.2131   1.5713   3.4060   O.3       3 RES3  -1.0000
    70 O6       5.3758   0.0469   2.2834   O.2       3 RES3   0.0000
    71 O7       3.4401   0.8606   1.4429   O.2       3 RES3   0.0000
    72 O8       5.3134   2.1750   1.5151   O.2       3 RES3   0.0000
    73 O9       0.3100   1.9463   6.7805   O.3       4 RES4   0.0000
@<TRIPOS>BOND
     1     1     2    1
     2     2    13    1
     3     3     1    1
     4     4     1    1
     5     5     1    1
     6     6     1    1
     7     7     1    1
     8     8     3   ar
     9     9     8   ar
    10    10     9   ar
    11    11    10   ar
    12    12     3   ar
    13    13    12    1
    14    14     4   ar
    15    15    14   ar
    16    16    15   ar
    17    17    16   ar
    18    18     4   ar
    19    19     5   ar
    20    20    19   ar
    21    21    20   ar
    22    22    21   ar
    23    23     5   ar
    24    24     2    1
    25    25     2    1
    26    26     6   ar
    27    27    26   ar
    28    28    27   ar
    29    29    28   ar
    30    30     6   ar
    31    31     7    3
    32    32    31    1
    33    33    19    1
    34    34    30    1
    35    35     8    1
    36    36     9    1
    37    37    10    1
    38    38    11    1
    39    39    13    1
    40    40    15    1
    41    41    16    1
    42    42    17    1
    43    43    18    1
    44    44    20    1
    45    45    21    1
    46    46    22    1
    47    47    24    1
    48    48    24    1
    49    49    25    1
    50    50    25    1
    51    51    27    1
    52    52    28    1
    53    53    29    1
    54    54    32    1
    55    55    32    1
    56    56    32    1
    57    57    33    1
    58    58    33    1
    59    59    33    1
    60    60    34    1
    61    61    34    1
    62    62    34    1
    63    11    12   ar
    64    13    14    1
    65    17    18   ar
    66    22    23   ar
    67    23    24    1
    68    25    26    1
    69    29    30   ar
    70    63    64    1
    71    65    63    2
    72    66    63    2
    73    67    63    2
    74    68    69    1
    75    70    68    2
    76    71    68    2
    77    72    68    2
@<TRIPOS>SUBSTRUCTURE
     1 RES1        1 GROUP             0 ****  ****    0  
     2 RES2       63 GROUP             0 ****  ****    0  
     3 RES3       68 GROUP             0 ****  ****    0  
     4 RES4       73 GROUP             0 ****  ****    0  
@<TRIPOS>CRYSIN
   12.4412   18.7500   17.4892   90.0000  133.6380   90.0000    14     1
