@<TRIPOS>MOLECULE
AVUHUW
    78    79     2     0     0
SMALL
USER_CHARGES
****
Generated from the CSD

@<TRIPOS>ATOM
     1 Fe1      3.5813   7.5044   9.7884   Fe        1 RES1   1.0000
     2 Cl1      2.2601   8.9829  10.9605   Cl        1 RES1   0.0000
     3 P1       2.9788   5.7654  11.0818   P.3       1 RES1   0.0000
     4 P2       4.4230   8.9623   8.2809   P.3       1 RES1   0.0000
     5 O1       5.6466   8.3101  11.7132   O.2       1 RES1   0.0000
     6 O2       1.3535   7.0610   7.9076   O.2       1 RES1   0.0000
     7 N1       4.7455   6.1931   8.8877   N.ar      1 RES1   0.0000
     8 N2       4.0447   4.5963  10.4537   N.pl3     1 RES1   0.0000
     9 N3       5.3299   7.8564   7.3540   N.pl3     1 RES1   0.0000
    10 C1       4.8311   4.9160   9.3565   C.ar      1 RES1   0.0000
    11 C2       5.6593   3.9742   8.7510   C.ar      1 RES1   0.0000
    12 C3       6.4204   4.3743   7.6677   C.ar      1 RES1   0.0000
    13 C4       6.3604   5.6618   7.1837   C.ar      1 RES1   0.0000
    14 C5       5.4860   6.5617   7.8043   C.ar      1 RES1   0.0000
    15 C6       3.2577   5.6910  12.9149   C.3       1 RES1   0.0000
    16 C7       4.6949   5.9441  13.3630   C.3       1 RES1   0.0000
    17 C8       2.2979   6.5882  13.7010   C.3       1 RES1   0.0000
    18 C9       1.2839   5.0037  10.9561   C.3       1 RES1   0.0000
    19 C10      1.1203   4.1260   9.7158   C.3       1 RES1   0.0000
    20 C11      0.1469   6.0414  11.0103   C.3       1 RES1   0.0000
    21 C12      5.6258  10.2773   8.7653   C.3       1 RES1   0.0000
    22 C13      7.0224   9.7399   9.0750   C.3       1 RES1   0.0000
    23 C14      5.0814  11.1441   9.9045   C.3       1 RES1   0.0000
    24 C15      3.2334   9.7799   7.1176   C.3       1 RES1   0.0000
    25 C16      3.8243  10.7652   6.1000   C.3       1 RES1   0.0000
    26 C17      2.1118  10.4965   7.8692   C.3       1 RES1   0.0000
    27 C18      4.0457   3.1941  10.9315   C.3       1 RES1   0.0000
    28 C19      5.2658   2.8133  11.7515   C.3       1 RES1   0.0000
    29 C20      6.1083   8.2859   6.1684   C.3       1 RES1   0.0000
    30 C21      5.5138   7.8054   4.8483   C.3       1 RES1   0.0000
    31 C22      4.8805   7.9635  10.9662   C.1       1 RES1   0.0000
    32 C23      2.2044   7.2063   8.6180   C.1       1 RES1   0.0000
    33 H1       5.7008   3.0719   9.0766   H         1 RES1   0.0000
    34 H2       7.0035   3.7401   7.2439   H         1 RES1   0.0000
    35 H3       6.9034   5.9348   6.4407   H         1 RES1   0.0000
    36 H4       3.0674   4.7735  13.1244   H         1 RES1   0.0000
    37 H5       5.3009   5.6210  12.6921   H         1 RES1   0.0000
    38 H6       4.8296   6.8861  13.4891   H         1 RES1   0.0000
    39 H7       4.8581   5.4840  14.1897   H         1 RES1   0.0000
    40 H8       1.3923   6.3387  13.5031   H         1 RES1   0.0000
    41 H9       2.4603   6.4840  14.6414   H         1 RES1   0.0000
    42 H10      2.4394   7.5042  13.4513   H         1 RES1   0.0000
    43 H11      1.2128   4.4457  11.7342   H         1 RES1   0.0000
    44 H12      1.7803   3.4288   9.7277   H         1 RES1   0.0000
    45 H13      0.2431   3.7359   9.7132   H         1 RES1   0.0000
    46 H14      1.2348   4.6615   8.9274   H         1 RES1   0.0000
    47 H15      0.2669   6.6077  11.7759   H         1 RES1   0.0000
    48 H16      0.1621   6.5744  10.2121   H         1 RES1   0.0000
    49 H17     -0.6969   5.5881  11.0765   H         1 RES1   0.0000
    50 H18      5.7304  10.8384   7.9935   H         1 RES1   0.0000
    51 H19      7.3642   9.2756   8.3074   H         1 RES1   0.0000
    52 H20      7.6055  10.4707   9.2929   H         1 RES1   0.0000
    53 H21      6.9750   9.1355   9.8195   H         1 RES1   0.0000
    54 H22      4.3072  11.6231   9.6003   H         1 RES1   0.0000
    55 H23      4.8402  10.5836  10.6458   H         1 RES1   0.0000
    56 H24      5.7558  11.7685  10.1817   H         1 RES1   0.0000
    57 H25      2.9072   9.0336   6.6095   H         1 RES1   0.0000
    58 H26      4.5107  10.3268   5.5917   H         1 RES1   0.0000
    59 H27      3.1317  11.0677   5.5082   H         1 RES1   0.0000
    60 H28      4.2002  11.5170   6.5636   H         1 RES1   0.0000
    61 H29      1.7473   9.9095   8.5357   H         1 RES1   0.0000
    62 H30      2.4624  11.2833   8.2930   H         1 RES1   0.0000
    63 H31      1.4213  10.7466   7.2510   H         1 RES1   0.0000
    64 H32      3.9663   2.6002  10.1813   H         1 RES1   0.0000
    65 H33      3.2513   3.0303  11.4450   H         1 RES1   0.0000
    66 H34      5.2901   1.8603  11.8653   H         1 RES1   0.0000
    67 H35      6.0602   3.1014  11.2959   H         1 RES1   0.0000
    68 H36      5.2184   3.2371  12.6114   H         1 RES1   0.0000
    69 H37      7.0113   7.9694   6.2468   H         1 RES1   0.0000
    70 H38      6.1754   9.2434   6.1595   H         1 RES1   0.0000
    71 H39      6.0233   8.1647   4.1183   H         1 RES1   0.0000
    72 H40      5.5406   6.8462   4.8155   H         1 RES1   0.0000
    73 H41      4.6036   8.1025   4.7802   H         1 RES1   0.0000
    74 B1       1.0645   7.2310   4.3714   B         2 RES2  -1.0000
    75 F1       2.3561   6.7594   4.4953   F         2 RES2   0.0000
    76 F2       0.8736   8.3242   5.2212   F         2 RES2   0.0000
    77 F3       0.1801   6.2170   4.7204   F         2 RES2   0.0000
    78 F4       0.8366   7.6218   3.0621   F         2 RES2   0.0000
@<TRIPOS>BOND
     1     1     2    1
     2     3     1    1
     3     4     1    1
     4     5    31    3
     5     6    32    3
     6     7     1    1
     7     8     3    1
     8     9     4    1
     9    10     7   ar
    10    11    10   ar
    11    12    11   ar
    12    13    12   ar
    13    14     7   ar
    14    15     3    1
    15    16    15    1
    16    17    15    1
    17    18     3    1
    18    19    18    1
    19    20    18    1
    20    21     4    1
    21    22    21    1
    22    23    21    1
    23    24     4    1
    24    25    24    1
    25    26    24    1
    26    27     8    1
    27    28    27    1
    28    29     9    1
    29    30    29    1
    30    31     1    1
    31    32     1    1
    32    33    11    1
    33    34    12    1
    34    35    13    1
    35    36    15    1
    36    37    16    1
    37    38    16    1
    38    39    16    1
    39    40    17    1
    40    41    17    1
    41    42    17    1
    42    43    18    1
    43    44    19    1
    44    45    19    1
    45    46    19    1
    46    47    20    1
    47    48    20    1
    48    49    20    1
    49    50    21    1
    50    51    22    1
    51    52    22    1
    52    53    22    1
    53    54    23    1
    54    55    23    1
    55    56    23    1
    56    57    24    1
    57    58    25    1
    58    59    25    1
    59    60    25    1
    60    61    26    1
    61    62    26    1
    62    63    26    1
    63    64    27    1
    64    65    27    1
    65    66    28    1
    66    67    28    1
    67    68    28    1
    68    69    29    1
    69    70    29    1
    70    71    30    1
    71    72    30    1
    72    73    30    1
    73     8    10    1
    74     9    14    1
    75    13    14   ar
    76    74    75    1
    77    76    74    1
    78    77    74    1
    79    78    74    1
@<TRIPOS>SUBSTRUCTURE
     1 RES1        1 GROUP             0 ****  ****    0  
     2 RES2       74 GROUP             0 ****  ****    0  
@<TRIPOS>CRYSIN
    8.2843   13.9759   12.5318   90.0000   97.8091   90.0000     4     1
