@<TRIPOS>MOLECULE
AWUKEK01
    95   101     4     0     0
SMALL
USER_CHARGES
****
Generated from the CSD

@<TRIPOS>ATOM
     1 Fe1      4.6409   4.0722   8.8404   Fe        1 RES1   2.0000
     2 O1       2.8003   7.2386  11.1059   O.3       1 RES1   0.0000
     3 O2       3.4936   4.1827   4.7516   O.3       1 RES1   0.0000
     4 O3       2.9564   0.6190  10.6734   O.3       1 RES1   0.0000
     5 O4       8.7826   4.5263   9.7004   O.3       1 RES1   0.0000
     6 N1       4.1021   5.4651  10.5556   N.2       1 RES1   0.0000
     7 N2       3.4323   5.6071   8.0074   N.ar      1 RES1   0.0000
     8 N3       4.4614   3.5726   6.6971   N.2       1 RES1   0.0000
     9 N4       3.1655   2.5654   9.5371   N.2       1 RES1   0.0000
    10 N5       5.7557   2.6924   9.9945   N.ar      1 RES1   0.0000
    11 N6       6.7408   4.7966   8.7666   N.2       1 RES1   0.0000
    12 C1       5.7386   6.0397  12.3000   C.3       1 RES1   0.0000
    13 H1       6.3443   5.3434  11.9705   H         1 RES1   0.0000
    14 H2       5.8739   6.1616  13.2635   H         1 RES1   0.0000
    15 H3       5.9247   6.8810  11.8348   H         1 RES1   0.0000
    16 C2       3.9568   4.3207  12.7507   C.3       1 RES1   0.0000
    17 H4       3.0774   4.0071  12.4537   H         1 RES1   0.0000
    18 H5       3.9402   4.4722  13.7191   H         1 RES1   0.0000
    19 H6       4.6338   3.6445  12.5388   H         1 RES1   0.0000
    20 C3       4.2978   5.6227  12.0384   C.3       1 RES1   0.0000
    21 C4       3.3005   6.7426  12.3992   C.3       1 RES1   0.0000
    22 H7       2.5580   6.3874  12.9483   H         1 RES1   0.0000
    23 H8       3.7524   7.4656  12.9023   H         1 RES1   0.0000
    24 C5       3.3059   6.4028  10.1891   C.2       1 RES1   0.0000
    25 C6       2.9278   6.5869   8.7749   C.ar      1 RES1   0.0000
    26 C7       2.1560   7.6125   8.2568   C.ar      1 RES1   0.0000
    27 H9       1.8018   8.2894   8.8209   H         1 RES1   0.0000
    28 C8       1.9114   7.6236   6.8805   C.ar      1 RES1   0.0000
    29 H10      1.3957   8.3217   6.4926   H         1 RES1   0.0000
    30 C9       2.4257   6.6082   6.0849   C.ar      1 RES1   0.0000
    31 H11      2.2721   6.6000   5.1467   H         1 RES1   0.0000
    32 C10      3.1714   5.6033   6.6927   C.ar      1 RES1   0.0000
    33 C11      3.7528   4.4093   6.0423   C.2       1 RES1   0.0000
    34 C12      3.9745   2.8074   4.5246   C.3       1 RES1   0.0000
    35 H12      4.4714   2.7448   3.6696   H         1 RES1   0.0000
    36 H13      3.2178   2.1696   4.5025   H         1 RES1   0.0000
    37 C13      4.9011   2.5149   5.7186   C.3       1 RES1   0.0000
    38 C14      6.3544   2.7524   5.3498   C.3       1 RES1   0.0000
    39 H14      6.4458   3.6332   4.9304   H         1 RES1   0.0000
    40 H15      6.6505   2.0595   4.7233   H         1 RES1   0.0000
    41 H16      6.9059   2.7182   6.1590   H         1 RES1   0.0000
    42 C15      4.6964   1.1296   6.2940   C.3       1 RES1   0.0000
    43 H17      5.2429   1.0269   7.1023   H         1 RES1   0.0000
    44 H18      4.9637   0.4575   5.6321   H         1 RES1   0.0000
    45 H19      3.7524   1.0060   6.5225   H         1 RES1   0.0000
    46 C16      0.8851   3.4092   9.8999   C.3       1 RES1   0.0000
    47 H20      1.1352   3.6388  10.8179   H         1 RES1   0.0000
    48 H21     -0.0660   3.1757   9.8677   H         1 RES1   0.0000
    49 H22      1.0523   4.1760   9.3132   H         1 RES1   0.0000
    50 C17      1.3619   1.8375   8.0069   C.3       1 RES1   0.0000
    51 H23      1.5243   2.5967   7.4083   H         1 RES1   0.0000
    52 H24      0.4162   1.5812   7.9581   H         1 RES1   0.0000
    53 H25      1.9202   1.0801   7.7327   H         1 RES1   0.0000
    54 C18      1.7074   2.2330   9.4343   C.3       1 RES1   0.0000
    55 C19      1.5759   1.0374  10.3907   C.3       1 RES1   0.0000
    56 H26      1.1132   1.3041  11.2251   H         1 RES1   0.0000
    57 H27      1.0675   0.3018   9.9643   H         1 RES1   0.0000
    58 C20      3.7074   1.6332  10.2331   C.2       1 RES1   0.0000
    59 C21      5.1339   1.6795  10.6062   C.ar      1 RES1   0.0000
    60 C22      5.7699   0.8893  11.5560   C.ar      1 RES1   0.0000
    61 H28      5.3072   0.1822  11.9912   H         1 RES1   0.0000
    62 C23      7.0986   1.1594  11.8504   C.ar      1 RES1   0.0000
    63 H29      7.5607   0.6302  12.4905   H         1 RES1   0.0000
    64 C24      7.7547   2.2061  11.2074   C.ar      1 RES1   0.0000
    65 H30      8.6654   2.4031  11.3954   H         1 RES1   0.0000
    66 C25      7.0384   2.9536  10.2834   C.ar      1 RES1   0.0000
    67 C26      7.5146   4.1284   9.5387   C.2       1 RES1   0.0000
    68 C27      8.9855   5.5380   8.6700   C.3       1 RES1   0.0000
    69 H31      9.4961   5.1669   7.9075   H         1 RES1   0.0000
    70 H32      9.4741   6.3191   9.0325   H         1 RES1   0.0000
    71 C28      7.5497   5.9402   8.2324   C.3       1 RES1   0.0000
    72 C29      7.0920   7.2084   8.8830   C.3       1 RES1   0.0000
    73 H33      6.1683   7.3973   8.6138   H         1 RES1   0.0000
    74 H34      7.6706   7.9478   8.6000   H         1 RES1   0.0000
    75 H35      7.1360   7.1107   9.8562   H         1 RES1   0.0000
    76 C30      7.4507   5.9945   6.7293   C.3       1 RES1   0.0000
    77 H36      7.8280   5.1764   6.3476   H         1 RES1   0.0000
    78 H37      7.9481   6.7709   6.3982   H         1 RES1   0.0000
    79 H38      6.5084   6.0742   6.4673   H         1 RES1   0.0000
    80 N7       7.4507   3.4054  14.5963   N.1       2 RES2   0.0000
    81 C31      6.5963   2.7380  14.9405   C.1       2 RES2   0.0000
    82 C32      5.5163   1.8855  15.3602   C.3       2 RES2   0.0000
    83 H39      5.3309   1.2262  14.6601   H         2 RES2   0.0000
    84 H40      4.7150   2.4278  15.5205   H         2 RES2   0.0000
    85 H41      5.7673   1.4237  16.1877   H         2 RES2   0.0000
    86 F1       7.7550   0.8512   8.2579   F         3 RES3   0.0000
    87 F2       9.2888   0.4083   6.6660   F         3 RES3   0.0000
    88 F3       9.9642   0.9020   8.7723   F         3 RES3   0.0000
    89 F4       9.0664   2.5176   7.4819   F         3 RES3   0.0000
    90 B1       9.0214   1.1672   7.7817   B         3 RES3  -1.0000
    91 F5      11.1557   7.9381   9.5122   F         4 RES4   0.0000
    92 F6      10.2178   8.7632   7.6372   F         4 RES4   0.0000
    93 F7       9.7698   9.7243   9.6358   F         4 RES4   0.0000
    94 F8      11.8182   9.9500   8.7176   F         4 RES4   0.0000
    95 B2      10.7382   9.1007   8.8802   B         4 RES4  -1.0000
@<TRIPOS>BOND
     1     1     6    1
     2     2    21    1
     3     3    33    1
     4     4    55    1
     5     5    67    1
     6     6    20    1
     7     7     1    1
     8     8     1    1
     9     9     1    1
    10    10     1    1
    11    11     1    1
    12    12    13    1
    13    14    12    1
    14    15    12    1
    15    16    17    1
    16    18    16    1
    17    19    16    1
    18    20    12    1
    19    21    20    1
    20    22    21    1
    21    23    21    1
    22    24     2    1
    23    25     7   ar
    24    26    25   ar
    25    27    26    1
    26    28    26   ar
    27    29    28    1
    28    30    28   ar
    29    31    30    1
    30    32     7   ar
    31    33     8    2
    32    34     3    1
    33    35    34    1
    34    36    34    1
    35    37     8    1
    36    38    37    1
    37    39    38    1
    38    40    38    1
    39    41    38    1
    40    42    37    1
    41    43    42    1
    42    44    42    1
    43    45    42    1
    44    46    47    1
    45    48    46    1
    46    49    46    1
    47    50    51    1
    48    52    50    1
    49    53    50    1
    50    54     9    1
    51    55    54    1
    52    56    55    1
    53    57    55    1
    54    58     4    1
    55    59    10   ar
    56    60    59   ar
    57    61    60    1
    58    62    60   ar
    59    63    62    1
    60    64    62   ar
    61    65    64    1
    62    66    10   ar
    63    67    11    2
    64    68     5    1
    65    69    68    1
    66    70    68    1
    67    71    11    1
    68    72    71    1
    69    73    72    1
    70    74    72    1
    71    75    72    1
    72    76    71    1
    73    77    76    1
    74    78    76    1
    75    79    76    1
    76     6    24    2
    77     9    58    2
    78    16    20    1
    79    24    25    1
    80    30    32   ar
    81    32    33    1
    82    34    37    1
    83    46    54    1
    84    50    54    1
    85    58    59    1
    86    64    66   ar
    87    66    67    1
    88    68    71    1
    89    80    81    3
    90    81    82    1
    91    82    83    1
    92    84    82    1
    93    85    82    1
    94    86    90    1
    95    87    90    1
    96    88    90    1
    97    89    90    1
    98    91    95    1
    99    92    95    1
   100    93    95    1
   101    94    95    1
@<TRIPOS>SUBSTRUCTURE
     1 RES1        1 GROUP             0 ****  ****    0  
     2 RES2       80 GROUP             0 ****  ****    0  
     3 RES3       86 GROUP             0 ****  ****    0  
     4 RES4       91 GROUP             0 ****  ****    0  
@<TRIPOS>CRYSIN
   16.9180   18.9820   23.0070   90.0000   90.0000   90.0000    61     1
