@<TRIPOS>MOLECULE
AWUKEK
    95   101     4     0     0
SMALL
USER_CHARGES
****
Generated from the CSD

@<TRIPOS>ATOM
     1 Fe1      3.7932   5.3743   8.8093   Fe        1 RES1   2.0000
     2 N1       3.9679   5.8614   6.6712   N.2       1 RES1   0.0000
     3 N2       5.0103   3.8440   7.9916   N.ar      1 RES1   0.0000
     4 N3       4.3426   4.0015  10.5326   N.2       1 RES1   0.0000
     5 N4       2.6769   6.7511   9.9614   N.ar      1 RES1   0.0000
     6 N5       5.2680   6.8832   9.5028   N.2       1 RES1   0.0000
     7 O1       4.9574   5.2562   4.7369   O.3       1 RES1   0.0000
     8 O2      -0.3443   4.9172   9.6681   O.3       1 RES1   0.0000
     9 O3       5.4806   8.8103  10.6586   O.3       1 RES1   0.0000
    10 O4       5.6460   2.2378  11.0916   O.3       1 RES1   0.0000
    11 N6       1.6980   4.6437   8.7428   N.2       1 RES1   0.0000
    12 C1       2.0714   6.6296   5.3046   C.3       1 RES1   0.0000
    13 H1       2.0066   5.7671   4.8886   H         1 RES1   0.0000
    14 H2       1.7706   7.3046   4.6915   H         1 RES1   0.0000
    15 H3       1.5227   6.6462   6.0918   H         1 RES1   0.0000
    16 C2       3.5217   6.9000   5.6880   C.3       1 RES1   0.0000
    17 C3       3.6833   8.2932   6.2637   C.3       1 RES1   0.0000
    18 H4       3.1735   8.3668   7.0727   H         1 RES1   0.0000
    19 H5       3.3691   8.9403   5.6289   H         1 RES1   0.0000
    20 H6       4.6102   8.4554   6.4539   H         1 RES1   0.0000
    21 C4      -0.5455   3.9144   8.6200   C.3       1 RES1   0.0000
    22 H7      -1.0168   4.2937   7.8611   H         1 RES1   0.0000
    23 H8      -1.0488   3.1562   8.9567   H         1 RES1   0.0000
    24 C5       6.8642   8.3613  10.4120   C.3       1 RES1   0.0000
    25 H9       7.2728   8.0385  11.2302   H         1 RES1   0.0000
    26 H10      7.4026   9.0836  10.0545   H         1 RES1   0.0000
    27 C6       0.8986   3.4914   8.2233   C.3       1 RES1   0.0000
    28 C7       5.2815   3.8432   6.6811   C.ar      1 RES1   0.0000
    29 C8       2.7086   3.4542  12.2861   C.3       1 RES1   0.0000
    30 H11      2.1145   4.1277  11.9499   H         1 RES1   0.0000
    31 H12      2.5783   3.3561  13.2333   H         1 RES1   0.0000
    32 H13      2.5243   2.6185  11.8513   H         1 RES1   0.0000
    33 C9       6.7220   7.2243   9.3850   C.3       1 RES1   0.0000
    34 C10      0.9219   5.3134   9.5097   C.2       1 RES1   0.0000
    35 C11      1.3367   8.2830  11.8172   C.ar      1 RES1   0.0000
    36 H14      0.8836   8.7988  12.4449   H         1 RES1   0.0000
    37 C12      4.4672   6.6270   4.5058   C.3       1 RES1   0.0000
    38 H15      3.9913   6.6859   3.6624   H         1 RES1   0.0000
    39 H16      5.2021   7.2594   4.4967   H         1 RES1   0.0000
    40 C13      7.0237   7.7108   7.9712   C.3       1 RES1   0.0000
    41 H17      6.8377   7.0085   7.3455   H         1 RES1   0.0000
    42 H18      7.9489   7.9593   7.9093   H         1 RES1   0.0000
    43 H19      6.4752   8.4724   7.7718   H         1 RES1   0.0000
    44 C14      4.6948   5.0295   6.0249   C.2       1 RES1   0.0000
    45 C15      6.5603   1.8365   6.8841   C.ar      1 RES1   0.0000
    46 H20      7.0721   1.1564   6.5089   H         1 RES1   0.0000
    47 C16      0.6792   7.2405  11.1718   C.ar      1 RES1   0.0000
    48 H21     -0.2142   7.0518  11.3517   H         1 RES1   0.0000
    49 C17      1.0335   3.3725   6.7244   C.3       1 RES1   0.0000
    50 H22      0.7015   4.1711   6.3095   H         1 RES1   0.0000
    51 H23      0.5261   2.6185   6.4173   H         1 RES1   0.0000
    52 H24      1.9577   3.2524   6.4952   H         1 RES1   0.0000
    53 C18      4.1488   3.8640  12.0108   C.3       1 RES1   0.0000
    54 C19      2.6715   8.5552  11.5259   C.ar      1 RES1   0.0000
    55 H25      3.1263   9.2440  11.9544   H         1 RES1   0.0000
    56 C20      5.1356   3.0654  10.1730   C.2       1 RES1   0.0000
    57 C21      3.3027   7.7634  10.5740   C.ar      1 RES1   0.0000
    58 C22      1.3992   6.4900  10.2509   C.ar      1 RES1   0.0000
    59 C23      5.1430   2.7377  12.3819   C.3       1 RES1   0.0000
    60 H26      5.8698   3.0845  12.9239   H         1 RES1   0.0000
    61 H27      4.6945   2.0318  12.8735   H         1 RES1   0.0000
    62 C24      6.3089   1.8531   8.2590   C.ar      1 RES1   0.0000
    63 H28      6.6590   1.1979   8.8192   H         1 RES1   0.0000
    64 C25      6.0394   2.8464   6.0778   C.ar      1 RES1   0.0000
    65 H29      6.1952   2.8524   5.1613   H         1 RES1   0.0000
    66 C26      4.7289   7.8102  10.2041   C.2       1 RES1   0.0000
    67 C27      5.5207   2.8779   8.7630   C.ar      1 RES1   0.0000
    68 C28      1.3210   2.2344   8.9324   C.3       1 RES1   0.0000
    69 H30      2.2427   2.0525   8.7389   H         1 RES1   0.0000
    70 H31      0.7790   1.4998   8.6335   H         1 RES1   0.0000
    71 H32      1.2107   2.3487   9.8803   H         1 RES1   0.0000
    72 C29      7.5705   6.0224   9.7400   C.3       1 RES1   0.0000
    73 H33      7.3486   5.7237  10.6252   H         1 RES1   0.0000
    74 H34      8.4986   6.2652   9.7084   H         1 RES1   0.0000
    75 H35      7.4026   5.3162   9.1125   H         1 RES1   0.0000
    76 C30      4.5039   5.1683  12.7076   C.3       1 RES1   0.0000
    77 H36      5.3707   5.4615  12.4174   H         1 RES1   0.0000
    78 H37      4.5141   5.0314  13.6573   H         1 RES1   0.0000
    79 H38      3.8514   5.8369  12.4885   H         1 RES1   0.0000
    80 F1       6.7254   0.6891   3.8602   F         2 RES2   0.0000
    81 F2       5.7435   1.5236   2.0004   F         2 RES2   0.0000
    82 F3       5.0806  -0.4924   2.8186   F         2 RES2   0.0000
    83 F4       7.1178  -0.2856   1.8479   F         2 RES2   0.0000
    84 B1       6.1696   0.3520   2.6299   B         2 RES2  -1.0000
    85 F5       7.6002   9.0148   4.8235   F         3 RES3   0.0000
    86 F6       9.1509   8.5530   3.2439   F         3 RES3   0.0000
    87 F7       6.9389   8.5199   2.7088   F         3 RES3   0.0000
    88 F8       7.8123   6.8943   4.0147   F         3 RES3   0.0000
    89 B2       7.8727   8.2456   3.7096   B         3 RES3  -1.0000
    90 N7       1.0876   3.3222   3.0956   N.1       4 RES4   0.0000
    91 C31      2.9669   1.8271   3.8520   C.3       4 RES4   0.0000
    92 H39      3.6693   1.8601   3.1995   H         4 RES4   0.0000
    93 H40      2.6491   0.9244   3.9352   H         4 RES4   0.0000
    94 H41      3.3033   2.1280   4.6984   H         4 RES4   0.0000
    95 C32      1.8736   2.6891   3.4312   C.1       4 RES4   0.0000
@<TRIPOS>BOND
     1     1     2    1
     2     2    16    1
     3     3     1    1
     4     4     1    1
     5     5     1    1
     6     6     1    1
     7     7    37    1
     8     8    21    1
     9     9    24    1
    10    10    56    1
    11    11     1    1
    12    12    13    1
    13    14    12    1
    14    15    12    1
    15    16    12    1
    16    17    16    1
    17    18    17    1
    18    19    17    1
    19    20    17    1
    20    21    22    1
    21    23    21    1
    22    24    25    1
    23    26    24    1
    24    27    11    1
    25    28     3   ar
    26    29    30    1
    27    31    29    1
    28    32    29    1
    29    33     6    1
    30    34     8    1
    31    35    36    1
    32    37    16    1
    33    38    37    1
    34    39    37    1
    35    40    33    1
    36    41    40    1
    37    42    40    1
    38    43    40    1
    39    44     2    2
    40    45    46    1
    41    47    35   ar
    42    48    47    1
    43    49    27    1
    44    50    49    1
    45    51    49    1
    46    52    49    1
    47    53     4    1
    48    54    35   ar
    49    55    54    1
    50    56     4    2
    51    57     5   ar
    52    58     5   ar
    53    59    10    1
    54    60    59    1
    55    61    59    1
    56    62    45   ar
    57    63    62    1
    58    64    28   ar
    59    65    64    1
    60    66     6    2
    61    67     3   ar
    62    68    27    1
    63    69    68    1
    64    70    68    1
    65    71    68    1
    66    72    33    1
    67    73    72    1
    68    74    72    1
    69    75    72    1
    70    76    53    1
    71    77    76    1
    72    78    76    1
    73    79    76    1
    74     7    44    1
    75     9    66    1
    76    11    34    2
    77    21    27    1
    78    24    33    1
    79    28    44    1
    80    29    53    1
    81    34    58    1
    82    45    64   ar
    83    47    58   ar
    84    53    59    1
    85    54    57   ar
    86    56    67    1
    87    57    66    1
    88    62    67   ar
    89    80    84    1
    90    81    84    1
    91    82    84    1
    92    83    84    1
    93    85    89    1
    94    86    89    1
    95    87    89    1
    96    88    89    1
    97    90    95    3
    98    91    92    1
    99    93    91    1
   100    94    91    1
   101    95    91    1
@<TRIPOS>SUBSTRUCTURE
     1 RES1        1 GROUP             0 ****  ****    0  
     2 RES2       80 GROUP             0 ****  ****    0  
     3 RES3       85 GROUP             0 ****  ****    0  
     4 RES4       90 GROUP             0 ****  ****    0  
@<TRIPOS>CRYSIN
   16.8624   18.8653   22.9188   90.0000   90.0000   90.0000    61     1
