@<TRIPOS>MOLECULE
AXUJUA
    80    84     6     0     0
SMALL
USER_CHARGES
****
Generated from the CSD

@<TRIPOS>ATOM
     1 Fe1     -5.9180   3.5798  12.6517   Fe        1 RES1   2.0000
     2 N1      -6.9843   6.1725  11.3148   N.pl3     1 RES1   0.0000
     3 H1      -6.8784   5.8982  10.4869   H         1 RES1   0.0000
     4 N2      -6.6507   5.3941  12.3561   N.2       1 RES1   0.0000
     5 N3      -6.0296   4.2038  14.4603   N.ar      1 RES1   0.0000
     6 N4      -5.2312   2.0081  13.6058   N.2       1 RES1   0.0000
     7 N5      -4.7978   0.7746  13.3066   N.pl3     1 RES1   0.0000
     8 H2      -4.7488   0.4348  12.4933   H         1 RES1   0.0000
     9 N6      -3.1198   4.8495  12.7245   N.pl3     1 RES1   0.0000
    10 H3      -3.1466   5.0816  13.5838   H         1 RES1   0.0000
    11 N7      -4.1191   4.1712  12.1505   N.2       1 RES1   0.0000
    12 N8      -5.8174   2.9018  10.8658   N.ar      1 RES1   0.0000
    13 N9      -7.6755   2.7286  12.4973   N.2       1 RES1   0.0000
    14 N10     -8.7319   2.5110  13.2899   N.pl3     1 RES1   0.0000
    15 H4      -8.8736   2.5762  14.1163   H         1 RES1   0.0000
    16 C1      -7.4415   7.3632  11.7564   C.2       1 RES1   0.0000
    17 H5      -7.7370   8.0648  11.2208   H         1 RES1   0.0000
    18 C2      -7.3983   7.3673  13.1243   C.2       1 RES1   0.0000
    19 H6      -7.6487   8.0547  13.6971   H         1 RES1   0.0000
    20 C3      -6.8947   6.1103  13.4704   C.2       1 RES1   0.0000
    21 C4      -6.5502   5.4287  14.7145   C.ar      1 RES1   0.0000
    22 C5      -6.6957   5.8820  16.0093   C.ar      1 RES1   0.0000
    23 H7      -7.0512   6.7249  16.1824   H         1 RES1   0.0000
    24 C6      -6.2999   5.0523  17.0446   C.ar      1 RES1   0.0000
    25 H8      -6.4029   5.3344  17.9262   H         1 RES1   0.0000
    26 C7      -5.7551   3.8107  16.7805   C.ar      1 RES1   0.0000
    27 H9      -5.4736   3.2613  17.4757   H         1 RES1   0.0000
    28 C8      -5.6329   3.3978  15.4738   C.ar      1 RES1   0.0000
    29 C9      -5.1488   2.1211  14.9532   C.2       1 RES1   0.0000
    30 C10     -4.6377   0.9326  15.5006   C.2       1 RES1   0.0000
    31 H10     -4.4771   0.7433  16.3972   H         1 RES1   0.0000
    32 C11     -4.4300   0.1107  14.4176   C.2       1 RES1   0.0000
    33 H11     -4.0926  -0.7559  14.4475   H         1 RES1   0.0000
    34 C12     -2.0872   4.9726  11.8623   C.2       1 RES1   0.0000
    35 H12     -1.2813   5.4001  12.0428   H         1 RES1   0.0000
    36 C13     -2.4196   4.3686  10.6808   C.2       1 RES1   0.0000
    37 H13     -1.9058   4.3004   9.9096   H         1 RES1   0.0000
    38 C14     -3.7203   3.8731  10.9016   C.2       1 RES1   0.0000
    39 C15     -4.6982   3.1043  10.1289   C.ar      1 RES1   0.0000
    40 C16     -4.5986   2.6068   8.8415   C.ar      1 RES1   0.0000
    41 H14     -3.8343   2.7481   8.3328   H         1 RES1   0.0000
    42 C17     -5.6750   1.8888   8.3314   C.ar      1 RES1   0.0000
    43 H15     -5.6262   1.5498   7.4676   H         1 RES1   0.0000
    44 C18     -6.8014   1.6734   9.0742   C.ar      1 RES1   0.0000
    45 H16     -7.5173   1.1958   8.7222   H         1 RES1   0.0000
    46 C19     -6.8587   2.1848  10.3706   C.ar      1 RES1   0.0000
    47 C20     -7.9188   2.0769  11.3506   C.2       1 RES1   0.0000
    48 C21     -9.1504   1.4299  11.4252   C.2       1 RES1   0.0000
    49 H17     -9.5549   0.9051  10.7718   H         1 RES1   0.0000
    50 C22     -9.6300   1.7330  12.6604   C.2       1 RES1   0.0000
    51 H18    -10.4438   1.4486  13.0109   H         1 RES1   0.0000
    52 C23     -3.6602  11.6598  11.9070   C.2       2 RES2   0.0000
    53 C24     -3.6528  10.9219  13.2481   C.3       2 RES2   0.0000
    54 H19     -2.7380  10.7067  13.4898   H         2 RES2   0.0000
    55 H20     -4.0135  11.5031  13.9358   H         2 RES2   0.0000
    56 C25     -4.4702   9.6457  13.1914   C.3       2 RES2   0.0000
    57 H21     -4.2833   9.1822  12.3590   H         2 RES2   0.0000
    58 H22     -5.4141   9.8699  13.2049   H         2 RES2   0.0000
    59 C26     -4.1527   8.7163  14.3699   C.3       2 RES2   0.0000
    60 H23     -4.1330   9.2353  15.1889   H         2 RES2   0.0000
    61 H24     -4.8590   8.0572  14.4534   H         2 RES2   0.0000
    62 C27     -2.8324   8.0079  14.2013   C.3       2 RES2   0.0000
    63 H25     -2.1210   8.6665  14.1566   H         2 RES2   0.0000
    64 H26     -2.8376   7.5187  13.3630   H         2 RES2   0.0000
    65 C28     -2.5450   7.0351  15.3470   C.2       2 RES2   0.0000
    66 O1      -2.6245  11.6474  11.2274   O.co2     2 RES2   0.0000
    67 O2      -4.7254  12.2481  11.5598   O.co2     2 RES2  -1.0000
    68 O3      -2.8162   5.8175  15.1975   O.co2     2 RES2   0.0000
    69 O4      -2.0583   7.5238  16.3852   O.co2     2 RES2  -1.0000
    70 O5      -9.2231   3.6898  15.6692   O.3       3 RES3   0.0000
    71 H27     -9.4232   3.1804  16.2748   H         3 RES3   0.0000
    72 H28     -9.7528   4.2802  15.6632   H         3 RES3   0.0000
    73 O6      -6.6879  12.5106  13.6017   O.3       4 RES4   0.0000
    74 H29     -6.1682  12.4385  13.0378   H         4 RES4   0.0000
    75 H30     -6.3747  12.3879  14.3237   H         4 RES4   0.0000
    76 O7      -0.3136  10.6562  12.2815   O.3       5 RES5   0.0000
    77 H31     -0.9393  11.1239  12.0085   H         5 RES5   0.0000
    78 O8       1.4356  10.7833  10.1557   O.3       6 RES6   0.0000
    79 H32      2.1866  10.8963  10.5167   H         6 RES6   0.0000
    80 H33      0.9069  10.7952  10.8002   H         6 RES6   0.0000
@<TRIPOS>BOND
     1     1     4    1
     2     2     3    1
     3     4     2    1
     4     5     1    1
     5     6     1    1
     6     7     6    1
     7     8     7    1
     8     9    10    1
     9    11     1    1
    10    12     1    1
    11    13     1    1
    12    14    13    1
    13    15    14    1
    14    16     2    1
    15    17    16    1
    16    18    16    2
    17    19    18    1
    18    20     4    2
    19    21     5   ar
    20    22    21   ar
    21    23    22    1
    22    24    22   ar
    23    25    24    1
    24    26    24   ar
    25    27    26    1
    26    28     5   ar
    27    29     6    2
    28    30    29    1
    29    31    30    1
    30    32     7    1
    31    33    32    1
    32    34     9    1
    33    35    34    1
    34    36    34    2
    35    37    36    1
    36    38    11    2
    37    39    12   ar
    38    40    39   ar
    39    41    40    1
    40    42    40   ar
    41    43    42    1
    42    44    42   ar
    43    45    44    1
    44    46    12   ar
    45    47    13    2
    46    48    47    1
    47    49    48    1
    48    50    14    1
    49    51    50    1
    50     9    11    1
    51    18    20    1
    52    20    21    1
    53    26    28   ar
    54    28    29    1
    55    30    32    2
    56    36    38    1
    57    38    39    1
    58    44    46   ar
    59    46    47    1
    60    48    50    2
    61    52    53    1
    62    53    54    1
    63    55    53    1
    64    56    53    1
    65    57    56    1
    66    58    56    1
    67    59    56    1
    68    60    59    1
    69    61    59    1
    70    62    59    1
    71    63    62    1
    72    64    62    1
    73    65    62    1
    74    66    52    2
    75    67    52    1
    76    68    65    2
    77    69    65    1
    78    70    71    1
    79    72    70    1
    80    73    74    1
    81    75    73    1
    82    76    77    1
    83    78    79    1
    84    80    78    1
@<TRIPOS>SUBSTRUCTURE
     1 RES1        1 GROUP             0 ****  ****    0  
     2 RES2       52 GROUP             0 ****  ****    0  
     3 RES3       70 GROUP             0 ****  ****    0  
     4 RES4       73 GROUP             0 ****  ****    0  
     5 RES5       76 GROUP             0 ****  ****    0  
     6 RES6       78 GROUP             0 ****  ****    0  
@<TRIPOS>CRYSIN
    8.0758   25.2815   16.1326   90.0000  112.3810   90.0000    14     1
