@<TRIPOS>MOLECULE
AYEHIY
    94   102     1     0     0
SMALL
NO_CHARGES
****
Generated from the CSD

@<TRIPOS>ATOM
     1 Fe1      6.1682   8.2840  13.7221   Fe        1 RES1   0.0000
     2 P1       6.2251   7.6348  15.8112   P.3       1 RES1   0.0000
     3 P2       5.3945   9.4132  12.0355   P.3       1 RES1   0.0000
     4 O1       5.2907   5.7272  12.6346   O.2       1 RES1   0.0000
     5 O2       8.8303  10.7889  13.7698   O.3       1 RES1   0.0000
     6 O3       8.8686   7.7792  12.6899   O.2       1 RES1   0.0000
     7 O4       8.7041  10.1505  15.9642   O.3       1 RES1   0.0000
     8 C1       7.7290   6.9644  16.5747   C.ar      1 RES1   0.0000
     9 C2       8.3903   5.9304  15.9064   C.ar      1 RES1   0.0000
    10 H1       8.1257   5.6899  15.0268   H         1 RES1   0.0000
    11 C3       8.1469   7.3307  17.8571   C.ar      1 RES1   0.0000
    12 H2       7.7111   8.0411  18.3130   H         1 RES1   0.0000
    13 C4       4.5044  10.1819  18.5276   C.ar      1 RES1   0.0000
    14 H3       4.1170  10.1651  19.3945   H         1 RES1   0.0000
    15 C5       4.4716  11.3381  17.7588   C.ar      1 RES1   0.0000
    16 H4       4.0295  12.1092  18.0926   H         1 RES1   0.0000
    17 C6       5.1127   9.0554  18.0027   C.ar      1 RES1   0.0000
    18 H5       5.1321   8.2509  18.5069   H         1 RES1   0.0000
    19 C7       6.2482  12.7236  14.0137   C.ar      1 RES1   0.0000
    20 H6       6.8491  12.9378  14.7170   H         1 RES1   0.0000
    21 C8       5.0108   6.3684  16.3546   C.ar      1 RES1   0.0000
    22 C9       3.8515   8.9064  11.2081   C.ar      1 RES1   0.0000
    23 C10      2.7445   5.5457  16.2949   C.ar      1 RES1   0.0000
    24 H7       1.8558   5.6133  15.9657   H         1 RES1   0.0000
    25 C11      3.7048   6.4385  15.8678   C.ar      1 RES1   0.0000
    26 H8       3.4755   7.1094  15.2358   H         1 RES1   0.0000
    27 C12      9.4309   5.2565  16.5224   C.ar      1 RES1   0.0000
    28 H9       9.8664   4.5428  16.0721   H         1 RES1   0.0000
    29 C13      5.0751  11.3831  16.5087   C.ar      1 RES1   0.0000
    30 H10      5.0434  12.1905  16.0094   H         1 RES1   0.0000
    31 C14      3.5595   9.3624   9.9137   C.ar      1 RES1   0.0000
    32 H11      4.1811   9.9160   9.4559   H         1 RES1   0.0000
    33 C15      5.1964  11.1157  12.5918   C.ar      1 RES1   0.0000
    34 C16      5.3198   5.3770  17.2867   C.ar      1 RES1   0.0000
    35 H12      6.2007   5.3189  17.6383   H         1 RES1   0.0000
    36 C17      9.2046   6.6528  18.4683   C.ar      1 RES1   0.0000
    37 H13      9.4853   6.9011  19.3413   H         1 RES1   0.0000
    38 C18      5.6621  13.7455  13.2751   C.ar      1 RES1   0.0000
    39 H14      5.8644  14.6505  13.4853   H         1 RES1   0.0000
    40 C19      9.8410   5.6234  17.8063   C.ar      1 RES1   0.0000
    41 H15     10.5589   5.1637  18.2237   H         1 RES1   0.0000
    42 C20      8.3282  10.7918   9.4981   C.ar      1 RES1   0.0000
    43 H16      8.8570  11.5748   9.3989   H         1 RES1   0.0000
    44 C21      4.5826  12.1478  11.8713   C.ar      1 RES1   0.0000
    45 H17      4.0255  11.9437  11.1304   H         1 RES1   0.0000
    46 C22      6.5689   9.5902  10.6438   C.ar      1 RES1   0.0000
    47 C23      5.6994   9.0927  16.7353   C.ar      1 RES1   0.0000
    48 C24      3.0706   4.5518  17.2027   C.ar      1 RES1   0.0000
    49 H18      2.4131   3.9233  17.4786   H         1 RES1   0.0000
    50 C25      6.7761   8.5198   9.7786   C.ar      1 RES1   0.0000
    51 H19      6.2450   7.7377   9.8683   H         1 RES1   0.0000
    52 C26      8.5168   9.7219   8.6418   C.ar      1 RES1   0.0000
    53 H20      9.1735   9.7696   7.9562   H         1 RES1   0.0000
    54 C27      2.9268   8.0830  11.8509   C.ar      1 RES1   0.0000
    55 H21      3.1123   7.7593  12.7250   H         1 RES1   0.0000
    56 C28      5.9637  11.3797  13.7309   C.ar      1 RES1   0.0000
    57 C29      6.4525  10.2559  14.6267   C.3       1 RES1   0.0000
    58 C30      7.7461   8.5776   8.7866   C.ar      1 RES1   0.0000
    59 H22      7.8810   7.8354   8.2090   H         1 RES1   0.0000
    60 C31      4.7890  13.4645  12.2406   C.ar      1 RES1   0.0000
    61 H23      4.3360  14.1675  11.7899   H         1 RES1   0.0000
    62 C32      7.8478   8.0364  13.1390   C.1       1 RES1   0.0000
    63 C33      7.3688  10.7285  10.5011   C.ar      1 RES1   0.0000
    64 H24      7.2558  11.4633  11.0943   H         1 RES1   0.0000
    65 C34     10.1433  11.0972  14.3454   C.3       1 RES1   0.0000
    66 C35      1.7417   7.7353  11.2241   C.ar      1 RES1   0.0000
    67 H25      1.1178   7.1735  11.6702   H         1 RES1   0.0000
    68 C36      5.7304  10.2711  15.9638   C.ar      1 RES1   0.0000
    69 C37      4.3507   4.4774  17.7042   C.ar      1 RES1   0.0000
    70 H26      4.5714   3.8061  18.3396   H         1 RES1   0.0000
    71 C38      2.3658   9.0097   9.2956   C.ar      1 RES1   0.0000
    72 H27      2.1740   9.3263   8.4200   H         1 RES1   0.0000
    73 C39      5.6458   6.7311  13.0710   C.1       1 RES1   0.0000
    74 C40     10.7945  10.9691  16.8432   C.3       1 RES1   0.0000
    75 H28     10.3457  11.8240  17.0092   H         1 RES1   0.0000
    76 H29     11.7390  11.1309  16.6347   H         1 RES1   0.0000
    77 H30     10.7290  10.4049  17.6421   H         1 RES1   0.0000
    78 C41      1.4596   8.2010   9.9483   C.ar      1 RES1   0.0000
    79 H31      0.6418   7.9627   9.5243   H         1 RES1   0.0000
    80 C42     10.1342  10.2712  15.6757   C.3       1 RES1   0.0000
    81 C43     11.2117  10.6981  13.3464   C.3       1 RES1   0.0000
    82 H32     11.1130   9.7482  13.1261   H         1 RES1   0.0000
    83 H33     12.0973  10.8534  13.7362   H         1 RES1   0.0000
    84 H34     11.1132  11.2346  12.5312   H         1 RES1   0.0000
    85 C44     10.6994   8.8686  15.5339   C.3       1 RES1   0.0000
    86 H35     10.5131   8.3572  16.3477   H         1 RES1   0.0000
    87 H36     11.6686   8.9205  15.3955   H         1 RES1   0.0000
    88 H37     10.2827   8.4244  14.7664   H         1 RES1   0.0000
    89 C45     10.1701  12.5994  14.5638   C.3       1 RES1   0.0000
    90 H38      9.9634  13.0551  13.7210   H         1 RES1   0.0000
    91 H39     11.0610  12.8688  14.8709   H         1 RES1   0.0000
    92 H40      9.5043  12.8435  15.2396   H         1 RES1   0.0000
    93 B1       8.0056  10.3753  14.7939   B         1 RES1   0.0000
    94 H41      4.8941   8.5044  14.1372   H         1 RES1   0.0000
@<TRIPOS>BOND
     1     1     2    1
     2     2     8    1
     3     3     1    1
     4     4    73    3
     5     5    65    1
     6     6    62    3
     7     7    80    1
     8     8     9   ar
     9     9    10    1
    10    11     8   ar
    11    12    11    1
    12    13    14    1
    13    15    13   ar
    14    16    15    1
    15    17    13   ar
    16    18    17    1
    17    19    20    1
    18    21     2    1
    19    22     3    1
    20    23    24    1
    21    25    21   ar
    22    26    25    1
    23    27     9   ar
    24    28    27    1
    25    29    15   ar
    26    30    29    1
    27    31    22   ar
    28    32    31    1
    29    33     3    1
    30    34    21   ar
    31    35    34    1
    32    36    11   ar
    33    37    36    1
    34    38    19   ar
    35    39    38    1
    36    40    27   ar
    37    41    40    1
    38    42    43    1
    39    44    33   ar
    40    45    44    1
    41    46     3    1
    42    47     2    1
    43    48    23   ar
    44    49    48    1
    45    50    46   ar
    46    51    50    1
    47    52    42   ar
    48    53    52    1
    49    54    22   ar
    50    55    54    1
    51    56    19   ar
    52    57     1    1
    53    58    50   ar
    54    59    58    1
    55    60    38   ar
    56    61    60    1
    57    62     1    1
    58    63    42   ar
    59    64    63    1
    60    65    80    1
    61    66    54   ar
    62    67    66    1
    63    68    29   ar
    64    69    34   ar
    65    70    69    1
    66    71    31   ar
    67    72    71    1
    68    73     1    1
    69    74    75    1
    70    76    74    1
    71    77    74    1
    72    78    66   ar
    73    79    78    1
    74    80    74    1
    75    81    65    1
    76    82    81    1
    77    83    81    1
    78    84    81    1
    79    85    80    1
    80    86    85    1
    81    87    85    1
    82    88    85    1
    83    89    65    1
    84    90    89    1
    85    91    89    1
    86    92    89    1
    87    93     5    1
    88    94     1    1
    89     7    93    1
    90    17    47   ar
    91    23    25   ar
    92    33    56   ar
    93    36    40   ar
    94    44    60   ar
    95    46    63   ar
    96    47    68   ar
    97    48    69   ar
    98    52    58   ar
    99    56    57    1
   100    57    68    1
   101    57    93    1
   102    71    78   ar
@<TRIPOS>SUBSTRUCTURE
     1 RES1        1 GROUP             0 ****  ****    0  
@<TRIPOS>CRYSIN
   10.2798   10.6573   19.4509   77.8430   86.5520   65.9290     2     1
