@<TRIPOS>MOLECULE
AYEJAS
    99   106     3     0     0
SMALL
NO_CHARGES
****
Generated from the CSD

@<TRIPOS>ATOM
     1 Fe1     14.1845   6.4916  16.3924   Fe        1 RES1   0.0000
     2 P1      15.7850   5.8837  17.7193   P.3       1 RES1   0.0000
     3 P2      12.7023   7.7795  15.4565   P.3       1 RES1   0.0000
     4 O1      15.8775   8.1454  14.4878   O.3       1 RES1   0.0000
     5 H1      15.1978   8.0755  13.9986   H         1 RES1   0.0000
     6 O2      14.7179   4.7565  14.0974   O.2       1 RES1   0.0000
     7 O3      12.1616   4.7190  17.5182   O.2       1 RES1   0.0000
     8 C1      14.0425   4.1715  20.9821   C.ar      1 RES1   0.0000
     9 H2      13.4512   3.4467  21.1415   H         1 RES1   0.0000
    10 C2      11.5938   6.1301  11.9078   C.ar      1 RES1   0.0000
    11 H3      11.3387   5.2664  11.6045   H         1 RES1   0.0000
    12 C3       8.5073   8.1687  17.3459   C.ar      1 RES1   0.0000
    13 H4       7.6532   8.2782  17.7447   H         1 RES1   0.0000
    14 C4      15.2506  10.6818  16.4209   C.ar      1 RES1   0.0000
    15 H5      16.1612  10.7264  16.6885   H         1 RES1   0.0000
    16 C5      17.8528   8.9746  16.3293   C.ar      1 RES1   0.0000
    17 H6      17.7505   9.5880  15.6097   H         1 RES1   0.0000
    18 C6      10.8903   8.0410  17.5425   C.ar      1 RES1   0.0000
    19 H7      11.6681   8.0481  18.0883   H         1 RES1   0.0000
    20 C7      11.5932   7.1935  11.0251   C.ar      1 RES1   0.0000
    21 H8      11.3207   7.0668  10.1229   H         1 RES1   0.0000
    22 C8      14.4779  11.8445  16.4012   C.ar      1 RES1   0.0000
    23 H9      14.8720  12.6728  16.6518   H         1 RES1   0.0000
    24 C9      13.1491  11.8101  16.0234   C.ar      1 RES1   0.0000
    25 H10     12.6358  12.6099  15.9984   H         1 RES1   0.0000
    26 C10     16.7834   8.1302  16.6775   C.ar      1 RES1   0.0000
    27 C11     18.2255   3.4447  15.5359   C.ar      1 RES1   0.0000
    28 H11     18.5577   3.4346  14.6464   H         1 RES1   0.0000
    29 C12     12.3772   8.6371  12.7869   C.ar      1 RES1   0.0000
    30 H12     12.6633   9.4947  13.0776   H         1 RES1   0.0000
    31 C13     11.9933   8.4475  11.4670   C.ar      1 RES1   0.0000
    32 H13     12.0041   9.1794  10.8609   H         1 RES1   0.0000
    33 C14     15.2996   6.0358  21.7941   C.ar      1 RES1   0.0000
    34 H14     15.5952   6.5812  22.5132   H         1 RES1   0.0000
    35 C15     15.3186   5.5178  19.4344   C.ar      1 RES1   0.0000
    36 C16     12.5715  10.5997  15.6846   C.ar      1 RES1   0.0000
    37 H15     11.6552  10.5601  15.4407   H         1 RES1   0.0000
    38 C17     17.3905   4.4726  15.9595   C.ar      1 RES1   0.0000
    39 H16     17.1652   5.1721  15.3562   H         1 RES1   0.0000
    40 C18     17.2742   3.4944  18.1444   C.ar      1 RES1   0.0000
    41 H17     16.9660   3.5146  19.0431   H         1 RES1   0.0000
    42 C19      9.8676   7.8423  15.3877   C.ar      1 RES1   0.0000
    43 H18      9.9343   7.7257  14.4464   H         1 RES1   0.0000
    44 C20     15.7089   6.3207  20.4968   C.ar      1 RES1   0.0000
    45 H19     16.2621   7.0749  20.3360   H         1 RES1   0.0000
    46 C21     11.0193   7.8737  16.1674   C.ar      1 RES1   0.0000
    47 C22     15.4667   8.1393  15.8975   C.3       1 RES1   0.0000
    48 C23      8.6188   7.9802  15.9866   C.ar      1 RES1   0.0000
    49 H20      7.8350   7.9437  15.4520   H         1 RES1   0.0000
    50 C24     19.0483   8.9240  17.0166   C.ar      1 RES1   0.0000
    51 H21     19.7598   9.5028  16.7645   H         1 RES1   0.0000
    52 C25     18.2125   7.1641  18.3945   C.ar      1 RES1   0.0000
    53 H22     18.3354   6.5325  19.0938   H         1 RES1   0.0000
    54 C26     17.0026   7.2077  17.6951   C.ar      1 RES1   0.0000
    55 C27     19.2274   8.0379  18.0717   C.ar      1 RES1   0.0000
    56 H23     20.0389   8.0349  18.5643   H         1 RES1   0.0000
    57 C28     14.6984   9.4602  16.0539   C.ar      1 RES1   0.0000
    58 C29     16.8822   4.4899  17.2546   C.ar      1 RES1   0.0000
    59 C30     13.3414   9.4410  15.7024   C.ar      1 RES1   0.0000
    60 C31     18.5691   2.4401  16.4158   C.ar      1 RES1   0.0000
    61 H24     19.1203   1.7234  16.1251   H         1 RES1   0.0000
    62 C32     14.4762   4.4260  19.6963   C.ar      1 RES1   0.0000
    63 H25     14.2025   3.8593  18.9840   H         1 RES1   0.0000
    64 C33     11.9626   6.3146  13.2296   C.ar      1 RES1   0.0000
    65 H26     11.9533   5.5786  13.8296   H         1 RES1   0.0000
    66 C34     12.3467   7.5757  13.6826   C.ar      1 RES1   0.0000
    67 C35     12.9810   5.4002  17.0600   C.1       1 RES1   0.0000
    68 C36      9.6466   8.1961  18.1272   C.ar      1 RES1   0.0000
    69 H27      9.5746   8.3228  19.0657   H         1 RES1   0.0000
    70 C37     18.1114   2.4745  17.7244   C.ar      1 RES1   0.0000
    71 H28     18.3740   1.7953  18.3362   H         1 RES1   0.0000
    72 C38     14.4619   4.9623  22.0426   C.ar      1 RES1   0.0000
    73 H29     14.1781   4.7686  22.9273   H         1 RES1   0.0000
    74 C39     14.5559   5.4762  14.9813   C.1       1 RES1   0.0000
    75 H30     13.8908   7.3800  17.6010   H         1 RES1   0.0000
    76 C40     11.6625   9.3538  21.4674   C.ar      2 RES2   0.0000
    77 H31     11.5701   8.6300  22.0766   H         2 RES2   0.0000
    78 C41     12.6499   9.3193  20.4867   C.ar      2 RES2   0.0000
    79 H32     13.2442   8.5793  20.4317   H         2 RES2   0.0000
    80 C42     10.8260  10.4354  21.5516   C.ar      2 RES2   0.0000
    81 H33     10.1499  10.4618  22.2203   H         2 RES2   0.0000
    82 C43     11.9267  11.4370  19.6820   C.ar      2 RES2   0.0000
    83 H34     12.0085  12.1507  19.0600   H         2 RES2   0.0000
    84 C44     12.7629  10.3645  19.5938   C.ar      2 RES2   0.0000
    85 H35     13.4267  10.3361  18.9136   H         2 RES2   0.0000
    86 C45     10.9631  11.4918  20.6666   C.ar      2 RES2   0.0000
    87 H36     10.3950  12.2500  20.7359   H         2 RES2   0.0000
    88 C46      9.8890   5.2958  20.0856   C.ar      3 RES3   0.0000
    89 H37     10.4932   5.2836  19.3530   H         3 RES3   0.0000
    90 C47     10.3859   5.3090  21.3708   C.ar      3 RES3   0.0000
    91 H38     11.3213   5.3231  21.5302   H         3 RES3   0.0000
    92 C48      8.5644   5.3008  19.8442   C.ar      3 RES3   0.0000
    93 H39      8.2454   5.2978  18.9502   H         3 RES3   0.0000
    94 C46A     8.1735   5.2958  22.1637   C.ar      3 RES3   0.0000
    95 H37A     7.5694   5.2836  22.8963   H         3 RES3   0.0000
    96 C47A     7.6766   5.3090  20.8785   C.ar      3 RES3   0.0000
    97 H38A     6.7412   5.3231  20.7190   H         3 RES3   0.0000
    98 C48A     9.4981   5.3008  22.4051   C.ar      3 RES3   0.0000
    99 H39A     9.8171   5.2978  23.2991   H         3 RES3   0.0000
@<TRIPOS>BOND
     1     1     2    1
     2     2    35    1
     3     3     1    1
     4     4     5    1
     5     6    74    3
     6     7    67    3
     7     8     9    1
     8    10    11    1
     9    12    13    1
    10    14    15    1
    11    16    17    1
    12    18    19    1
    13    20    10   ar
    14    21    20    1
    15    22    14   ar
    16    23    22    1
    17    24    22   ar
    18    25    24    1
    19    26    16   ar
    20    27    28    1
    21    29    30    1
    22    31    20   ar
    23    32    31    1
    24    33    34    1
    25    35    44   ar
    26    36    24   ar
    27    37    36    1
    28    38    27   ar
    29    39    38    1
    30    40    41    1
    31    42    43    1
    32    44    33   ar
    33    45    44    1
    34    46     3    1
    35    47     1    1
    36    48    12   ar
    37    49    48    1
    38    50    16   ar
    39    51    50    1
    40    52    53    1
    41    54     2    1
    42    55    50   ar
    43    56    55    1
    44    57    14   ar
    45    58     2    1
    46    59     3    1
    47    60    27   ar
    48    61    60    1
    49    62     8   ar
    50    63    62    1
    51    64    10   ar
    52    65    64    1
    53    66     3    1
    54    67     1    1
    55    68    12   ar
    56    69    68    1
    57    70    40   ar
    58    71    70    1
    59    72     8   ar
    60    73    72    1
    61    74     1    1
    62    75     1    1
    63     4    47    1
    64    18    46   ar
    65    18    68   ar
    66    26    47    1
    67    26    54   ar
    68    29    31   ar
    69    29    66   ar
    70    33    72   ar
    71    35    62   ar
    72    36    59   ar
    73    38    58   ar
    74    40    58   ar
    75    42    46   ar
    76    42    48   ar
    77    47    57    1
    78    52    54   ar
    79    52    55   ar
    80    57    59   ar
    81    60    70   ar
    82    64    66   ar
    83    76    77    1
    84    78    76   ar
    85    79    78    1
    86    80    76   ar
    87    81    80    1
    88    82    83    1
    89    84    78   ar
    90    85    84    1
    91    86    80   ar
    92    87    86    1
    93    82    84   ar
    94    82    86   ar
    95    88    89    1
    96    90    88   ar
    97    91    90    1
    98    92    88   ar
    99    93    92    1
   100    94    95    1
   101    96    92   ar
   102    97    96    1
   103    98    90   ar
   104    99    98    1
   105    94    96   ar
   106    94    98   ar
@<TRIPOS>SUBSTRUCTURE
     1 RES1        1 GROUP             0 ****  ****    0  
     2 RES2       76 GROUP             0 ****  ****    0  
     3 RES3       88 GROUP             0 ****  ****    0  
@<TRIPOS>CRYSIN
   26.7927   10.1374   28.7612   90.0000  101.6750   90.0000    15     1
