@<TRIPOS>MOLECULE
AYUCII
    77    79     1     0     0
SMALL
NO_CHARGES
****
Generated from the CSD

@<TRIPOS>ATOM
     1 C1       1.1570   9.4394  -0.2201   C.2       1 RES1   0.0000
     2 P1       4.0294   7.9860   1.1781   P.3       1 RES1   0.0000
     3 I1       5.3365  11.1290   0.3128   I         1 RES1   0.0000
     4 Fe1      3.1997  10.0340   1.6490   Fe        1 RES1   0.0000
     5 P2       4.1187  10.0369   3.7010   P.3       1 RES1   0.0000
     6 P3       2.3872  12.1331   1.8367   P.3       1 RES1   0.0000
     7 N1       2.3352   9.9780  -0.0758   N.2       1 RES1   0.0000
     8 C2       0.9988   8.7811   3.3843   C.ar      1 RES1   0.0000
     9 H1       1.4783   8.9970   4.1509   H         1 RES1   0.0000
    10 C3       0.5000   9.4197  -1.5435   C.ar      1 RES1   0.0000
    11 C4      -1.4350   9.6080  -2.9805   C.ar      1 RES1   0.0000
    12 H2      -2.3537   9.7344  -3.0607   H         1 RES1   0.0000
    13 C5       1.4885   9.2129   2.1483   C.ar      1 RES1   0.0000
    14 C6      -0.8668   9.5908  -1.7125   C.ar      1 RES1   0.0000
    15 H3      -1.4102   9.6949  -0.9648   H         1 RES1   0.0000
    16 C7      -0.1494   8.0543   3.5169   C.ar      1 RES1   0.0000
    17 H4      -0.4217   7.7777   4.3622   H         1 RES1   0.0000
    18 C8      -0.6813   9.4447  -4.1261   C.ar      1 RES1   0.0000
    19 C9       0.6918   9.2643  -3.9570   C.ar      1 RES1   0.0000
    20 H5       1.2328   9.1576  -4.7062   H         1 RES1   0.0000
    21 C10      1.2632   9.2406  -2.6978   C.ar      1 RES1   0.0000
    22 H6       2.1795   9.1023  -2.6191   H         1 RES1   0.0000
    23 C11     -0.9107   7.7277   2.4209   C.ar      1 RES1   0.0000
    24 H7      -1.6899   7.2260   2.4952   H         1 RES1   0.0000
    25 C12      0.6404   8.9272   1.0392   C.ar      1 RES1   0.0000
    26 C13     -1.3456   9.4407  -5.4991   C.3       1 RES1   0.0000
    27 C14     -2.2556  10.6547  -5.6550   C.3       1 RES1   0.0000
    28 H8      -3.0174  10.5599  -5.0778   H         1 RES1   0.0000
    29 H9      -2.5501  10.7179  -6.5674   H         1 RES1   0.0000
    30 H10     -1.7713  11.4500  -5.4204   H         1 RES1   0.0000
    31 C15     -2.1900   8.1714  -5.6375   C.3       1 RES1   0.0000
    32 H11     -1.6135   7.4051  -5.6623   H         1 RES1   0.0000
    33 H12     -2.7019   8.2149  -6.4479   H         1 RES1   0.0000
    34 H13     -2.7866   8.1003  -4.8869   H         1 RES1   0.0000
    35 C16      3.2108   6.5150   1.9210   C.3       1 RES1   0.0000
    36 H14      2.2638   6.5703   1.7781   H         1 RES1   0.0000
    37 H15      3.3913   6.4926   2.8639   H         1 RES1   0.0000
    38 H16      3.5514   5.7171   1.5114   H         1 RES1   0.0000
    39 C17      3.3611  11.0445   5.0400   C.3       1 RES1   0.0000
    40 H17      3.8345  10.8931   5.8605   H         1 RES1   0.0000
    41 H18      2.4421  10.7917   5.1493   H         1 RES1   0.0000
    42 H19      3.4114  11.9754   4.8082   H         1 RES1   0.0000
    43 C18      3.4614  13.4922   2.4558   C.3       1 RES1   0.0000
    44 H20      4.2796  13.5067   1.9559   H         1 RES1   0.0000
    45 H21      3.6562  13.3487   3.3843   H         1 RES1   0.0000
    46 H22      3.0063  14.3323   2.3509   H         1 RES1   0.0000
    47 C19      1.8644  12.8707   0.2623   C.3       1 RES1   0.0000
    48 H23      1.1274  12.3704  -0.0947   H         1 RES1   0.0000
    49 H24      2.5953  12.8510  -0.3585   H         1 RES1   0.0000
    50 H25      1.5940  13.7793   0.4096   H         1 RES1   0.0000
    51 C20      5.8448  10.6482   3.8244   C.3       1 RES1   0.0000
    52 H26      5.8915  11.5461   3.4877   H         1 RES1   0.0000
    53 H27      6.4218  10.0820   3.3070   H         1 RES1   0.0000
    54 H28      6.1235  10.6363   4.7426   H         1 RES1   0.0000
    55 C21      0.8616  12.4007   2.7940   C.3       1 RES1   0.0000
    56 H29      0.6407  13.3342   2.7882   H         1 RES1   0.0000
    57 H30      0.9963  12.1084   3.6976   H         1 RES1   0.0000
    58 H31      0.1454  11.8990   2.3990   H         1 RES1   0.0000
    59 C22      4.2943   8.4716   4.6362   C.3       1 RES1   0.0000
    60 H32      4.8997   7.8883   4.1728   H         1 RES1   0.0000
    61 H33      3.4367   8.0464   4.7135   H         1 RES1   0.0000
    62 H34      4.6386   8.6586   5.5122   H         1 RES1   0.0000
    63 C23      5.8112   7.6092   1.4502   C.3       1 RES1   0.0000
    64 H35      6.0296   6.7718   1.0348   H         1 RES1   0.0000
    65 H36      5.9870   7.5539   2.3932   H         1 RES1   0.0000
    66 H37      6.3483   8.3057   1.0654   H         1 RES1   0.0000
    67 C24      3.8990   7.5302  -0.5859   C.3       1 RES1   0.0000
    68 H38      4.2609   6.6493  -0.7171   H         1 RES1   0.0000
    69 H39      4.3906   8.1596  -1.1164   H         1 RES1   0.0000
    70 H40      2.9768   7.5394  -0.8512   H         1 RES1   0.0000
    71 C25     -0.3106   9.5250  -6.6315   C.3       1 RES1   0.0000
    72 H41      0.1692  10.3532  -6.5659   H         1 RES1   0.0000
    73 H42     -0.7602   9.4802  -7.4783   H         1 RES1   0.0000
    74 H43      0.3055   8.7916  -6.5572   H         1 RES1   0.0000
    75 H44      2.7845  10.2703  -0.9036   H         1 RES1   0.0000
    76 C26     -0.4719   8.1635   1.2607   C.ar      1 RES1   0.0000
    77 F1      -1.1379   7.7567   0.3425   F         1 RES1   0.0000
@<TRIPOS>BOND
     1     1     7    2
     2     2     4    1
     3     3     4    1
     4     4     5    1
     5     5    39    1
     6     6     4    1
     7     7     4    1
     8     8     9    1
     9    10     1    1
    10    11    12    1
    11    13     4    1
    12    14    10   ar
    13    15    14    1
    14    16     8   ar
    15    17    16    1
    16    18    11   ar
    17    19    18   ar
    18    20    19    1
    19    21    10   ar
    20    22    21    1
    21    23    16   ar
    22    24    23    1
    23    25     1    1
    24    26    18    1
    25    27    26    1
    26    28    27    1
    27    29    27    1
    28    30    27    1
    29    31    26    1
    30    32    31    1
    31    33    31    1
    32    34    31    1
    33    35     2    1
    34    36    35    1
    35    37    35    1
    36    38    35    1
    37    39    40    1
    38    41    39    1
    39    42    39    1
    40    43     6    1
    41    44    43    1
    42    45    43    1
    43    46    43    1
    44    47     6    1
    45    48    47    1
    46    49    47    1
    47    50    47    1
    48    51     5    1
    49    52    51    1
    50    53    51    1
    51    54    51    1
    52    55     6    1
    53    56    55    1
    54    57    55    1
    55    58    55    1
    56    59     5    1
    57    60    59    1
    58    61    59    1
    59    62    59    1
    60    63     2    1
    61    64    63    1
    62    65    63    1
    63    66    63    1
    64    67     2    1
    65    68    67    1
    66    69    67    1
    67    70    67    1
    68    71    26    1
    69    72    71    1
    70    73    71    1
    71    74    71    1
    72    75     7    1
    73    76    23   ar
    74    77    76    1
    75     8    13   ar
    76    11    14   ar
    77    13    25   ar
    78    19    21   ar
    79    25    76   ar
@<TRIPOS>SUBSTRUCTURE
     1 RES1        1 GROUP             0 ****  ****    0  
@<TRIPOS>CRYSIN
   15.6776   13.1670   16.6228   90.0000  118.7420   90.0000    14     1
