@<TRIPOS>MOLECULE
AYUNOX
    90    92     4     0     0
SMALL
USER_CHARGES
****
Generated from the CSD

@<TRIPOS>ATOM
     1 Fe1      3.2751   8.7132   2.7366   Fe        1 RES1   2.0000
     2 N1       3.0114   6.7146   2.9335   N.3       1 RES1   0.0000
     3 H1       3.8477   6.3605   3.1290   H         1 RES1   0.0000
     4 N2       3.2890   8.3179   0.7699   N.3       1 RES1   0.0000
     5 H2       2.4257   8.4994   0.4756   H         1 RES1   0.0000
     6 N3       5.3314   8.6809   2.7117   N.3       1 RES1   0.0000
     7 H3       5.6064   7.7975   2.6192   H         1 RES1   0.0000
     8 N4       3.5020   8.8433   4.7226   N.3       1 RES1   0.0000
     9 H4       3.3939   9.7459   4.9195   H         1 RES1   0.0000
    10 C1       2.6270   6.1636   1.6105   C.3       1 RES1   0.0000
    11 H5       1.6664   6.3298   1.4350   H         1 RES1   0.0000
    12 H6       2.7857   5.1868   1.5867   H         1 RES1   0.0000
    13 C2       3.4716   6.8527   0.5785   C.3       1 RES1   0.0000
    14 H7       4.4228   6.6072   0.6943   H         1 RES1   0.0000
    15 H8       3.1864   6.5868  -0.3317   H         1 RES1   0.0000
    16 C3       4.1822   9.1092  -0.1151   C.3       1 RES1   0.0000
    17 H9       3.9252  10.0643  -0.0652   H         1 RES1   0.0000
    18 H10      4.0594   8.8114  -1.0508   H         1 RES1   0.0000
    19 C4       5.6426   8.9712   0.2599   C.3       1 RES1   0.0000
    20 H11      5.8945   8.0149   0.2071   H         1 RES1   0.0000
    21 H12      6.1890   9.4608  -0.4047   H         1 RES1   0.0000
    22 C5       5.9815   9.4838   1.6347   C.3       1 RES1   0.0000
    23 H13      6.9628   9.4583   1.7582   H         1 RES1   0.0000
    24 H14      5.6892  10.4261   1.7108   H         1 RES1   0.0000
    25 C6       5.7938   9.1732   4.0397   C.3       1 RES1   0.0000
    26 H15      5.7179  10.1589   4.0848   H         1 RES1   0.0000
    27 H16      6.7404   8.9239   4.1866   H         1 RES1   0.0000
    28 C7       4.9169   8.5339   5.0880   C.3       1 RES1   0.0000
    29 H17      5.0600   7.5546   5.1061   H         1 RES1   0.0000
    30 H18      5.1282   8.8996   5.9833   H         1 RES1   0.0000
    31 C8       2.5096   8.1338   5.5895   C.3       1 RES1   0.0000
    32 H19      1.6056   8.4905   5.4003   H         1 RES1   0.0000
    33 H20      2.7168   8.3268   6.5383   H         1 RES1   0.0000
    34 C9       2.5002   6.6302   5.3819   C.3       1 RES1   0.0000
    35 H21      3.4059   6.2761   5.5684   H         1 RES1   0.0000
    36 H22      1.8771   6.2224   6.0347   H         1 RES1   0.0000
    37 C10      2.0895   6.2096   3.9874   C.3       1 RES1   0.0000
    38 H23      2.0613   5.2201   3.9443   H         1 RES1   0.0000
    39 H24      1.1764   6.5459   3.8052   H         1 RES1   0.0000
    40 O1       3.4307  10.6003   2.5207   O.3       1 RES1   0.0000
    41 N5       1.4570   9.1195   2.8260   N.2       1 RES1   0.0000
    42 H25      0.8029   8.5991   2.8843   H         1 RES1   0.0000
    43 C11      2.3067  11.2494   2.6094   C.2       1 RES1   0.0000
    44 C12      1.1473  10.4171   2.7816   C.2       1 RES1   0.0000
    45 C13     -0.1495  10.9976   2.8919   C.2       1 RES1   0.0000
    46 H26     -0.9161  10.4465   3.0048   H         1 RES1   0.0000
    47 C14     -0.2784  12.3566   2.8332   C.2       1 RES1   0.0000
    48 C15      0.9047  13.1557   2.6670   C.2       1 RES1   0.0000
    49 H27      0.7919  14.0979   2.6368   H         1 RES1   0.0000
    50 C16      2.1804  12.6711   2.5488   C.2       1 RES1   0.0000
    51 C17      3.4155  13.5661   2.4185   C.3       1 RES1   0.0000
    52 C18      3.0513  15.0504   2.5248   C.3       1 RES1   0.0000
    53 H28      3.8654  15.5925   2.4539   H         1 RES1   0.0000
    54 H29      2.6194  15.2191   3.3884   H         1 RES1   0.0000
    55 H30      2.4368  15.2882   1.8000   H         1 RES1   0.0000
    56 C19      4.4076  13.2375   3.5484   C.3       1 RES1   0.0000
    57 H31      5.1524  13.8742   3.5239   H         1 RES1   0.0000
    58 H32      4.7511  12.3285   3.4264   H         1 RES1   0.0000
    59 H33      3.9508  13.3014   4.4130   H         1 RES1   0.0000
    60 C20      4.0926  13.3180   1.0584   C.3       1 RES1   0.0000
    61 H34      4.9478  13.7962   1.0272   H         1 RES1   0.0000
    62 H35      3.5109  13.6415   0.3396   H         1 RES1   0.0000
    63 H36      4.2521  12.3579   0.9440   H         1 RES1   0.0000
    64 C21     -1.6182  13.0866   2.9749   C.3       1 RES1   0.0000
    65 C22     -2.7910  12.1035   3.0602   C.3       1 RES1   0.0000
    66 H37     -2.6761  11.5243   3.8425   H         1 RES1   0.0000
    67 H38     -2.8173  11.5550   2.2494   H         1 RES1   0.0000
    68 H39     -3.6299  12.6034   3.1435   H         1 RES1   0.0000
    69 C23     -1.5892  13.9419   4.2570   C.3       1 RES1   0.0000
    70 H40     -1.4591  13.3602   5.0362   H         1 RES1   0.0000
    71 H41     -2.4382  14.4239   4.3466   H         1 RES1   0.0000
    72 H42     -0.8527  14.5863   4.2040   H         1 RES1   0.0000
    73 C24     -1.8371  13.9982   1.7572   C.3       1 RES1   0.0000
    74 H43     -1.8007  13.4625   0.9369   H         1 RES1   0.0000
    75 H44     -1.1371  14.6835   1.7310   H         1 RES1   0.0000
    76 H45     -2.7150  14.4303   1.8262   H         1 RES1   0.0000
    77 S1       9.5047   7.1368   2.9152   S.o2      2 RES2   0.0000
    78 S2       9.3204   5.1755   3.6977   S.3       2 RES2   0.0000
    79 S3       7.8264   5.3702   5.0486   S.3       2 RES2   0.0000
    80 S4       6.1228   4.6818   3.9788   S.o2      2 RES2   0.0000
    81 O2      10.0753   7.9586   3.9486   O.3       2 RES2  -1.0000
    82 O3      10.4593   6.8642   1.8376   O.2       2 RES2   0.0000
    83 O4       8.2070   7.5456   2.4527   O.2       2 RES2   0.0000
    84 O5       6.4715   3.4106   3.4024   O.3       2 RES2  -1.0000
    85 O6       5.1947   4.6243   5.1028   O.2       2 RES2   0.0000
    86 O7       5.7643   5.6860   2.9875   O.2       2 RES2   0.0000
    87 O8      11.7761   8.3690  -0.2846   O.3       3 RES3   0.0000
    88 H46     11.8878   7.7630  -0.8703   H         3 RES3   0.0000
    89 H47     11.3742   8.0788   0.3662   H         3 RES3   0.0000
    90 O9      -2.6014   9.9390   5.8970   O.3       4 RES4   0.0000
@<TRIPOS>BOND
     1     1     2    1
     2     2     3    1
     3     4     1    1
     4     5     4    1
     5     6     1    1
     6     7     6    1
     7     8     1    1
     8     9     8    1
     9    10     2    1
    10    11    10    1
    11    12    10    1
    12    13     4    1
    13    14    13    1
    14    15    13    1
    15    16     4    1
    16    17    16    1
    17    18    16    1
    18    19    16    1
    19    20    19    1
    20    21    19    1
    21    22     6    1
    22    23    22    1
    23    24    22    1
    24    25     6    1
    25    26    25    1
    26    27    25    1
    27    28     8    1
    28    29    28    1
    29    30    28    1
    30    31     8    1
    31    32    31    1
    32    33    31    1
    33    34    31    1
    34    35    34    1
    35    36    34    1
    36    37     2    1
    37    38    37    1
    38    39    37    1
    39    40     1    1
    40    41     1    1
    41    42    41    1
    42    43    40    1
    43    44    41    2
    44    45    44    1
    45    46    45    1
    46    47    45    2
    47    48    47    1
    48    49    48    1
    49    50    43    1
    50    51    50    1
    51    52    51    1
    52    53    52    1
    53    54    52    1
    54    55    52    1
    55    56    51    1
    56    57    56    1
    57    58    56    1
    58    59    56    1
    59    60    51    1
    60    61    60    1
    61    62    60    1
    62    63    60    1
    63    64    47    1
    64    65    64    1
    65    66    65    1
    66    67    65    1
    67    68    65    1
    68    69    64    1
    69    70    69    1
    70    71    69    1
    71    72    69    1
    72    73    64    1
    73    74    73    1
    74    75    73    1
    75    76    73    1
    76    10    13    1
    77    19    22    1
    78    25    28    1
    79    34    37    1
    80    43    44    1
    81    48    50    2
    82    77    78    1
    83    78    79    1
    84    79    80    1
    85    80    84    1
    86    81    77    1
    87    82    77    2
    88    83    77    2
    89    85    80    2
    90    86    80    2
    91    87    88    1
    92    89    87    1
@<TRIPOS>SUBSTRUCTURE
     1 RES1        1 GROUP             0 ****  ****    0  
     2 RES2       77 GROUP             0 ****  ****    0  
     3 RES3       87 GROUP             0 ****  ****    0  
     4 RES4       90 GROUP             0 ****  ****    0  
@<TRIPOS>CRYSIN
   11.2677   12.7849   24.1730   90.0000  100.3700   90.0000    14     1
