@<TRIPOS>MOLECULE
AZAMEW
    78    84     3     0     0
SMALL
USER_CHARGES
****
Generated from the CSD

@<TRIPOS>ATOM
     1 Fe1     -7.2656   8.2716   8.7391   Fe        1 RES1   1.0000
     2 B1      -7.4696   5.3660   9.2909   B         1 RES1   0.0000
     3 O1      -8.3875   6.0799  10.2075   O.3       1 RES1   0.0000
     4 O2      -7.9051   5.5899   7.8540   O.3       1 RES1   0.0000
     5 O3      -6.0383   5.8014   9.4588   O.3       1 RES1   0.0000
     6 N1      -8.5548   7.4035   9.8456   N.2       1 RES1   0.0000
     7 N2      -8.7937   9.4950   8.5423   N.2       1 RES1   0.0000
     8 N3     -10.6783  10.2332   9.4659   N.pl3     1 RES1   0.0000
     9 N4      -7.5849   6.8897   7.4602   N.2       1 RES1   0.0000
    10 N5      -6.4404   9.0664   7.1456   N.2       1 RES1   0.0000
    11 N6      -6.5531   9.1895   4.9494   N.pl3     1 RES1   0.0000
    12 N7      -5.9359   7.1791   9.5132   N.2       1 RES1   0.0000
    13 N8      -6.3575   9.5788   9.9035   N.2       1 RES1   0.0000
    14 N9      -4.5240  10.0629  11.0483   N.pl3     1 RES1   0.0000
    15 C1     -10.8735   7.2521  10.7314   C.3       1 RES1   0.0000
    16 H1     -10.6455   6.3165  10.9135   H         1 RES1   0.0000
    17 H2     -11.6555   7.2899  10.1424   H         1 RES1   0.0000
    18 H3     -11.0769   7.7090  11.5746   H         1 RES1   0.0000
    19 C2      -9.7197   7.9227  10.0691   C.2       1 RES1   0.0000
    20 C3      -9.7730   9.2192   9.4198   C.2       1 RES1   0.0000
    21 C4      -9.0898  10.7294   8.0302   C.2       1 RES1   0.0000
    22 H4      -8.5692  11.1999   7.3916   H         1 RES1   0.0000
    23 C5     -10.2498  11.1769   8.5801   C.2       1 RES1   0.0000
    24 H5     -10.6831  11.9989   8.3838   H         1 RES1   0.0000
    25 C6     -11.8514  10.3400  10.3316   C.3       1 RES1   0.0000
    26 H6     -11.5953  10.1480  11.2576   H         1 RES1   0.0000
    27 H7     -12.5307   9.6978  10.0407   H         1 RES1   0.0000
    28 H8     -12.2157  11.2486  10.2760   H         1 RES1   0.0000
    29 C7      -7.5726   6.0840   5.1067   C.3       1 RES1   0.0000
    30 H9      -7.9104   5.2484   5.4934   H         1 RES1   0.0000
    31 H10     -6.7226   5.9123   4.6514   H         1 RES1   0.0000
    32 H11     -8.2239   6.4314   4.4621   H         1 RES1   0.0000
    33 C8      -7.3631   7.0844   6.1912   C.2       1 RES1   0.0000
    34 C9      -6.8104   8.4215   6.0268   C.2       1 RES1   0.0000
    35 C10     -5.9196  10.2751   6.7506   C.2       1 RES1   0.0000
    36 H12     -5.5759  10.9457   7.3289   H         1 RES1   0.0000
    37 C11     -5.9816  10.3549   5.3976   C.2       1 RES1   0.0000
    38 H13     -5.6827  11.0809   4.8607   H         1 RES1   0.0000
    39 C12     -6.8252   8.8718   3.5302   C.3       1 RES1   0.0000
    40 H14     -7.7359   8.5216   3.4439   H         1 RES1   0.0000
    41 H15     -6.1852   8.1985   3.2168   H         1 RES1   0.0000
    42 H16     -6.7348   9.6843   2.9909   H         1 RES1   0.0000
    43 C13     -4.0395   6.8384  11.0661   C.3       1 RES1   0.0000
    44 H17     -4.3396   5.9068  11.0992   H         1 RES1   0.0000
    45 H18     -3.9505   7.1872  11.9779   H         1 RES1   0.0000
    46 H19     -3.1722   6.8857  10.6131   H         1 RES1   0.0000
    47 C14     -5.0289   7.6509  10.3210   C.2       1 RES1   0.0000
    48 C15     -5.2438   9.0786  10.4440   C.2       1 RES1   0.0000
    49 C16     -6.3413  10.9173  10.1613   C.2       1 RES1   0.0000
    50 H20     -7.0099  11.5379   9.8929   H         1 RES1   0.0000
    51 C17     -5.2184  11.2242  10.8662   C.2       1 RES1   0.0000
    52 H21     -4.9624  12.0868  11.1725   H         1 RES1   0.0000
    53 C18     -3.2388   9.9479  11.7508   C.3       1 RES1   0.0000
    54 H22     -2.6473   9.3463  11.2529   H         1 RES1   0.0000
    55 H23     -3.3894   9.5856  12.6496   H         1 RES1   0.0000
    56 H24     -2.8240  10.8321  11.8206   H         1 RES1   0.0000
    57 C19     -7.4907   3.8167   9.7013   C.ar      1 RES1   0.0000
    58 C20     -8.5560   3.2637  10.4416   C.ar      1 RES1   0.0000
    59 H25     -9.3175   3.7991  10.6332   H         1 RES1   0.0000
    60 C21     -8.5135   1.9482  10.8969   C.ar      1 RES1   0.0000
    61 H26     -9.2493   1.5899  11.3783   H         1 RES1   0.0000
    62 C22     -7.3997   1.1600  10.6486   C.ar      1 RES1   0.0000
    63 H27     -7.3688   0.2636  10.9632   H         1 RES1   0.0000
    64 C23     -6.3474   1.6819   9.9484   C.ar      1 RES1   0.0000
    65 H28     -5.5851   1.1438   9.7711   H         1 RES1   0.0000
    66 C24     -6.3878   2.9906   9.4967   C.ar      1 RES1   0.0000
    67 H29     -5.6378   3.3381   9.0307   H         1 RES1   0.0000
    68 Cl1    -14.6620   7.2879   8.2581   Cl        2 RES2   0.0000
    69 O4     -14.6019   6.3435   9.3299   O.2       2 RES2   0.0000
    70 O5     -13.8179   8.3702   8.5837   O.2       2 RES2   0.0000
    71 O6     -14.1836   6.6694   7.0604   O.3       2 RES2  -1.0000
    72 O7     -16.0061   7.6698   8.1047   O.2       2 RES2   0.0000
    73 C25     -8.4761  14.4203   7.0379   C.1       3 RES3   0.0000
    74 C26     -9.4112  15.3518   7.4755   C.3       3 RES3   0.0000
    75 H30    -10.1393  15.4140   6.8239   H         3 RES3   0.0000
    76 H31     -8.9798  16.2279   7.5690   H         3 RES3   0.0000
    77 H32     -9.7700  15.0706   8.3424   H         3 RES3   0.0000
    78 N10     -7.7262  13.6700   6.6394   N.1       3 RES3   0.0000
@<TRIPOS>BOND
     1     1     6    1
     2     2     3    1
     3     3     6    1
     4     4     2    1
     5     5     2    1
     6     6    19    2
     7     7     1    1
     8     8    20    1
     9     9     1    1
    10    10     1    1
    11    11    34    1
    12    12     1    1
    13    13     1    1
    14    14    48    1
    15    15    16    1
    16    17    15    1
    17    18    15    1
    18    19    15    1
    19    20     7    2
    20    21     7    1
    21    22    21    1
    22    23     8    1
    23    24    23    1
    24    25     8    1
    25    26    25    1
    26    27    25    1
    27    28    25    1
    28    29    30    1
    29    31    29    1
    30    32    29    1
    31    33     9    2
    32    34    10    2
    33    35    10    1
    34    36    35    1
    35    37    11    1
    36    38    37    1
    37    39    11    1
    38    40    39    1
    39    41    39    1
    40    42    39    1
    41    43    44    1
    42    45    43    1
    43    46    43    1
    44    47    12    2
    45    48    13    2
    46    49    13    1
    47    50    49    1
    48    51    14    1
    49    52    51    1
    50    53    14    1
    51    54    53    1
    52    55    53    1
    53    56    53    1
    54    57     2    1
    55    58    57   ar
    56    59    58    1
    57    60    58   ar
    58    61    60    1
    59    62    60   ar
    60    63    62    1
    61    64    62   ar
    62    65    64    1
    63    66    57   ar
    64    67    66    1
    65     4     9    1
    66     5    12    1
    67    19    20    1
    68    21    23    2
    69    29    33    1
    70    33    34    1
    71    35    37    2
    72    43    47    1
    73    47    48    1
    74    49    51    2
    75    64    66   ar
    76    68    69    2
    77    70    68    2
    78    71    68    1
    79    72    68    2
    80    73    74    1
    81    74    75    1
    82    76    74    1
    83    77    74    1
    84    78    73    3
@<TRIPOS>SUBSTRUCTURE
     1 RES1        1 GROUP             0 ****  ****    0  
     2 RES2       68 GROUP             0 ****  ****    0  
     3 RES3       73 GROUP             0 ****  ****    0  
@<TRIPOS>CRYSIN
   19.1121   13.5199   21.9180   90.0000  147.3450   90.0000    14     1
