@<TRIPOS>MOLECULE
AZAMOG
    78    84     3     0     0
SMALL
USER_CHARGES
****
Generated from the CSD

@<TRIPOS>ATOM
     1 Fe1     -7.3303   8.2739   8.7335   Fe        1 RES1   1.0000
     2 B1      -7.5814   5.3761   9.3421   B         1 RES1   0.0000
     3 O1      -8.4809   6.1237  10.2535   O.3       1 RES1   0.0000
     4 O2      -8.0154   5.5810   7.9050   O.3       1 RES1   0.0000
     5 O3      -6.1406   5.7953   9.4957   O.3       1 RES1   0.0000
     6 N1      -8.6295   7.4409   9.8672   N.2       1 RES1   0.0000
     7 N2      -8.8490   9.5235   8.5228   N.2       1 RES1   0.0000
     8 N3     -10.7352  10.2669   9.4025   N.pl3     1 RES1   0.0000
     9 N4      -7.6767   6.8639   7.4814   N.2       1 RES1   0.0000
    10 N5      -6.4911   9.0177   7.1244   N.2       1 RES1   0.0000
    11 N6      -6.5763   9.0790   4.9169   N.pl3     1 RES1   0.0000
    12 N7      -6.0155   7.1692   9.5272   N.2       1 RES1   0.0000
    13 N8      -6.3949   9.5887   9.8655   N.2       1 RES1   0.0000
    14 N9      -4.5415  10.0631  10.9844   N.pl3     1 RES1   0.0000
    15 C1     -10.9618   7.3233  10.7345   C.3       1 RES1   0.0000
    16 H1     -10.7354   6.3921  10.9370   H         1 RES1   0.0000
    17 H2     -11.7390   7.3489  10.1390   H         1 RES1   0.0000
    18 H3     -11.1697   7.7970  11.5657   H         1 RES1   0.0000
    19 C2      -9.8014   7.9827  10.0656   C.2       1 RES1   0.0000
    20 C3      -9.8375   9.2584   9.3883   C.2       1 RES1   0.0000
    21 C4      -9.1319  10.7495   7.9864   C.2       1 RES1   0.0000
    22 H4      -8.5997  11.2070   7.3458   H         1 RES1   0.0000
    23 C5     -10.2910  11.2070   8.5145   C.2       1 RES1   0.0000
    24 H5     -10.7168  12.0306   8.3061   H         1 RES1   0.0000
    25 C6     -11.9291  10.3861  10.2574   C.3       1 RES1   0.0000
    26 H6     -11.6948  10.1560  11.1809   H         1 RES1   0.0000
    27 H7     -12.6225   9.7738   9.9353   H         1 RES1   0.0000
    28 H8     -12.2634  11.3066  10.2242   H         1 RES1   0.0000
    29 C7      -7.6608   6.0072   5.1494   C.3       1 RES1   0.0000
    30 H9      -8.0175   5.1904   5.5555   H         1 RES1   0.0000
    31 H10     -6.8075   5.8094   4.7113   H         1 RES1   0.0000
    32 H11     -8.2971   6.3477   4.4863   H         1 RES1   0.0000
    33 C8      -7.4478   7.0340   6.2056   C.2       1 RES1   0.0000
    34 C9      -6.8692   8.3528   6.0220   C.2       1 RES1   0.0000
    35 C10     -5.9362  10.1923   6.7041   C.2       1 RES1   0.0000
    36 H12     -5.5803  10.8706   7.2677   H         1 RES1   0.0000
    37 C11     -5.9761  10.2354   5.3412   C.2       1 RES1   0.0000
    38 H13     -5.6493  10.9365   4.7895   H         1 RES1   0.0000
    39 C12     -6.8396   8.7403   3.5131   C.3       1 RES1   0.0000
    40 H14     -7.7688   8.4416   3.4195   H         1 RES1   0.0000
    41 H15     -6.2361   8.0231   3.2301   H         1 RES1   0.0000
    42 H16     -6.6930   9.5316   2.9530   H         1 RES1   0.0000
    43 C13     -4.1422   6.8187  11.1028   C.3       1 RES1   0.0000
    44 H17     -4.4732   5.8982  11.1584   H         1 RES1   0.0000
    45 H18     -4.0483   7.1874  12.0062   H         1 RES1   0.0000
    46 H19     -3.2702   6.8267  10.6540   H         1 RES1   0.0000
    47 C14     -5.1058   7.6449  10.3284   C.2       1 RES1   0.0000
    48 C15     -5.2880   9.0794  10.4172   C.2       1 RES1   0.0000
    49 C16     -6.3400  10.9432  10.0762   C.2       1 RES1   0.0000
    50 H20     -6.9907  11.5744   9.7897   H         1 RES1   0.0000
    51 C17     -5.2058  11.2339  10.7618   C.2       1 RES1   0.0000
    52 H21     -4.9267  12.0978  11.0388   H         1 RES1   0.0000
    53 C18     -3.2631   9.9326  11.6901   C.3       1 RES1   0.0000
    54 H22     -2.7683   9.1656  11.3325   H         1 RES1   0.0000
    55 H23     -3.4289   9.7980  12.6456   H         1 RES1   0.0000
    56 H24     -2.7354  10.7495  11.5622   H         1 RES1   0.0000
    57 C19     -7.6244   3.8447   9.7909   C.ar      1 RES1   0.0000
    58 C20     -8.6741   3.3279  10.5688   C.ar      1 RES1   0.0000
    59 H25     -9.4197   3.8797  10.7701   H         1 RES1   0.0000
    60 C21     -8.6380   2.0186  11.0483   C.ar      1 RES1   0.0000
    61 H26     -9.3587   1.6875  11.5740   H         1 RES1   0.0000
    62 C22     -7.5650   1.1977  10.7641   C.ar      1 RES1   0.0000
    63 H27     -7.5356   0.3095  11.0980   H         1 RES1   0.0000
    64 C23     -6.5343   1.6808   9.9921   C.ar      1 RES1   0.0000
    65 H28     -5.8033   1.1156   9.7731   H         1 RES1   0.0000
    66 C24     -6.5556   2.9861   9.5327   C.ar      1 RES1   0.0000
    67 H29     -5.8184   3.3077   9.0260   H         1 RES1   0.0000
    68 Cl1    -14.7928   7.3544   8.2252   Cl        2 RES2   0.0000
    69 O4     -14.8435   6.4715   9.3326   O.2       2 RES2   0.0000
    70 O5     -13.8968   8.3931   8.5772   O.2       2 RES2   0.0000
    71 O6     -14.2851   6.6794   7.0710   O.3       2 RES2  -1.0000
    72 O7     -16.0818   7.8010   7.9959   O.2       2 RES2   0.0000
    73 C25     -8.5468  14.3828   7.0640   C.1       3 RES3   0.0000
    74 C26     -9.5641  15.2993   7.5068   C.3       3 RES3   0.0000
    75 H30    -10.3880  15.1378   7.0036   H         3 RES3   0.0000
    76 H31     -9.2620  16.2197   7.3541   H         3 RES3   0.0000
    77 H32     -9.7299  15.1633   8.4624   H         3 RES3   0.0000
    78 N10     -7.7467  13.6629   6.7052   N.1       3 RES3   0.0000
@<TRIPOS>BOND
     1     1     6    1
     2     2     3    1
     3     3     6    1
     4     4     2    1
     5     5     2    1
     6     6    19    2
     7     7     1    1
     8     8    20    1
     9     9     1    1
    10    10     1    1
    11    11    34    1
    12    12     1    1
    13    13     1    1
    14    14    48    1
    15    15    16    1
    16    17    15    1
    17    18    15    1
    18    19    15    1
    19    20     7    2
    20    21     7    1
    21    22    21    1
    22    23     8    1
    23    24    23    1
    24    25     8    1
    25    26    25    1
    26    27    25    1
    27    28    25    1
    28    29    30    1
    29    31    29    1
    30    32    29    1
    31    33     9    2
    32    34    10    2
    33    35    10    1
    34    36    35    1
    35    37    11    1
    36    38    37    1
    37    39    11    1
    38    40    39    1
    39    41    39    1
    40    42    39    1
    41    43    44    1
    42    45    43    1
    43    46    43    1
    44    47    12    2
    45    48    13    2
    46    49    13    1
    47    50    49    1
    48    51    14    1
    49    52    51    1
    50    53    14    1
    51    54    53    1
    52    55    53    1
    53    56    53    1
    54    57     2    1
    55    58    57   ar
    56    59    58    1
    57    60    58   ar
    58    61    60    1
    59    62    60   ar
    60    63    62    1
    61    64    62   ar
    62    65    64    1
    63    66    57   ar
    64    67    66    1
    65     4     9    1
    66     5    12    1
    67    19    20    1
    68    21    23    2
    69    29    33    1
    70    33    34    1
    71    35    37    2
    72    43    47    1
    73    47    48    1
    74    49    51    2
    75    64    66   ar
    76    68    69    2
    77    70    68    2
    78    71    68    1
    79    72    68    2
    80    73    74    1
    81    74    75    1
    82    76    74    1
    83    77    74    1
    84    78    73    3
@<TRIPOS>SUBSTRUCTURE
     1 RES1        1 GROUP             0 ****  ****    0  
     2 RES2       68 GROUP             0 ****  ****    0  
     3 RES3       73 GROUP             0 ****  ****    0  
@<TRIPOS>CRYSIN
   19.3230   13.4570   22.0690   90.0000  147.5530   90.0000    14     1
