@<TRIPOS>MOLECULE
AZAMAS
    78    84     3     0     0
SMALL
USER_CHARGES
****
Generated from the CSD

@<TRIPOS>ATOM
     1 Fe1     11.3297   8.7473   4.8962   Fe        1 RES1   1.0000
     2 B1       8.9766   6.5107   5.0152   B         1 RES1   0.0000
     3 O1       9.7917   6.2211   3.7855   O.3       1 RES1   0.0000
     4 O2       9.8450   6.3469   6.2579   O.3       1 RES1   0.0000
     5 O3       8.3381   7.8558   4.9592   O.3       1 RES1   0.0000
     6 N1      10.7881   7.1607   3.5311   N.2       1 RES1   0.0000
     7 N2      12.5382   9.0366   3.1948   N.2       1 RES1   0.0000
     8 N3      13.2850   8.3286   1.2214   N.pl3     1 RES1   0.0000
     9 N4      10.9416   7.1829   6.3071   N.2       1 RES1   0.0000
    10 N5      12.9990   8.7547   6.2408   N.2       1 RES1   0.0000
    11 N6      13.9411   8.0318   8.1375   N.pl3     1 RES1   0.0000
    12 N7       9.2076   8.9324   4.9798   N.2       1 RES1   0.0000
    13 N8      10.9645  10.8242   5.0814   N.2       1 RES1   0.0000
    14 N9       9.5003  12.5137   5.1420   N.pl3     1 RES1   0.0000
    15 C1      11.1163   5.9561   1.3896   C.3       1 RES1   0.0000
    16 H1      11.9509   5.4997   1.1539   H         1 RES1   0.0000
    17 H2      10.7300   6.3665   0.5886   H         1 RES1   0.0000
    18 H3      10.4842   5.3094   1.7646   H         1 RES1   0.0000
    19 C2      11.4033   7.0290   2.4139   C.2       1 RES1   0.0000
    20 C3      12.4118   8.0867   2.2319   C.2       1 RES1   0.0000
    21 C4      13.5258   9.8887   2.7571   C.2       1 RES1   0.0000
    22 H4      13.8345  10.6574   3.2231   H         1 RES1   0.0000
    23 C5      13.9903   9.4620   1.5495   C.2       1 RES1   0.0000
    24 H5      14.6752   9.8709   1.0325   H         1 RES1   0.0000
    25 C6      13.5809   7.5321   0.0152   C.3       1 RES1   0.0000
    26 H6      12.7459   7.3344  -0.4591   H         1 RES1   0.0000
    27 H7      14.0149   6.6936   0.2757   H         1 RES1   0.0000
    28 H8      14.1771   8.0391  -0.5749   H         1 RES1   0.0000
    29 C7      11.5970   5.8565   8.3155   C.3       1 RES1   0.0000
    30 H9      12.4431   5.3733   8.4230   H         1 RES1   0.0000
    31 H10     10.9008   5.2335   8.0164   H         1 RES1   0.0000
    32 H11     11.3359   6.2520   9.1730   H         1 RES1   0.0000
    33 C8      11.7675   6.9448   7.2926   C.2       1 RES1   0.0000
    34 C9      12.9021   7.8800   7.2499   C.2       1 RES1   0.0000
    35 C10     14.1491   9.4843   6.4861   C.2       1 RES1   0.0000
    36 H12     14.4889  10.1757   5.9292   H         1 RES1   0.0000
    37 C11     14.7201   9.0591   7.6552   C.2       1 RES1   0.0000
    38 H13     15.5071   9.4070   8.0577   H         1 RES1   0.0000
    39 C12     14.2239   7.2957   9.3880   C.3       1 RES1   0.0000
    40 H14     14.9922   7.7031   9.8402   H         1 RES1   0.0000
    41 H15     14.4263   6.3605   9.1771   H         1 RES1   0.0000
    42 H16     13.4413   7.3359   9.9753   H         1 RES1   0.0000
    43 C13      7.1628  10.2961   5.2179   C.3       1 RES1   0.0000
    44 H17      6.9889  11.0633   5.8038   H         1 RES1   0.0000
    45 H18      6.7506   9.4932   5.5997   H         1 RES1   0.0000
    46 H19      6.7813  10.4686   4.3328   H         1 RES1   0.0000
    47 C14      8.6400  10.0879   5.0946   C.2       1 RES1   0.0000
    48 C15      9.6523  11.1555   5.1090   C.2       1 RES1   0.0000
    49 C16     11.6454  12.0238   5.0704   C.2       1 RES1   0.0000
    50 H20     12.5915  12.1115   5.0359   H         1 RES1   0.0000
    51 C17     10.7680  13.0660   5.1159   C.2       1 RES1   0.0000
    52 H21     10.9839  13.9908   5.1283   H         1 RES1   0.0000
    53 C18      8.2727  13.3247   5.2289   C.3       1 RES1   0.0000
    54 H22      8.5011  14.2733   5.1393   H         1 RES1   0.0000
    55 H23      7.8420  13.1730   6.0960   H         1 RES1   0.0000
    56 H24      7.6598  13.0675   4.5093   H         1 RES1   0.0000
    57 C19      7.8225   5.4090   5.1076   C.ar      1 RES1   0.0000
    58 C20      8.1086   4.0456   5.0083   C.ar      1 RES1   0.0000
    59 H25      9.0117   3.7765   4.8911   H         1 RES1   0.0000
    60 C21      7.1177   3.0658   5.0745   C.ar      1 RES1   0.0000
    61 H26      7.3533   2.1469   5.0042   H         1 RES1   0.0000
    62 C22      5.7789   3.4360   5.2427   C.ar      1 RES1   0.0000
    63 H27      5.0990   2.7744   5.2827   H         1 RES1   0.0000
    64 C23      5.4590   4.7845   5.3502   C.ar      1 RES1   0.0000
    65 H28      4.5542   5.0492   5.4715   H         1 RES1   0.0000
    66 C24      6.4641   5.7509   5.2813   C.ar      1 RES1   0.0000
    67 H29      6.2253   6.6683   5.3530   H         1 RES1   0.0000
    68 Cl1     14.8161   4.6052   2.2716   Cl        2 RES2   0.0000
    69 O4      14.3024   4.3070   0.9501   O.2       2 RES2   0.0000
    70 O5      14.6910   3.4364   3.1175   O.2       2 RES2   0.0000
    71 O6      14.0710   5.7102   2.8556   O.3       2 RES2  -1.0000
    72 O7      16.2126   4.9809   2.1588   O.2       2 RES2   0.0000
    73 N10     11.1917   1.6503   4.7864   N.1       3 RES3   0.0000
    74 C25     11.6321   2.6926   4.9422   C.1       3 RES3   0.0000
    75 C26     12.1922   4.0381   5.1779   C.3       3 RES3   0.0000
    76 H30     12.7205   4.3117   4.3990   H         3 RES3   0.0000
    77 H31     12.7652   4.0203   5.9719   H         3 RES3   0.0000
    78 H32     11.4608   4.6760   5.3171   H         3 RES3   0.0000
@<TRIPOS>BOND
     1     1     6    1
     2     2     3    1
     3     3     6    1
     4     4     2    1
     5     5     2    1
     6     6    19    2
     7     7     1    1
     8     8    20    1
     9     9     1    1
    10    10     1    1
    11    11    34    1
    12    12     1    1
    13    13     1    1
    14    14    48    1
    15    15    16    1
    16    17    15    1
    17    18    15    1
    18    19    15    1
    19    20     7    2
    20    21     7    1
    21    22    21    1
    22    23     8    1
    23    24    23    1
    24    25     8    1
    25    26    25    1
    26    27    25    1
    27    28    25    1
    28    29    30    1
    29    31    29    1
    30    32    29    1
    31    33     9    2
    32    34    10    2
    33    35    10    1
    34    36    35    1
    35    37    11    1
    36    38    37    1
    37    39    11    1
    38    40    39    1
    39    41    39    1
    40    42    39    1
    41    43    44    1
    42    45    43    1
    43    46    43    1
    44    47    12    2
    45    48    13    2
    46    49    13    1
    47    50    49    1
    48    51    14    1
    49    52    51    1
    50    53    14    1
    51    54    53    1
    52    55    53    1
    53    56    53    1
    54    57     2    1
    55    58    57   ar
    56    59    58    1
    57    60    58   ar
    58    61    60    1
    59    62    60   ar
    60    63    62    1
    61    64    62   ar
    62    65    64    1
    63    66    57   ar
    64    67    66    1
    65     4     9    1
    66     5    12    1
    67    19    20    1
    68    21    23    2
    69    29    33    1
    70    33    34    1
    71    35    37    2
    72    43    47    1
    73    47    48    1
    74    49    51    2
    75    64    66   ar
    76    68    69    2
    77    70    68    2
    78    71    68    1
    79    72    68    2
    80    73    74    3
    81    74    75    1
    82    75    76    1
    83    77    75    1
    84    78    75    1
@<TRIPOS>SUBSTRUCTURE
     1 RES1        1 GROUP             0 ****  ****    0  
     2 RES2       68 GROUP             0 ****  ****    0  
     3 RES3       73 GROUP             0 ****  ****    0  
@<TRIPOS>CRYSIN
   15.6720   14.8680   13.7920   90.0000   91.7400   90.0000    14     1
