@<TRIPOS>MOLECULE
AZUHAH
    85    87     7     0     0
SMALL
USER_CHARGES
****
Generated from the CSD

@<TRIPOS>ATOM
     1 Fe1      9.7443   0.3974  12.7985   Fe        1 RES1   0.0000
     2 O1      10.3540   1.6343  14.2321   O.co2     1 RES1   0.0000
     3 O2       8.0766   0.4720  13.9206   O.co2     1 RES1  -1.0000
     4 O3      10.5741  -1.1904  13.7180   O.co2     1 RES1  -1.0000
     5 O4       8.9701  -1.0998  11.7115   O.co2     1 RES1   0.0000
     6 O5       8.9564   1.7868  11.5577   O.co2     1 RES1  -1.0000
     7 O6      11.3393   0.7931  11.7194   O.co2     1 RES1   0.0000
     8 O7       9.5996   3.3245  10.0831   O.co2     1 RES1   0.0000
     9 O8      12.1357   2.2239  10.2158   O.co2     1 RES1   0.0000
    10 O9      10.7176  -3.4122  13.6451   O.co2     1 RES1   0.0000
    11 O10      8.9032  -3.3191  11.5347   O.co2     1 RES1   0.0000
    12 O11      9.6083   2.8830  15.9160   O.co2     1 RES1   0.0000
    13 O12      7.1946   1.4791  15.6852   O.co2     1 RES1   0.0000
    14 C1       9.4611   2.0313  15.0550   C.2       1 RES1   0.0000
    15 C2       8.1139   1.2895  14.9125   C.2       1 RES1   0.0000
    16 C3       9.3072  -2.3022  12.0601   C.2       1 RES1   0.0000
    17 C4      10.2833  -2.3503  13.2399   C.2       1 RES1   0.0000
    18 C5       9.8175   2.3639  10.8117   C.2       1 RES1   0.0000
    19 C6      11.2475   1.7620  10.9010   C.2       1 RES1   0.0000
    20 O13      7.1294   4.5442   9.4036   O.3       2 RES2   0.0000
    21 H1       7.3672   5.2665   9.8398   H         2 RES2   0.0000
    22 H2       7.8962   4.1831   9.5135   H         2 RES2   0.0000
    23 O14      6.9801   3.2772  13.0080   O.3       3 RES3   0.0000
    24 H3       6.7313   3.9122  12.4328   H         3 RES3   0.0000
    25 H4       7.4295   2.8288  12.3984   H         3 RES3   0.0000
    26 O15      6.6201  -1.8448  14.0985   O.3       4 RES4   0.0000
    27 H5       7.1176  -1.1135  14.1157   H         4 RES4   0.0000
    28 H6       7.2481  -2.4226  14.3217   H         4 RES4   0.0000
    29 N1       8.3179   2.2886   7.3566   N.pl3     5 RES5   0.0000
    30 H7       8.8381   2.9507   7.5284   H         5 RES5   0.0000
    31 N2       6.5888   1.1872   6.7264   N.pl3     5 RES5   1.0000
    32 H8       5.8011   1.0127   6.4276   H         5 RES5   0.0000
    33 C7       7.0932   2.3865   6.8844   C.2       5 RES5   0.0000
    34 H9       6.6524   3.1824   6.6938   H         5 RES5   0.0000
    35 C8       8.6368   0.9630   7.5318   C.ar      5 RES5   0.0000
    36 C9       7.5278   0.2453   7.1197   C.ar      5 RES5   0.0000
    37 C10      9.7841   0.3340   7.9817   C.ar      5 RES5   0.0000
    38 H10     10.5294   0.8201   8.2513   H         5 RES5   0.0000
    39 C11      9.7768  -1.0503   8.0160   C.ar      5 RES5   0.0000
    40 C12      7.4991  -1.1240   7.1471   C.ar      5 RES5   0.0000
    41 H11      6.7499  -1.6040   6.8758   H         5 RES5   0.0000
    42 C13      8.6224  -1.7424   7.5919   C.ar      5 RES5   0.0000
    43 H12      8.6326  -2.6723   7.6177   H         5 RES5   0.0000
    44 C14     11.0080  -1.7801   8.4986   C.3       5 RES5   0.0000
    45 H13     11.7655  -1.1902   8.4591   H         5 RES5   0.0000
    46 H14     11.1668  -2.5444   7.9405   H         5 RES5   0.0000
    47 H15     10.8754  -2.0690   9.4053   H         5 RES5   0.0000
    48 N3      11.6048   2.3308  18.4311   N.pl3     6 RES6   0.0000
    49 H16     11.0733   2.9718  18.2130   H         6 RES6   0.0000
    50 N4      13.3592   1.2971  19.1439   N.pl3     6 RES6   1.0000
    51 H17     14.1466   1.1616  19.4631   H         6 RES6   0.0000
    52 C15     12.8251   2.4662  18.9256   C.2       6 RES6   0.0000
    53 H18     13.2421   3.2802  19.0939   H         6 RES6   0.0000
    54 C16     12.4640   0.3085  18.7814   C.ar      6 RES6   0.0000
    55 C17     11.3343   0.9720  18.3246   C.ar      6 RES6   0.0000
    56 C18     10.2097   0.2829  17.8816   C.ar      6 RES6   0.0000
    57 H19      9.4500   0.7343  17.5913   H         6 RES6   0.0000
    58 C19     12.5211  -1.0789  18.8157   C.ar      6 RES6   0.0000
    59 H20     13.2696  -1.5318  19.1317   H         6 RES6   0.0000
    60 C20     10.2618  -1.0939  17.8919   C.ar      6 RES6   0.0000
    61 C21     11.4168  -1.7455  18.3607   C.ar      6 RES6   0.0000
    62 H21     11.4316  -2.6754  18.3590   H         6 RES6   0.0000
    63 C22      9.0875  -1.8989  17.3767   C.3       6 RES6   0.0000
    64 H22      8.3115  -1.3377  17.3269   H         6 RES6   0.0000
    65 H23      8.9147  -2.6317  17.9726   H         6 RES6   0.0000
    66 H24      9.2921  -2.2405  16.5026   H         6 RES6   0.0000
    67 N5       8.2967   0.1791  20.9125   N.pl3     7 RES7   0.0000
    68 H25      7.6477   0.6876  20.6652   H         7 RES7   0.0000
    69 N6       9.4259  -1.5920  21.3246   N.pl3     7 RES7   1.0000
    70 H26      9.6475  -2.4211  21.3916   H         7 RES7   0.0000
    71 C23      8.3002  -1.1376  20.8695   C.2       7 RES7   0.0000
    72 H27      7.5986  -1.6627  20.5587   H         7 RES7   0.0000
    73 C24     10.2019  -0.5146  21.6801   C.ar      7 RES7   0.0000
    74 C25      9.5021   0.6079  21.4191   C.ar      7 RES7   0.0000
    75 C26     11.4418   1.7530  22.2794   C.ar      7 RES7   0.0000
    76 C27     10.1166   1.9034  21.7213   C.ar      7 RES7   0.0000
    77 H28      9.7047   2.7235  21.5702   H         7 RES7   0.0000
    78 C28     11.4779  -0.5071  22.2124   C.ar      7 RES7   0.0000
    79 H29     11.9204  -1.3076  22.3790   H         7 RES7   0.0000
    80 C29     12.0608   0.6395  22.4803   C.ar      7 RES7   0.0000
    81 H30     12.9270   0.6485  22.8169   H         7 RES7   0.0000
    82 C30     12.1717   3.0244  22.6606   C.3       7 RES7   0.0000
    83 H31     13.0829   2.8168  22.8804   H         7 RES7   0.0000
    84 H32     11.7424   3.4247  23.4214   H         7 RES7   0.0000
    85 H33     12.1511   3.6384  21.9222   H         7 RES7   0.0000
@<TRIPOS>BOND
     1     1     2    1
     2     2    14    1
     3     3     1    1
     4     4     1    1
     5     5     1    1
     6     6     1    1
     7     7     1    1
     8     8    18    2
     9     9    19    2
    10    10    17    2
    11    11    16    2
    12    12    14    2
    13    13    15    2
    14    14    15    1
    15    15     3    1
    16    16     5    1
    17    17     4    1
    18    18     6    1
    19    19     7    1
    20    16    17    1
    21    18    19    1
    22    20    21    1
    23    22    20    1
    24    23    24    1
    25    25    23    1
    26    26    27    1
    27    28    26    1
    28    29    30    1
    29    31    32    1
    30    33    29    1
    31    34    33    1
    32    35    29    1
    33    36    31    1
    34    37    35   ar
    35    38    37    1
    36    39    37   ar
    37    40    36   ar
    38    41    40    1
    39    42    39   ar
    40    43    42    1
    41    44    39    1
    42    45    44    1
    43    46    44    1
    44    47    44    1
    45    31    33    2
    46    35    36   ar
    47    40    42   ar
    48    48    49    1
    49    50    51    1
    50    52    48    1
    51    53    52    1
    52    54    50    1
    53    55    48    1
    54    56    55   ar
    55    57    56    1
    56    58    54   ar
    57    59    58    1
    58    60    56   ar
    59    61    58   ar
    60    62    61    1
    61    63    60    1
    62    64    63    1
    63    65    63    1
    64    66    63    1
    65    50    52    2
    66    54    55   ar
    67    60    61   ar
    68    67    68    1
    69    69    70    1
    70    71    67    1
    71    72    71    1
    72    73    69    1
    73    74    67    1
    74    75    76   ar
    75    76    74   ar
    76    77    76    1
    77    78    73   ar
    78    79    78    1
    79    80    75   ar
    80    81    80    1
    81    82    75    1
    82    83    82    1
    83    84    82    1
    84    85    82    1
    85    69    71    2
    86    73    74   ar
    87    78    80   ar
@<TRIPOS>SUBSTRUCTURE
     1 RES1        1 GROUP             0 ****  ****    0  
     2 RES2       20 GROUP             0 ****  ****    0  
     3 RES3       23 GROUP             0 ****  ****    0  
     4 RES4       26 GROUP             0 ****  ****    0  
     5 RES5       29 GROUP             0 ****  ****    0  
     6 RES6       48 GROUP             0 ****  ****    0  
     7 RES7       67 GROUP             0 ****  ****    0  
@<TRIPOS>CRYSIN
   13.4170   15.0470   17.1750   90.0000   91.0080   90.0000    14     1
