@<TRIPOS>MOLECULE
BADWAG
    94   105     3     0     0
SMALL
USER_CHARGES
****
Generated from the CSD

@<TRIPOS>ATOM
     1 Fe1      0.0000   0.0000   0.3435   Fe        1 RES1   2.0000
     2 C13     -1.5775   2.4670   0.9479   C.ar      1 RES1   0.0000
     3 H7      -0.9807   2.6421   1.6395   H         1 RES1   0.0000
     4 C14     -2.6147   3.3749   0.7139   C.ar      1 RES1   0.0000
     5 H8      -2.6983   4.1264   1.2533   H         1 RES1   0.0000
     6 C15     -3.5133   3.1658  -0.3066   C.ar      1 RES1   0.0000
     7 H9      -4.1882   3.7813  -0.4868   H         1 RES1   0.0000
     8 C16     -3.3772   1.9892  -1.0673   C.ar      1 RES1   0.0000
     9 C17     -4.2892   1.6084  -2.1193   C.ar      1 RES1   0.0000
    10 H10     -4.9924   2.1746  -2.3464   H         1 RES1   0.0000
    11 C18     -2.3292   1.1323  -0.7654   C.ar      1 RES1   0.0000
    12 C19     -0.9497  -2.0573  -1.6793   C.ar      1 RES1   0.0000
    13 H11     -0.2452  -2.6098  -1.4265   H         1 RES1   0.0000
    14 C20     -1.8173  -2.4857  -2.6799   C.ar      1 RES1   0.0000
    15 H12     -1.6825  -3.3154  -3.0790   H         1 RES1   0.0000
    16 C21     -2.8572  -1.7121  -3.0813   C.ar      1 RES1   0.0000
    17 H13     -3.4284  -2.0045  -3.7542   H         1 RES1   0.0000
    18 C22     -3.0620  -0.4744  -2.4751   C.ar      1 RES1   0.0000
    19 C23     -4.1316   0.4319  -2.7817   C.ar      1 RES1   0.0000
    20 H14     -4.7351   0.2074  -3.4523   H         1 RES1   0.0000
    21 C24     -2.1446  -0.0969  -1.4710   C.ar      1 RES1   0.0000
    22 C25      1.8967   1.8362   1.8198   C.ar      1 RES1   0.0000
    23 H15      2.2052   2.1389   0.9971   H         1 RES1   0.0000
    24 C26      2.4639   2.3752   2.9748   C.ar      1 RES1   0.0000
    25 H16      3.1186   3.0315   2.9058   H         1 RES1   0.0000
    26 C27      2.0638   1.9433   4.2012   C.ar      1 RES1   0.0000
    27 H17      2.4558   2.2800   4.9748   H         1 RES1   0.0000
    28 C28      1.0359   0.9708   4.2761   C.ar      1 RES1   0.0000
    29 C29      0.5092   0.4591   5.5108   C.ar      1 RES1   0.0000
    30 H18      0.8622   0.7532   6.3194   H         1 RES1   0.0000
    31 C30      0.5281   0.4948   3.0567   C.ar      1 RES1   0.0000
    32 N1      -1.0965  -0.8756  -1.0720   N.ar      1 RES1   0.0000
    33 N2       0.9389   0.9147   1.8303   N.ar      1 RES1   0.0000
    34 N3      -1.4077   1.3661   0.2259   N.ar      1 RES1   0.0000
    35 C13A     1.5775  -2.4670   0.9479   C.ar      1 RES1   0.0000
    36 H7A      0.9807  -2.6421   1.6395   H         1 RES1   0.0000
    37 C14A     2.6147  -3.3749   0.7139   C.ar      1 RES1   0.0000
    38 H8A      2.6983  -4.1264   1.2533   H         1 RES1   0.0000
    39 C15A     3.5133  -3.1658  -0.3066   C.ar      1 RES1   0.0000
    40 H9A      4.1882  -3.7813  -0.4868   H         1 RES1   0.0000
    41 C16A     3.3772  -1.9892  -1.0673   C.ar      1 RES1   0.0000
    42 C17A     4.2892  -1.6084  -2.1193   C.ar      1 RES1   0.0000
    43 H10A     4.9924  -2.1746  -2.3464   H         1 RES1   0.0000
    44 C18A     2.3292  -1.1323  -0.7654   C.ar      1 RES1   0.0000
    45 C19A     0.9497   2.0573  -1.6793   C.ar      1 RES1   0.0000
    46 H11A     0.2452   2.6098  -1.4265   H         1 RES1   0.0000
    47 C20A     1.8173   2.4857  -2.6799   C.ar      1 RES1   0.0000
    48 H12A     1.6825   3.3154  -3.0790   H         1 RES1   0.0000
    49 C21A     2.8572   1.7121  -3.0813   C.ar      1 RES1   0.0000
    50 H13A     3.4284   2.0045  -3.7542   H         1 RES1   0.0000
    51 C22A     3.0620   0.4744  -2.4751   C.ar      1 RES1   0.0000
    52 C23A     4.1316  -0.4319  -2.7817   C.ar      1 RES1   0.0000
    53 H14A     4.7351  -0.2074  -3.4523   H         1 RES1   0.0000
    54 C24A     2.1446   0.0969  -1.4710   C.ar      1 RES1   0.0000
    55 C25A    -1.8967  -1.8362   1.8198   C.ar      1 RES1   0.0000
    56 H15A    -2.2052  -2.1389   0.9971   H         1 RES1   0.0000
    57 C26A    -2.4639  -2.3752   2.9748   C.ar      1 RES1   0.0000
    58 H16A    -3.1186  -3.0315   2.9058   H         1 RES1   0.0000
    59 C27A    -2.0638  -1.9433   4.2012   C.ar      1 RES1   0.0000
    60 H17A    -2.4558  -2.2800   4.9748   H         1 RES1   0.0000
    61 C28A    -1.0359  -0.9708   4.2761   C.ar      1 RES1   0.0000
    62 C29A    -0.5092  -0.4591   5.5108   C.ar      1 RES1   0.0000
    63 H18A    -0.8622  -0.7532   6.3194   H         1 RES1   0.0000
    64 C30A    -0.5281  -0.4948   3.0567   C.ar      1 RES1   0.0000
    65 N1A      1.0965   0.8756  -1.0720   N.ar      1 RES1   0.0000
    66 N2A     -0.9389  -0.9147   1.8303   N.ar      1 RES1   0.0000
    67 N3A      1.4077  -1.3661   0.2259   N.ar      1 RES1   0.0000
    68 C1       4.9803   0.2329   3.0731   C.ar      2 RES2   0.0000
    69 H1       4.7001  -0.3060   3.7764   H         2 RES2   0.0000
    70 C2       4.6772  -0.1615   1.8092   C.ar      2 RES2   0.0000
    71 H2       4.2299  -0.9623   1.6489   H         2 RES2   0.0000
    72 C3       5.0584   0.6716   0.7665   C.ar      2 RES2   0.0000
    73 H3       4.8240   0.4523  -0.1065   H         2 RES2   0.0000
    74 C4       5.7751   1.8124   1.0099   C.ar      2 RES2   0.0000
    75 C5       6.0701   2.1117   2.3604   C.ar      2 RES2   0.0000
    76 C6       4.0332   5.8589   4.4423   C.ar      2 RES2   0.0000
    77 H4       3.5537   6.2126   3.7284   H         2 RES2   0.0000
    78 C7       3.6156   6.1752   5.7179   C.ar      2 RES2   0.0000
    79 H5       2.9192   6.7719   5.8712   H         2 RES2   0.0000
    80 C8       4.2771   5.5648   6.7465   C.ar      2 RES2   0.0000
    81 H6       4.0077   5.7331   7.6207   H         2 RES2   0.0000
    82 C9       5.3292   4.7062   6.5265   C.ar      2 RES2   0.0000
    83 C10      5.9839   4.0210   7.6594   C.2       2 RES2   0.0000
    84 C11      5.7198   4.5107   5.1807   C.ar      2 RES2   0.0000
    85 C12      6.1684   2.7288  -0.1053   C.2       2 RES2   0.0000
    86 N4       5.6579   1.3551   3.3727   N.ar      2 RES2   0.0000
    87 N5       5.0719   5.0870   4.1673   N.ar      2 RES2   0.0000
    88 O1       6.9417   3.6488   0.0609   O.co2     2 RES2   0.0000
    89 O2       5.5797   2.4466  -1.2253   O.co2     2 RES2   0.0000
    90 O3       5.4342   4.1876   8.8097   O.co2     2 RES2   0.0000
    91 O4       7.0023   3.3426   7.4733   O.co2     2 RES2  -1.0000
    92 S1       7.1285   3.5147   2.7563   S.3       2 RES2   0.0000
    93 S2       7.1332   3.4995   4.8018   S.3       2 RES2   0.0000
    94 O5       5.4827   0.9385   6.2527   O.3       3 RES3   0.0000
@<TRIPOS>BOND
     1     1    32    1
     2     2     3    1
     3     4     2   ar
     4     5     4    1
     5     6     4   ar
     6     7     6    1
     7     8     6   ar
     8     9     8   ar
     9    10     9    1
    10    11     8   ar
    11    12    13    1
    12    14    12   ar
    13    15    14    1
    14    16    14   ar
    15    17    16    1
    16    18    16   ar
    17    19     9   ar
    18    20    19    1
    19    21    11   ar
    20    22    23    1
    21    24    22   ar
    22    25    24    1
    23    26    24   ar
    24    27    26    1
    25    28    26   ar
    26    29    28   ar
    27    30    29    1
    28    31    28   ar
    29    32    12   ar
    30    33     1    1
    31    34     1    1
    32    35    36    1
    33    37    35   ar
    34    38    37    1
    35    39    37   ar
    36    40    39    1
    37    41    39   ar
    38    42    41   ar
    39    43    42    1
    40    44    41   ar
    41    45    46    1
    42    47    45   ar
    43    48    47    1
    44    49    47   ar
    45    50    49    1
    46    51    49   ar
    47    52    42   ar
    48    53    52    1
    49    54    44   ar
    50    55    56    1
    51    57    55   ar
    52    58    57    1
    53    59    57   ar
    54    60    59    1
    55    61    59   ar
    56    62    29   ar
    57    63    62    1
    58    64    31   ar
    59    65     1    1
    60    66     1    1
    61    67     1    1
    62     2    34   ar
    63    11    34   ar
    64    18    19   ar
    65    18    21   ar
    66    21    32   ar
    67    22    33   ar
    68    31    33   ar
    69    35    67   ar
    70    44    67   ar
    71    45    65   ar
    72    51    52   ar
    73    51    54   ar
    74    54    65   ar
    75    55    66   ar
    76    61    62   ar
    77    61    64   ar
    78    64    66   ar
    79    68    69    1
    80    70    68   ar
    81    71    70    1
    82    72    70   ar
    83    73    72    1
    84    74    72   ar
    85    75    74   ar
    86    76    77    1
    87    78    76   ar
    88    79    78    1
    89    80    78   ar
    90    81    80    1
    91    82    80   ar
    92    83    82    1
    93    84    82   ar
    94    85    74    1
    95    86    68   ar
    96    87    76   ar
    97    88    85    2
    98    89    85    1
    99    90    83    2
   100    91    83    1
   101    92    75    1
   102    93    84    1
   103    75    86   ar
   104    84    87   ar
   105    92    93    1
@<TRIPOS>SUBSTRUCTURE
     1 RES1        1 GROUP             0 ****  ****    0  
     2 RES2       68 GROUP             0 ****  ****    0  
     3 RES3       94 GROUP             0 ****  ****    0  
@<TRIPOS>CRYSIN
   13.4711   17.0021   11.7026   90.0000   90.0000   90.0000    32     1
