@<TRIPOS>MOLECULE
BADWAG01
    97   108     3     0     0
SMALL
USER_CHARGES
****
Generated from the CSD

@<TRIPOS>ATOM
     1 Fe1     -2.8369   1.4629   4.3305   Fe        1 RES1   2.0000
     2 C1      -0.4459   0.4185   5.3529   C.ar      1 RES1   0.0000
     3 C2      -0.6832  -0.3378   4.1772   C.ar      1 RES1   0.0000
     4 C3       0.1884  -1.3595   3.8038   C.ar      1 RES1   0.0000
     5 C4       0.6864   0.1683   6.1397   C.ar      1 RES1   0.0000
     6 C5       1.3235  -1.6190   4.6373   C.ar      1 RES1   0.0000
     7 H1       1.9045  -2.3098   4.4102   H         1 RES1   0.0000
     8 C6      -1.1547   2.1263   6.7137   C.ar      1 RES1   0.0000
     9 H2      -1.7694   2.7903   6.9254   H         1 RES1   0.0000
    10 C7      -1.1819  -1.6634   1.8782   C.ar      1 RES1   0.0000
    11 H3      -1.3748  -2.1041   1.0826   H         1 RES1   0.0000
    12 C8       1.5706  -0.8907   5.7397   C.ar      1 RES1   0.0000
    13 H4       2.3257  -1.0743   6.2516   H         1 RES1   0.0000
    14 C9      -2.0058  -0.6219   2.3129   C.ar      1 RES1   0.0000
    15 H5      -2.7350  -0.3787   1.7894   H         1 RES1   0.0000
    16 C10      0.8688   0.9936   7.2642   C.ar      1 RES1   0.0000
    17 H6       1.6094   0.8791   7.8140   H         1 RES1   0.0000
    18 C11     -0.0475   1.9592   7.5402   C.ar      1 RES1   0.0000
    19 H7       0.0662   2.5086   8.2817   H         1 RES1   0.0000
    20 C12     -0.0983  -2.0386   2.6143   C.ar      1 RES1   0.0000
    21 H8       0.4435  -2.7377   2.3298   H         1 RES1   0.0000
    22 N1      -1.3752   1.3836   5.6396   N.ar      1 RES1   0.0000
    23 N2      -1.7819   0.0366   3.4506   N.ar      1 RES1   0.0000
    24 C13     -2.3275   4.1790   3.8393   C.ar      1 RES1   0.0000
    25 C14     -1.8000   5.3889   3.3553   C.ar      1 RES1   0.0000
    26 C15     -0.9431   2.9189   2.5005   C.ar      1 RES1   0.0000
    27 H9      -0.6545   2.0913   2.1878   H         1 RES1   0.0000
    28 C16     -0.7728   5.2872   2.3939   C.ar      1 RES1   0.0000
    29 H10     -0.3883   6.0563   2.0406   H         1 RES1   0.0000
    30 C17     -0.3482   4.0609   1.9869   C.ar      1 RES1   0.0000
    31 H11      0.3399   3.9896   1.3650   H         1 RES1   0.0000
    32 N3      -1.9097   2.9490   3.4211   N.ar      1 RES1   0.0000
    33 C18     -2.3418   6.5940   3.8698   C.ar      1 RES1   0.0000
    34 H12     -2.0081   7.4065   3.5632   H         1 RES1   0.0000
    35 C1A     -5.2278   0.4185   3.3082   C.ar      1 RES1   0.0000
    36 C2A     -4.9905  -0.3378   4.4838   C.ar      1 RES1   0.0000
    37 C3A     -5.8621  -1.3595   4.8573   C.ar      1 RES1   0.0000
    38 C4A     -6.3601   0.1683   2.5214   C.ar      1 RES1   0.0000
    39 C5A     -6.9972  -1.6190   4.0238   C.ar      1 RES1   0.0000
    40 H1A     -7.5782  -2.3098   4.2509   H         1 RES1   0.0000
    41 C6A     -4.5190   2.1263   1.9474   C.ar      1 RES1   0.0000
    42 H2A     -3.9043   2.7903   1.7357   H         1 RES1   0.0000
    43 C7A     -4.4918  -1.6634   6.7828   C.ar      1 RES1   0.0000
    44 H3A     -4.2989  -2.1041   7.5785   H         1 RES1   0.0000
    45 C8A     -7.2443  -0.8907   2.9214   C.ar      1 RES1   0.0000
    46 H4A     -7.9994  -1.0743   2.4095   H         1 RES1   0.0000
    47 C9A     -3.6679  -0.6219   6.3482   C.ar      1 RES1   0.0000
    48 H5A     -2.9387  -0.3787   6.8717   H         1 RES1   0.0000
    49 C10A    -6.5425   0.9936   1.3969   C.ar      1 RES1   0.0000
    50 H6A     -7.2831   0.8791   0.8471   H         1 RES1   0.0000
    51 C11A    -5.6262   1.9592   1.1209   C.ar      1 RES1   0.0000
    52 H7A     -5.7399   2.5086   0.3794   H         1 RES1   0.0000
    53 C12A    -5.5754  -2.0386   6.0468   C.ar      1 RES1   0.0000
    54 H8A     -6.1172  -2.7377   6.3313   H         1 RES1   0.0000
    55 N1A     -4.2985   1.3836   3.0215   N.ar      1 RES1   0.0000
    56 N2A     -3.8918   0.0366   5.2105   N.ar      1 RES1   0.0000
    57 C13A    -3.3462   4.1790   4.8218   C.ar      1 RES1   0.0000
    58 C14A    -3.8737   5.3889   5.3058   C.ar      1 RES1   0.0000
    59 C15A    -4.7306   2.9189   6.1606   C.ar      1 RES1   0.0000
    60 H9A     -5.0192   2.0913   6.4733   H         1 RES1   0.0000
    61 C16A    -4.9009   5.2872   6.2672   C.ar      1 RES1   0.0000
    62 H10A    -5.2854   6.0563   6.6205   H         1 RES1   0.0000
    63 C17A    -5.3255   4.0609   6.6742   C.ar      1 RES1   0.0000
    64 H11A    -6.0136   3.9896   7.2961   H         1 RES1   0.0000
    65 N3A     -3.7640   2.9490   5.2400   N.ar      1 RES1   0.0000
    66 C18A    -3.3319   6.5940   4.7913   C.ar      1 RES1   0.0000
    67 H12A    -3.6656   7.4065   5.0979   H         1 RES1   0.0000
    68 S1      -3.0541   3.9890   9.3916   S.3       2 RES2   0.0000
    69 S2      -2.9444   6.0338   9.4260   S.3       2 RES2   0.0000
    70 N4      -1.9206   4.4689  11.7818   N.ar      2 RES2   0.0000
    71 C19     -2.1218   3.5256  10.8600   C.ar      2 RES2   0.0000
    72 C20     -1.6650   2.2175  11.0211   C.ar      2 RES2   0.0000
    73 C21     -0.9464   1.9229  12.1707   C.ar      2 RES2   0.0000
    74 H13     -0.6140   1.0637  12.3022   H         2 RES2   0.0000
    75 C22     -0.7253   2.8932  13.1150   C.ar      2 RES2   0.0000
    76 H14     -0.2492   2.7061  13.8924   H         2 RES2   0.0000
    77 C23     -1.2277   4.1416  12.8790   C.ar      2 RES2   0.0000
    78 H15     -1.0781   4.8020  13.5165   H         2 RES2   0.0000
    79 C24     -1.9748   1.1339  10.0330   C.2       2 RES2   0.0000
    80 O1      -2.8583   1.2733   9.2041   O.2       2 RES2   0.0000
    81 O2      -1.2267   0.0912  10.1764   O.3       2 RES2   0.0000
    82 H16     -1.3950  -0.4489   9.5826   H         2 RES2   0.0000
    83 N5      -1.1770   5.3386   7.5253   N.ar      2 RES2   0.0000
    84 C25     -1.6666   6.3755   8.2064   C.ar      2 RES2   0.0000
    85 C26     -1.2260   7.6882   8.0060   C.ar      2 RES2   0.0000
    86 C27     -0.2136   7.8787   7.0796   C.ar      2 RES2   0.0000
    87 H17      0.1183   8.7332   6.9271   H         2 RES2   0.0000
    88 C28      0.3003   6.8091   6.3884   C.ar      2 RES2   0.0000
    89 H18      0.9836   6.9272   5.7666   H         2 RES2   0.0000
    90 C29     -0.2127   5.5771   6.6347   C.ar      2 RES2   0.0000
    91 H19      0.1286   4.8570   6.1546   H         2 RES2   0.0000
    92 C30     -1.7782   8.8548   8.7614   C.2       2 RES2   0.0000
    93 O3      -2.7318   8.6910   9.5116   O.co2     2 RES2   0.0000
    94 O4      -1.2222   9.9793   8.5119   O.co2     2 RES2  -1.0000
    95 O5      -4.4769  10.7567  10.2287   O.3       3 RES3   0.0000
    96 H20     -4.1919  11.5843   9.6484   H         3 RES3   0.0000
    97 H21     -3.8062  10.0296  10.0469   H         3 RES3   0.0000
@<TRIPOS>BOND
     1     1    22    1
     2     2     3   ar
     3     3     4   ar
     4     4     6   ar
     5     5     2   ar
     6     6     7    1
     7     8     9    1
     8    10    11    1
     9    12     5   ar
    10    13    12    1
    11    14    10   ar
    12    15    14    1
    13    16     5   ar
    14    17    16    1
    15    18     8   ar
    16    19    18    1
    17    20     4   ar
    18    21    20    1
    19    22     2   ar
    20    23     1    1
    21    24    25   ar
    22    25    28   ar
    23    26    27    1
    24    28    29    1
    25    30    26   ar
    26    31    30    1
    27    32     1    1
    28    33    25   ar
    29    34    33    1
    30    35    36   ar
    31    36    37   ar
    32    37    39   ar
    33    38    35   ar
    34    39    40    1
    35    41    42    1
    36    43    44    1
    37    45    38   ar
    38    46    45    1
    39    47    43   ar
    40    48    47    1
    41    49    38   ar
    42    50    49    1
    43    51    41   ar
    44    52    51    1
    45    53    37   ar
    46    54    53    1
    47    55     1    1
    48    56     1    1
    49    57    24   ar
    50    58    57   ar
    51    59    60    1
    52    61    58   ar
    53    62    61    1
    54    63    59   ar
    55    64    63    1
    56    65     1    1
    57    66    33   ar
    58    67    66    1
    59     3    23   ar
    60     6    12   ar
    61     8    22   ar
    62    10    20   ar
    63    14    23   ar
    64    16    18   ar
    65    24    32   ar
    66    26    32   ar
    67    28    30   ar
    68    35    55   ar
    69    36    56   ar
    70    39    45   ar
    71    41    55   ar
    72    43    53   ar
    73    47    56   ar
    74    49    51   ar
    75    57    65   ar
    76    58    66   ar
    77    59    65   ar
    78    61    63   ar
    79    68    69    1
    80    69    84    1
    81    70    71   ar
    82    71    68    1
    83    72    71   ar
    84    73    72   ar
    85    74    73    1
    86    75    73   ar
    87    76    75    1
    88    77    70   ar
    89    78    77    1
    90    79    72    1
    91    80    79    2
    92    81    79    1
    93    82    81    1
    94    83    84   ar
    95    84    85   ar
    96    85    86   ar
    97    86    87    1
    98    88    86   ar
    99    89    88    1
   100    90    83   ar
   101    91    90    1
   102    92    85    1
   103    93    92    2
   104    94    92    1
   105    75    77   ar
   106    88    90   ar
   107    95    96    1
   108    97    95    1
@<TRIPOS>SUBSTRUCTURE
     1 RES1        1 GROUP             0 ****  ****    0  
     2 RES2       68 GROUP             0 ****  ****    0  
     3 RES3       95 GROUP             0 ****  ****    0  
@<TRIPOS>CRYSIN
   26.9450   11.6895   20.7080   90.0000  123.2280   90.0000    15     1
