@<TRIPOS>MOLECULE
BAHYIS
    51    59     2     0     0
SMALL
USER_CHARGES
****
Generated from the CSD

@<TRIPOS>ATOM
     1 Fe1      2.0700   1.1217   2.8423   Fe        1 RES1   1.0000
     2 S1      -0.3382  -2.9123   2.3668   S.2       1 RES1   0.0000
     3 N1       1.1143  -0.5939   2.7592   N.2       1 RES1   0.0000
     4 C1       0.5405  -1.5504   2.5718   C.1       1 RES1   0.0000
     5 S2       0.1872   2.0220   1.8568   S.3       1 RES1   0.0000
     6 C2      -1.1999   2.0099   3.0529   C.3       1 RES1   0.0000
     7 C3      -0.8717   1.4005   4.4142   C.3       1 RES1   0.0000
     8 C4       0.3059   2.0672   5.1426   C.3       1 RES1   0.0000
     9 N2       1.5608   1.4402   4.7302   N.2       1 RES1   0.0000
    10 C5       2.4075   0.9994   5.6159   C.2       1 RES1   0.0000
    11 C6       3.5446   0.2997   5.0406   C.ar      1 RES1   0.0000
    12 N3       3.5250   0.3085   3.6926   N.ar      1 RES1   0.0000
    13 C7       4.4577  -0.3019   2.9654   C.ar      1 RES1   0.0000
    14 C8       4.2214  -0.0694   1.5176   C.2       1 RES1   0.0000
    15 N4       3.1793   0.6160   1.2737   N.2       1 RES1   0.0000
    16 C9       2.9220   1.1636  -0.0709   C.3       1 RES1   0.0000
    17 C10      3.2261   2.6424  -0.1308   C.3       1 RES1   0.0000
    18 C11      3.8653   3.2925   1.0819   C.3       1 RES1   0.0000
    19 S3       3.0309   3.1580   2.6816   S.3       1 RES1   0.0000
    20 C12      1.6120   4.3117   2.5253   C.3       1 RES1   0.0000
    21 C13      0.4746   3.7883   1.6639   C.3       1 RES1   0.0000
    22 C14      2.3188   1.1989   7.1124   C.3       1 RES1   0.0000
    23 C15      4.5781  -0.3669   5.7002   C.ar      1 RES1   0.0000
    24 C16      5.5346  -1.0270   4.9574   C.ar      1 RES1   0.0000
    25 C17      5.4710  -1.0082   3.5784   C.ar      1 RES1   0.0000
    26 C18      5.2891  -0.5135   0.5454   C.3       1 RES1   0.0000
    27 B1      10.3212   0.6986   2.3390   B         2 RES2  -1.0000
    28 C19      9.0774   1.7553   2.5397   C.ar      2 RES2   0.0000
    29 C20      9.1786   3.0523   2.0885   C.ar      2 RES2   0.0000
    30 C21      8.1916   3.9922   2.2282   C.ar      2 RES2   0.0000
    31 C22      7.0248   3.6792   2.8711   C.ar      2 RES2   0.0000
    32 C23      6.8731   2.4176   3.3489   C.ar      2 RES2   0.0000
    33 C24      7.8785   1.4523   3.1860   C.ar      2 RES2   0.0000
    34 C25     11.4152   0.8672   3.5307   C.ar      2 RES2   0.0000
    35 C26     11.3218   1.8402   4.5329   C.ar      2 RES2   0.0000
    36 C27     12.2547   1.9404   5.5804   C.ar      2 RES2   0.0000
    37 C28     13.3168   1.0799   5.6458   C.ar      2 RES2   0.0000
    38 C29     13.4656   0.1201   4.6581   C.ar      2 RES2   0.0000
    39 C30     12.5286   0.0320   3.6460   C.ar      2 RES2   0.0000
    40 C31     11.0224   1.0104   0.8835   C.ar      2 RES2   0.0000
    41 C32     10.2506   1.0347  -0.3037   C.ar      2 RES2   0.0000
    42 C33     10.7961   1.3642  -1.5276   C.ar      2 RES2   0.0000
    43 C34     12.1073   1.7487  -1.6240   C.ar      2 RES2   0.0000
    44 C35     12.9075   1.7663  -0.4933   C.ar      2 RES2   0.0000
    45 C36     12.3565   1.3796   0.7239   C.ar      2 RES2   0.0000
    46 C37      9.7236  -0.8154   2.4765   C.ar      2 RES2   0.0000
    47 C38      9.5113  -1.3862   3.7491   C.ar      2 RES2   0.0000
    48 C39      8.9120  -2.6038   3.9298   C.ar      2 RES2   0.0000
    49 C40      8.5170  -3.3674   2.8811   C.ar      2 RES2   0.0000
    50 C41      8.7243  -2.8738   1.5974   C.ar      2 RES2   0.0000
    51 C42      9.3149  -1.6154   1.4101   C.ar      2 RES2   0.0000
@<TRIPOS>BOND
     1     1     3    1
     2     2     4    2
     3     3     4    2
     4     5     1    1
     5     6     5    1
     6     7     6    1
     7     8     7    1
     8     9     1    1
     9    10     9    2
    10    11    10    1
    11    12     1    1
    12    13    12   ar
    13    14    13    1
    14    15     1    1
    15    16    15    1
    16    17    16    1
    17    18    17    1
    18    19     1    1
    19    20    19    1
    20    21     5    1
    21    22    10    1
    22    23    11   ar
    23    24    23   ar
    24    25    13   ar
    25    26    14    1
    26     8     9    1
    27    11    12   ar
    28    14    15    2
    29    18    19    1
    30    20    21    1
    31    24    25   ar
    32    27    28    1
    33    28    29   ar
    34    29    30   ar
    35    30    31   ar
    36    31    32   ar
    37    32    33   ar
    38    33    28   ar
    39    34    27    1
    40    35    34   ar
    41    36    35   ar
    42    37    36   ar
    43    38    37   ar
    44    39    34   ar
    45    40    27    1
    46    41    40   ar
    47    42    41   ar
    48    43    42   ar
    49    44    43   ar
    50    45    40   ar
    51    46    27    1
    52    47    46   ar
    53    48    47   ar
    54    49    48   ar
    55    50    49   ar
    56    51    46   ar
    57    38    39   ar
    58    44    45   ar
    59    50    51   ar
@<TRIPOS>SUBSTRUCTURE
     1 RES1        1 GROUP             0 ****  ****    0  
     2 RES2       27 GROUP             0 ****  ****    0  
@<TRIPOS>CRYSIN
   31.6400   11.0190   11.1550   90.0000   96.4000   90.0000    14     2
