@<TRIPOS>MOLECULE
BAKGUR01
    81    84     3     0     0
SMALL
USER_CHARGES
****
Generated from the CSD

@<TRIPOS>ATOM
     1 As1      7.5548   9.1524   7.3553   As        1 RES1  -1.0000
     2 F1       6.2734   8.1261   6.8402   F         1 RES1   0.0000
     3 F2       8.5510   7.7687   7.6007   F         1 RES1   0.0000
     4 F3       8.1203   9.2504   5.7432   F         1 RES1   0.0000
     5 F4       8.8440  10.1858   7.8913   F         1 RES1   0.0000
     6 F5       6.5760  10.5106   7.0836   F         1 RES1   0.0000
     7 F6       6.9935   9.0589   9.0053   F         1 RES1   0.0000
     8 Fe1     12.9180   9.1603   3.0002   Fe        2 RES2   2.0000
     9 N1      12.3299   9.6914   7.0933   N.pl3     2 RES2   0.0000
    10 N2      12.5934   9.4296   4.9731   N.2       2 RES2   0.0000
    11 N3      11.4481   7.8238   3.2330   N.2       2 RES2   0.0000
    12 N4      16.1292  11.8361   2.9884   N.pl3     2 RES2   0.0000
    13 N5      14.4762  10.3709   2.9545   N.2       2 RES2   0.0000
    14 N6      14.3670   7.8258   3.5697   N.2       2 RES2   0.0000
    15 N7      10.0150  12.0169   1.9713   N.pl3     2 RES2   0.0000
    16 N8      11.5621  10.5246   2.4581   N.2       2 RES2   0.0000
    17 N9      13.0262   8.9823   1.0450   N.2       2 RES2   0.0000
    18 C1      11.4478   8.7158   6.7761   C.2       2 RES2   0.0000
    19 C2      12.9934  10.1069   5.9841   C.2       2 RES2   0.0000
    20 C3      14.0409  11.1820   6.0035   C.3       2 RES2   0.0000
    21 C4      11.6309   8.5445   5.4380   C.2       2 RES2   0.0000
    22 C5      11.0121   7.6640   4.4124   C.2       2 RES2   0.0000
    23 C6      10.8390   7.0085   2.2111   C.3       2 RES2   0.0000
    24 C7       9.5920   7.6906   1.5971   C.3       2 RES2   0.0000
    25 C8       8.4035   7.7771   2.5174   C.3       2 RES2   0.0000
    26 C9      16.6588  10.6750   3.4740   C.2       2 RES2   0.0000
    27 C10     14.8178  11.6458   2.7329   C.2       2 RES2   0.0000
    28 C11     13.9374  12.7530   2.2147   C.3       2 RES2   0.0000
    29 C12     15.6456   9.7567   3.4244   C.2       2 RES2   0.0000
    30 C13     15.5041   8.3624   3.7985   C.2       2 RES2   0.0000
    31 C14     14.1706   6.4176   3.9995   C.3       2 RES2   0.0000
    32 C15     14.2053   5.4369   2.8976   C.3       2 RES2   0.0000
    33 C16     15.5248   5.2749   2.1251   C.3       2 RES2   0.0000
    34 C17     10.4480  11.5155   0.7895   C.2       2 RES2   0.0000
    35 C18     10.7180  11.4334   3.0102   C.2       2 RES2   0.0000
    36 C19     10.4908  11.7764   4.4391   C.3       2 RES2   0.0000
    37 C20     11.4207  10.6043   1.0825   C.2       2 RES2   0.0000
    38 C21     12.2346   9.7172   0.3294   C.2       2 RES2   0.0000
    39 C22     13.8966   8.0400   0.2071   C.3       2 RES2   0.0000
    40 C23     15.3272   8.5445   0.0908   C.3       2 RES2   0.0000
    41 C24     15.4507   9.8791  -0.6502   C.3       2 RES2   0.0000
    42 H1      12.4626  10.0402   7.9664   H         2 RES2   0.0000
    43 H2      16.6046  12.6505   2.8710   H         2 RES2   0.0000
    44 H3       9.3262  12.6629   2.0791   H         2 RES2   0.0000
    45 H4      10.8485   8.2583   7.3536   H         2 RES2   0.0000
    46 H5      13.6142  12.0165   5.8485   H         2 RES2   0.0000
    47 H6      14.6865  11.0249   5.3242   H         2 RES2   0.0000
    48 H7      14.4692  11.1972   6.8511   H         2 RES2   0.0000
    49 H8      10.3425   7.0252   4.6243   H         2 RES2   0.0000
    50 H9      11.4678   6.8476   1.5172   H         2 RES2   0.0000
    51 H10     10.5777   6.1825   2.6010   H         2 RES2   0.0000
    52 H11      9.8353   8.5691   1.3295   H         2 RES2   0.0000
    53 H12      9.3288   7.1898   0.8343   H         2 RES2   0.0000
    54 H13      7.8615   7.0019   2.4254   H         2 RES2   0.0000
    55 H14      7.8954   8.5464   2.2922   H         2 RES2   0.0000
    56 H15      8.7044   7.8473   3.4159   H         2 RES2   0.0000
    57 H16     17.5502  10.5265   3.7646   H         2 RES2   0.0000
    58 H17     13.5514  13.2224   2.9449   H         2 RES2   0.0000
    59 H18     13.2485  12.3900   1.6710   H         2 RES2   0.0000
    60 H19     14.4660  13.3509   1.6989   H         2 RES2   0.0000
    61 H20     16.2158   7.8713   4.1921   H         2 RES2   0.0000
    62 H21     14.8714   6.1972   4.6025   H         2 RES2   0.0000
    63 H22     13.3351   6.3530   4.4475   H         2 RES2   0.0000
    64 H23     13.9897   4.5908   3.2730   H         2 RES2   0.0000
    65 H24     13.5308   5.6874   2.2764   H         2 RES2   0.0000
    66 H25     15.5306   5.8756   1.3901   H         2 RES2   0.0000
    67 H26     15.5985   4.3833   1.8066   H         2 RES2   0.0000
    68 H27     16.2579   5.4685   2.6978   H         2 RES2   0.0000
    69 H28     10.1465  11.7652  -0.0763   H         2 RES2   0.0000
    70 H29     11.0661  12.4924   4.6812   H         2 RES2   0.0000
    71 H30     10.6796  11.0204   4.9828   H         2 RES2   0.0000
    72 H31      9.5875  12.0396   4.5662   H         2 RES2   0.0000
    73 H32     12.2015   9.6658  -0.6188   H         2 RES2   0.0000
    74 H33     13.9015   7.1864   0.6248   H         2 RES2   0.0000
    75 H34     13.5198   7.9647  -0.6611   H         2 RES2   0.0000
    76 H35     15.6750   8.6738   0.9639   H         2 RES2   0.0000
    77 H36     15.8366   7.8803  -0.3596   H         2 RES2   0.0000
    78 H37     15.5710   9.6935  -1.5741   H         2 RES2   0.0000
    79 H38     16.1991  10.3629  -0.3245   H         2 RES2   0.0000
    80 H39     14.6627  10.3958  -0.5316   H         2 RES2   0.0000
    81 Cl1     13.1974  10.9278   9.8648   Cl        3 RES3  -1.0000
@<TRIPOS>BOND
     1     1     2    1
     2     3     1    1
     3     4     1    1
     4     5     1    1
     5     6     1    1
     6     7     1    1
     7     8    10    1
     8     9    18    1
     9    10    19    2
    10    11     8    1
    11    12    26    1
    12    13     8    1
    13    14     8    1
    14    15    34    1
    15    16     8    1
    16    17     8    1
    17    18    21    2
    18    19     9    1
    19    20    19    1
    20    21    10    1
    21    22    11    2
    22    23    11    1
    23    24    23    1
    24    25    24    1
    25    26    29    2
    26    27    12    1
    27    28    27    1
    28    29    13    1
    29    30    14    2
    30    31    14    1
    31    32    31    1
    32    33    32    1
    33    34    37    2
    34    35    15    1
    35    36    35    1
    36    37    16    1
    37    38    17    2
    38    39    17    1
    39    40    39    1
    40    41    40    1
    41    42     9    1
    42    43    12    1
    43    44    15    1
    44    45    18    1
    45    46    20    1
    46    47    20    1
    47    48    20    1
    48    49    22    1
    49    50    23    1
    50    51    23    1
    51    52    24    1
    52    53    24    1
    53    54    25    1
    54    55    25    1
    55    56    25    1
    56    57    26    1
    57    58    28    1
    58    59    28    1
    59    60    28    1
    60    61    30    1
    61    62    31    1
    62    63    31    1
    63    64    32    1
    64    65    32    1
    65    66    33    1
    66    67    33    1
    67    68    33    1
    68    69    34    1
    69    70    36    1
    70    71    36    1
    71    72    36    1
    72    73    38    1
    73    74    39    1
    74    75    39    1
    75    76    40    1
    76    77    40    1
    77    78    41    1
    78    79    41    1
    79    80    41    1
    80    13    27    2
    81    16    35    2
    82    21    22    1
    83    29    30    1
    84    37    38    1
@<TRIPOS>SUBSTRUCTURE
     1 RES1        1 GROUP             0 ****  ****    0  
     2 RES2        8 GROUP             0 ****  ****    0  
     3 RES3       81 GROUP             0 ****  ****    0  
@<TRIPOS>CRYSIN
   10.3690   12.8970   12.9410   85.3800   69.3400   76.5900     2     1
