@<TRIPOS>MOLECULE
BAKGUR
    81    84     3     0     0
SMALL
USER_CHARGES
****
Generated from the CSD

@<TRIPOS>ATOM
     1 As1      6.8405   9.3444   7.3524   As        1 RES1  -1.0000
     2 F1       5.5493   8.4686   6.7206   F         1 RES1   0.0000
     3 F2       7.8122   7.9831   7.5113   F         1 RES1   0.0000
     4 F3       7.4827   9.5805   5.8572   F         1 RES1   0.0000
     5 F4       8.0941  10.2263   8.0434   F         1 RES1   0.0000
     6 F5       6.0119  10.7394   7.1862   F         1 RES1   0.0000
     7 F6       6.2318   9.0659   8.8717   F         1 RES1   0.0000
     8 Fe1     12.1031   9.4109   3.1677   Fe        2 RES2   2.0000
     9 N1      11.7669   9.7680   7.4900   N.pl3     2 RES2   0.0000
    10 N2      11.8601   9.6155   5.3225   N.2       2 RES2   0.0000
    11 N3      10.4862   8.0141   3.6157   N.2       2 RES2   0.0000
    12 N4      15.6347  11.9071   2.9995   N.pl3     2 RES2   0.0000
    13 N5      13.8858  10.5839   3.0522   N.2       2 RES2   0.0000
    14 N6      13.7306   7.9533   3.6860   N.2       2 RES2   0.0000
    15 N7       9.0939  12.3784   2.1624   N.pl3     2 RES2   0.0000
    16 N8      10.6530  10.9244   2.6293   N.2       2 RES2   0.0000
    17 N9      11.9743   9.2087   0.9475   N.2       2 RES2   0.0000
    18 C1      10.9106   8.8069   7.1273   C.2       2 RES2   0.0000
    19 C2      12.3480  10.2306   6.3705   C.2       2 RES2   0.0000
    20 C3      13.3674  11.3467   6.3517   C.3       2 RES2   0.0000
    21 C4      10.9705   8.7018   5.7907   C.2       2 RES2   0.0000
    22 C5      10.2375   7.8988   4.8406   C.2       2 RES2   0.0000
    23 C6       9.6636   7.2595   2.6795   C.3       2 RES2   0.0000
    24 C7       8.2565   8.0521   2.4799   C.3       2 RES2   0.0000
    25 C8       7.2802   7.3791   1.6165   C.3       2 RES2   0.0000
    26 C9      16.0849  10.7252   3.4551   C.2       2 RES2   0.0000
    27 C10     14.3197  11.8160   2.7548   C.2       2 RES2   0.0000
    28 C11     13.5050  12.9216   2.2628   C.3       2 RES2   0.0000
    29 C12     14.9992   9.8925   3.4739   C.2       2 RES2   0.0000
    30 C13     14.8221   8.4930   3.8705   C.2       2 RES2   0.0000
    31 C14     13.5876   6.5578   4.1554   C.3       2 RES2   0.0000
    32 C15     13.3429   5.5992   3.0384   C.3       2 RES2   0.0000
    33 C16     14.4748   5.4636   2.0808   C.3       2 RES2   0.0000
    34 C17      9.4350  11.8328   0.9877   C.2       2 RES2   0.0000
    35 C18      9.8191  11.8377   3.1438   C.2       2 RES2   0.0000
    36 C19      9.6743  12.1885   4.5708   C.3       2 RES2   0.0000
    37 C20     10.3958  10.9184   1.2663   C.2       2 RES2   0.0000
    38 C21     11.1368  10.0091   0.4330   C.2       2 RES2   0.0000
    39 C22     12.7115   8.3208   0.0628   C.3       2 RES2   0.0000
    40 C23     14.1595   8.6740   0.0013   C.3       2 RES2   0.0000
    41 C24     14.4857  10.0170  -0.5886   C.3       2 RES2   0.0000
    42 H1      11.9380  10.0888   8.3672   H         2 RES2   0.0000
    43 H2      16.1582  12.6885   2.8690   H         2 RES2   0.0000
    44 H3       8.4424  13.0590   2.2929   H         2 RES2   0.0000
    45 H4      10.3687   8.2826   7.7058   H         2 RES2   0.0000
    46 H5      12.9154  12.1752   6.2450   H         2 RES2   0.0000
    47 H6      13.9757  11.2222   5.6325   H         2 RES2   0.0000
    48 H7      13.8442  11.3483   7.1737   H         2 RES2   0.0000
    49 H8       9.5824   7.2769   5.1343   H         2 RES2   0.0000
    50 H9      10.0971   7.1663   1.8399   H         2 RES2   0.0000
    51 H10      9.4807   6.3988   3.0384   H         2 RES2   0.0000
    52 H11      7.8455   8.1427   3.3321   H         2 RES2   0.0000
    53 H12      8.4632   8.9128   2.1360   H         2 RES2   0.0000
    54 H13      7.4352   7.6798   0.7279   H         2 RES2   0.0000
    55 H14      6.3887   7.5872   1.8700   H         2 RES2   0.0000
    56 H15      7.4110   6.4398   1.6591   H         2 RES2   0.0000
    57 H16     16.9780  10.5099   3.6998   H         2 RES2   0.0000
    58 H17     13.1643  13.4200   2.9970   H         2 RES2   0.0000
    59 H18     12.7829  12.5766   1.7520   H         2 RES2   0.0000
    60 H19     14.0380  13.4867   1.7169   H         2 RES2   0.0000
    61 H20     15.5453   8.0227   4.2658   H         2 RES2   0.0000
    62 H21     14.3703   6.2988   4.6260   H         2 RES2   0.0000
    63 H22     12.8398   6.5230   4.7402   H         2 RES2   0.0000
    64 H23     13.1500   4.7372   3.3898   H         2 RES2   0.0000
    65 H24     12.5947   5.9114   2.5427   H         2 RES2   0.0000
    66 H25     14.3996   6.1147   1.3931   H         2 RES2   0.0000
    67 H26     14.4766   4.5940   1.6955   H         2 RES2   0.0000
    68 H27     15.2856   5.6000   2.5590   H         2 RES2   0.0000
    69 H28      9.0854  12.0433   0.1293   H         2 RES2   0.0000
    70 H29     10.2744  12.8960   4.7741   H         2 RES2   0.0000
    71 H30      9.8811  11.4327   5.1079   H         2 RES2   0.0000
    72 H31      8.7841  12.4688   4.7465   H         2 RES2   0.0000
    73 H32     11.0016  10.0147  -0.5070   H         2 RES2   0.0000
    74 H33     12.6082   7.4153   0.3338   H         2 RES2   0.0000
    75 H34     12.3598   8.4309  -0.8120   H         2 RES2   0.0000
    76 H35     14.4835   8.6771   0.8948   H         2 RES2   0.0000
    77 H36     14.6256   8.0175  -0.5020   H         2 RES2   0.0000
    78 H37     14.6192   9.9209  -1.5236   H         2 RES2   0.0000
    79 H38     15.2582  10.4086  -0.1970   H         2 RES2   0.0000
    80 H39     13.7340  10.5743  -0.4305   H         2 RES2   0.0000
    81 Cl1     12.3577  11.0355  10.2785   Cl        3 RES3  -1.0000
@<TRIPOS>BOND
     1     1     2    1
     2     3     1    1
     3     4     1    1
     4     5     1    1
     5     6     1    1
     6     7     1    1
     7     8    10    1
     8     9    18    1
     9    10    19    2
    10    11     8    1
    11    12    26    1
    12    13     8    1
    13    14     8    1
    14    15    34    1
    15    16     8    1
    16    17     8    1
    17    18    21    2
    18    19     9    1
    19    20    19    1
    20    21    10    1
    21    22    11    2
    22    23    11    1
    23    24    23    1
    24    25    24    1
    25    26    29    2
    26    27    12    1
    27    28    27    1
    28    29    13    1
    29    30    14    2
    30    31    14    1
    31    32    31    1
    32    33    32    1
    33    34    37    2
    34    35    15    1
    35    36    35    1
    36    37    16    1
    37    38    17    2
    38    39    17    1
    39    40    39    1
    40    41    40    1
    41    42     9    1
    42    43    12    1
    43    44    15    1
    44    45    18    1
    45    46    20    1
    46    47    20    1
    47    48    20    1
    48    49    22    1
    49    50    23    1
    50    51    23    1
    51    52    24    1
    52    53    24    1
    53    54    25    1
    54    55    25    1
    55    56    25    1
    56    57    26    1
    57    58    28    1
    58    59    28    1
    59    60    28    1
    60    61    30    1
    61    62    31    1
    62    63    31    1
    63    64    32    1
    64    65    32    1
    65    66    33    1
    66    67    33    1
    67    68    33    1
    68    69    34    1
    69    70    36    1
    70    71    36    1
    71    72    36    1
    72    73    38    1
    73    74    39    1
    74    75    39    1
    75    76    40    1
    76    77    40    1
    77    78    41    1
    78    79    41    1
    79    80    41    1
    80    13    27    2
    81    16    35    2
    82    21    22    1
    83    29    30    1
    84    37    38    1
@<TRIPOS>SUBSTRUCTURE
     1 RES1        1 GROUP             0 ****  ****    0  
     2 RES2        8 GROUP             0 ****  ****    0  
     3 RES3       81 GROUP             0 ****  ****    0  
@<TRIPOS>CRYSIN
   10.5700   12.9170   13.1550   86.7700   72.5600   79.8000     2     1
