@<TRIPOS>MOLECULE
BALTIS
   100   107     1     0     0
SMALL
NO_CHARGES
****
Generated from the CSD

@<TRIPOS>ATOM
     1 Fe1      1.3489   8.5884   3.5180   Fe        1 RES1   0.0000
     2 P1       0.0021   7.4125   2.1870   P.3       1 RES1   0.0000
     3 P2       1.6270   9.9825   1.7103   P.3       1 RES1   0.0000
     4 O1       1.9865   6.8775   6.8324   O.3       1 RES1   0.0000
     5 O2       0.9058   5.4046   5.5265   O.2       1 RES1   0.0000
     6 O3      -0.7644   7.2435   7.5767   O.3       1 RES1   0.0000
     7 O4      -0.6810   9.4605   7.9922   O.2       1 RES1   0.0000
     8 O5      -0.2167   9.7239   3.7123   O.3       1 RES1   0.0000
     9 O6       3.5151   6.6716   3.5068   O.2       1 RES1   0.0000
    10 N1       2.1194   9.9986   4.7503   N.2       1 RES1   0.0000
    11 C1      -0.1411   8.6639   5.8248   C.2       1 RES1   0.0000
    12 C2       0.6439   7.7729   5.1734   C.2       1 RES1   0.0000
    13 C3       1.1352   6.5457   5.8416   C.2       1 RES1   0.0000
    14 C4       2.5828   5.7629   7.5326   C.3       1 RES1   0.0000
    15 C5      -0.5631   8.5327   7.2221   C.2       1 RES1   0.0000
    16 C6      -0.8481   6.9878   8.9922   C.3       1 RES1   0.0000
    17 C7      -0.2107  10.0131   5.0927   C.3       1 RES1   0.0000
    18 C8       1.1766  10.5542   5.4017   C.2       1 RES1   0.0000
    19 C9       3.5420  10.2917   5.0760   C.3       1 RES1   0.0000
    20 C10      3.7042  11.6524   5.7259   C.3       1 RES1   0.0000
    21 C11      4.4082  10.2295   3.8173   C.3       1 RES1   0.0000
    22 C12      4.0162   9.2073   6.0592   C.3       1 RES1   0.0000
    23 C13     -1.3594  10.9110   5.4109   C.ar      1 RES1   0.0000
    24 C14     -2.6404  10.3792   5.4550   C.ar      1 RES1   0.0000
    25 C15     -3.7465  11.1666   5.6163   C.ar      1 RES1   0.0000
    26 C16     -3.6171  12.5388   5.7503   C.ar      1 RES1   0.0000
    27 C17     -2.3513  13.0914   5.7000   C.ar      1 RES1   0.0000
    28 C18     -1.2515  12.2809   5.5554   C.ar      1 RES1   0.0000
    29 C19      2.6837   7.4713   3.4611   C.1       1 RES1   0.0000
    30 C20     -1.6964   7.1443   2.8082   C.ar      1 RES1   0.0000
    31 C21     -2.7220   8.0054   2.4961   C.ar      1 RES1   0.0000
    32 C22     -4.0207   7.7982   2.9345   C.ar      1 RES1   0.0000
    33 C23     -4.2956   6.6977   3.6970   C.ar      1 RES1   0.0000
    34 C24     -3.3081   5.8481   4.0699   C.ar      1 RES1   0.0000
    35 C25     -1.9996   6.0714   3.6148   C.ar      1 RES1   0.0000
    36 C26      0.4886   5.7583   1.5601   C.ar      1 RES1   0.0000
    37 C27      0.4098   5.4198   0.2055   C.ar      1 RES1   0.0000
    38 C28      0.8228   4.1650  -0.2192   C.ar      1 RES1   0.0000
    39 C29      1.2567   3.2303   0.6712   C.ar      1 RES1   0.0000
    40 C30      1.3096   3.5480   2.0106   C.ar      1 RES1   0.0000
    41 C31      0.9563   4.8051   2.4627   C.ar      1 RES1   0.0000
    42 C32     -0.2424   8.3715   0.6438   C.3       1 RES1   0.0000
    43 C33      0.0219   9.8519   0.8752   C.3       1 RES1   0.0000
    44 C34      1.8258  11.7928   1.9787   C.ar      1 RES1   0.0000
    45 C35      0.8349  12.4767   2.6681   C.ar      1 RES1   0.0000
    46 C36      0.9903  13.8189   2.9771   C.ar      1 RES1   0.0000
    47 C37      2.1473  14.4843   2.6012   C.ar      1 RES1   0.0000
    48 C38      3.1232  13.8189   1.9102   C.ar      1 RES1   0.0000
    49 C39      2.9780  12.4859   1.5981   C.ar      1 RES1   0.0000
    50 C40      2.7491   9.5941   0.2998   C.ar      1 RES1   0.0000
    51 C41      2.7145  10.3538  -0.8569   C.ar      1 RES1   0.0000
    52 C42      3.4694  10.0085  -1.9467   C.ar      1 RES1   0.0000
    53 C43      4.2543   8.8734  -1.9132   C.ar      1 RES1   0.0000
    54 C44      4.2906   8.1136  -0.7717   C.ar      1 RES1   0.0000
    55 C45      3.5392   8.4820   0.3196   C.ar      1 RES1   0.0000
    56 H1       3.2017   6.0898   8.1886   H         1 RES1   0.0000
    57 H2       3.0460   5.2011   6.9070   H         1 RES1   0.0000
    58 H3       1.8936   5.2541   7.9679   H         1 RES1   0.0000
    59 H4       0.0271   7.0453   9.3803   H         1 RES1   0.0000
    60 H5      -1.2057   6.1082   9.1383   H         1 RES1   0.0000
    61 H6      -1.4242   7.6393   9.4016   H         1 RES1   0.0000
    62 H7       1.3249  11.2357   6.0166   H         1 RES1   0.0000
    63 H8       4.6377  11.8550   5.8203   H         1 RES1   0.0000
    64 H9       3.2891  11.6455   6.5935   H         1 RES1   0.0000
    65 H10      3.2853  12.3224   5.1795   H         1 RES1   0.0000
    66 H11      5.3357  10.2571   4.0638   H         1 RES1   0.0000
    67 H12      4.2040  10.9778   3.2511   H         1 RES1   0.0000
    68 H13      4.2283   9.4122   3.3454   H         1 RES1   0.0000
    69 H14      4.9106   9.4030   6.3454   H         1 RES1   0.0000
    70 H15      4.0000   8.3508   5.6224   H         1 RES1   0.0000
    71 H16      3.4335   9.1888   6.8203   H         1 RES1   0.0000
    72 H17     -2.7495   9.4582   5.3713   H         1 RES1   0.0000
    73 H18     -4.5916  10.7798   5.6376   H         1 RES1   0.0000
    74 H19     -4.3651  13.0776   5.8720   H         1 RES1   0.0000
    75 H20     -2.2430  14.0123   5.7640   H         1 RES1   0.0000
    76 H21     -0.4057  12.6677   5.5539   H         1 RES1   0.0000
    77 H22     -2.5385   8.7514   1.9726   H         1 RES1   0.0000
    78 H23     -4.6938   8.3991   2.7123   H         1 RES1   0.0000
    79 H24     -5.1708   6.5296   3.9634   H         1 RES1   0.0000
    80 H25     -3.4951   5.1251   4.6224   H         1 RES1   0.0000
    81 H26     -1.3232   5.4843   3.8629   H         1 RES1   0.0000
    82 H27      0.0817   6.0369  -0.4094   H         1 RES1   0.0000
    83 H28      0.8009   3.9578  -1.1248   H         1 RES1   0.0000
    84 H29      1.5155   2.3876   0.3775   H         1 RES1   0.0000
    85 H30      1.5880   2.9056   2.6225   H         1 RES1   0.0000
    86 H31      1.0289   5.0146   3.3668   H         1 RES1   0.0000
    87 H32      0.3569   8.0399  -0.0411   H         1 RES1   0.0000
    88 H33     -1.1529   8.2518   0.3303   H         1 RES1   0.0000
    89 H34     -0.6768  10.2364   1.4262   H         1 RES1   0.0000
    90 H35      0.0437  10.3262   0.0289   H         1 RES1   0.0000
    91 H36      0.0607  12.0323   2.9254   H         1 RES1   0.0000
    92 H37      0.3204  14.2725   3.4352   H         1 RES1   0.0000
    93 H38      2.2601  15.3823   2.8173   H         1 RES1   0.0000
    94 H39      3.8925  14.2725   1.6484   H         1 RES1   0.0000
    95 H40      3.6510  12.0438   1.1309   H         1 RES1   0.0000
    96 H41      2.1715  11.1067  -0.8950   H         1 RES1   0.0000
    97 H42      3.4516  10.5403  -2.7092   H         1 RES1   0.0000
    98 H43      4.7546   8.6271  -2.6575   H         1 RES1   0.0000
    99 H44      4.8221   7.3515  -0.7351   H         1 RES1   0.0000
   100 H45      3.5711   7.9617   1.0883   H         1 RES1   0.0000
@<TRIPOS>BOND
     1     1     2    1
     2     2    30    1
     3     3     1    1
     4     4    13    1
     5     5    13    2
     6     6    15    1
     7     7    15    2
     8     8     1    1
     9     9    29    3
    10    10     1    1
    11    11    12    2
    12    12     1    1
    13    13    12    1
    14    14     4    1
    15    15    11    1
    16    16     6    1
    17    17     8    1
    18    18    10    2
    19    19    10    1
    20    20    19    1
    21    21    19    1
    22    22    19    1
    23    23    17    1
    24    24    23   ar
    25    25    24   ar
    26    26    25   ar
    27    27    26   ar
    28    28    23   ar
    29    29     1    1
    30    30    31   ar
    31    31    32   ar
    32    32    33   ar
    33    33    34   ar
    34    34    35   ar
    35    35    30   ar
    36    36     2    1
    37    37    36   ar
    38    38    37   ar
    39    39    38   ar
    40    40    39   ar
    41    41    36   ar
    42    42     2    1
    43    43     3    1
    44    44     3    1
    45    45    44   ar
    46    46    45   ar
    47    47    46   ar
    48    48    47   ar
    49    49    44   ar
    50    50     3    1
    51    51    50   ar
    52    52    51   ar
    53    53    52   ar
    54    54    53   ar
    55    55    50   ar
    56    56    14    1
    57    57    14    1
    58    58    14    1
    59    59    16    1
    60    60    16    1
    61    61    16    1
    62    62    18    1
    63    63    20    1
    64    64    20    1
    65    65    20    1
    66    66    21    1
    67    67    21    1
    68    68    21    1
    69    69    22    1
    70    70    22    1
    71    71    22    1
    72    72    24    1
    73    73    25    1
    74    74    26    1
    75    75    27    1
    76    76    28    1
    77    77    31    1
    78    78    32    1
    79    79    33    1
    80    80    34    1
    81    81    35    1
    82    82    37    1
    83    83    38    1
    84    84    39    1
    85    85    40    1
    86    86    41    1
    87    87    42    1
    88    88    42    1
    89    89    43    1
    90    90    43    1
    91    91    45    1
    92    92    46    1
    93    93    47    1
    94    94    48    1
    95    95    49    1
    96    96    51    1
    97    97    52    1
    98    98    53    1
    99    99    54    1
   100   100    55    1
   101    11    17    1
   102    17    18    1
   103    27    28   ar
   104    40    41   ar
   105    42    43    1
   106    48    49   ar
   107    54    55   ar
@<TRIPOS>SUBSTRUCTURE
     1 RES1        1 GROUP             0 ****  ****    0  
@<TRIPOS>CRYSIN
   11.5238   23.0239   18.7570   90.0000  125.7620   90.0000    14     1
