@<TRIPOS>MOLECULE
BAMNOU
    97   108     3     0     0
SMALL
NO_CHARGES
****
Generated from the CSD

@<TRIPOS>ATOM
     1 Fe1      6.3992   3.5487   2.6338   Fe        1 RES1   0.0000
     2 O1       4.6507   3.5324   3.6819   O.3       1 RES1   0.0000
     3 O2       7.3947   2.4499   3.9977   O.3       1 RES1   0.0000
     4 N1       5.4418   2.1473   1.3429   N.2       1 RES1   0.0000
     5 N2       7.9238   3.1081   1.0805   N.ar      1 RES1   0.0000
     6 N3       7.4496   5.2199   3.4342   N.2       1 RES1   0.0000
     7 N4       5.7600   5.2510   1.3711   N.ar      1 RES1   0.0000
     8 C1       3.7063   2.6712   3.7377   C.ar      1 RES1   0.0000
     9 C2       2.7499   2.7411   4.8458   C.ar      1 RES1   0.0000
    10 C3       2.8907   3.7282   5.8414   C.ar      1 RES1   0.0000
    11 C4       2.0228   3.7795   6.9076   C.ar      1 RES1   0.0000
    12 C5       0.9743   2.8542   6.9984   C.ar      1 RES1   0.0000
    13 C6       0.8141   1.8831   6.0525   C.ar      1 RES1   0.0000
    14 C7       1.7020   1.7942   4.9536   C.ar      1 RES1   0.0000
    15 C8       1.5697   0.7698   3.9685   C.ar      1 RES1   0.0000
    16 C9       2.4489   0.7019   2.9368   C.ar      1 RES1   0.0000
    17 C10      3.5304   1.6295   2.7792   C.ar      1 RES1   0.0000
    18 C11      4.3897   1.4350   1.6724   C.2       1 RES1   0.0000
    19 C12      6.1283   1.8431   0.1427   C.ar      1 RES1   0.0000
    20 C13      5.6148   1.1236  -0.9160   C.ar      1 RES1   0.0000
    21 C14      6.3827   0.8897  -2.0672   C.ar      1 RES1   0.0000
    22 C15      7.6428   1.3783  -2.1924   C.ar      1 RES1   0.0000
    23 C16      8.2165   2.1278  -1.1408   C.ar      1 RES1   0.0000
    24 C17      9.5287   2.6588  -1.1736   C.ar      1 RES1   0.0000
    25 C18     10.0137   3.3575  -0.0995   C.ar      1 RES1   0.0000
    26 C19      9.1631   3.5663   1.0073   C.ar      1 RES1   0.0000
    27 C20      7.4445   2.3672   0.0286   C.ar      1 RES1   0.0000
    28 C21      8.4248   2.6951   4.7195   C.ar      1 RES1   0.0000
    29 C22      9.0245   1.5883   5.4719   C.ar      1 RES1   0.0000
    30 C23      8.4454   0.3079   5.4251   C.ar      1 RES1   0.0000
    31 C24      9.0012  -0.7517   6.0937   C.ar      1 RES1   0.0000
    32 C25     10.1779  -0.5596   6.8325   C.ar      1 RES1   0.0000
    33 C26     10.7563   0.6854   6.9030   C.ar      1 RES1   0.0000
    34 C27     10.1996   1.7959   6.2318   C.ar      1 RES1   0.0000
    35 C28     10.7826   3.1013   6.2895   C.ar      1 RES1   0.0000
    36 C29     10.2071   4.1365   5.6355   C.ar      1 RES1   0.0000
    37 C30      9.0203   3.9846   4.8416   C.ar      1 RES1   0.0000
    38 C31      8.4909   5.1555   4.2279   C.2       1 RES1   0.0000
    39 C32      7.0255   6.4929   2.9731   C.ar      1 RES1   0.0000
    40 C33      7.3288   7.7117   3.5474   C.ar      1 RES1   0.0000
    41 C34      6.8424   8.9181   3.0029   C.ar      1 RES1   0.0000
    42 C35      6.0673   8.9159   1.8820   C.ar      1 RES1   0.0000
    43 C36      5.6867   7.6923   1.2839   C.ar      1 RES1   0.0000
    44 C37      4.8428   7.6022   0.1530   C.ar      1 RES1   0.0000
    45 C38      4.4894   6.3820  -0.3328   C.ar      1 RES1   0.0000
    46 C39      4.9605   5.2257   0.3218   C.ar      1 RES1   0.0000
    47 C40      6.1501   6.4787   1.8482   C.ar      1 RES1   0.0000
    48 H1       3.5928   4.3657   5.7755   H         1 RES1   0.0000
    49 H2       2.1346   4.4397   7.5816   H         1 RES1   0.0000
    50 H3       0.3676   2.9031   7.7284   H         1 RES1   0.0000
    51 H4       0.1015   1.2613   6.1329   H         1 RES1   0.0000
    52 H5       0.8674   0.1347   4.0351   H         1 RES1   0.0000
    53 H6       2.3422   0.0118   2.2928   H         1 RES1   0.0000
    54 H7       4.7293   0.7817  -0.8654   H         1 RES1   0.0000
    55 H8       6.0119   0.3775  -2.7757   H         1 RES1   0.0000
    56 H9       8.1394   1.2154  -2.9863   H         1 RES1   0.0000
    57 H10     10.0737   2.5300  -1.9413   H         1 RES1   0.0000
    58 H11     10.9028   3.6936  -0.1004   H         1 RES1   0.0000
    59 H12      9.5010   4.0652   1.7423   H         1 RES1   0.0000
    60 H13      7.6519   0.1747   4.9198   H         1 RES1   0.0000
    61 H14      8.5938  -1.6092   6.0575   H         1 RES1   0.0000
    62 H15     10.5775  -1.2924   7.2861   H         1 RES1   0.0000
    63 H16     11.5474   0.8009   7.4155   H         1 RES1   0.0000
    64 H17     11.5784   3.2421   6.7896   H         1 RES1   0.0000
    65 H18     10.6038   4.9978   5.7041   H         1 RES1   0.0000
    66 H19      7.8752   7.7381   4.3230   H         1 RES1   0.0000
    67 H20      7.0585   9.7425   3.4228   H         1 RES1   0.0000
    68 H21      5.7820   9.7381   1.5009   H         1 RES1   0.0000
    69 H22      4.5235   8.3924  -0.2666   H         1 RES1   0.0000
    70 H23      3.9350   6.3095  -1.1010   H         1 RES1   0.0000
    71 H24      4.6860   4.3790  -0.0116   H         1 RES1   0.0000
    72 H25      4.1824   0.7047   1.1030   H         1 RES1   0.0000
    73 H26      8.9380   5.9734   4.4118   H         1 RES1   0.0000
    74 C41     -0.2181   6.6529   8.8126   C.ar      2 RES2   0.0000
    75 C42     -0.6389   5.8624   7.7688   C.ar      2 RES2   0.0000
    76 C43     -0.1858   6.1215   6.4962   C.ar      2 RES2   0.0000
    77 C44      0.6755   7.1770   6.2598   C.ar      2 RES2   0.0000
    78 C45      1.0657   7.9882   7.3054   C.ar      2 RES2   0.0000
    79 C46      0.6243   7.7262   8.5824   C.ar      2 RES2   0.0000
    80 H27     -0.5068   6.4619   9.6967   H         2 RES2   0.0000
    81 H28     -1.2377   5.1414   7.9254   H         2 RES2   0.0000
    82 H29     -0.4664   5.5722   5.7736   H         2 RES2   0.0000
    83 H30      0.9963   7.3428   5.3815   H         2 RES2   0.0000
    84 H31      1.6389   8.7270   7.1450   H         2 RES2   0.0000
    85 H32      0.8981   8.2814   9.3046   H         2 RES2   0.0000
    86 C47     -1.1697   4.2399   2.8414   C.ar      3 RES3   0.0000
    87 C48     -1.6836   5.4331   2.3430   C.ar      3 RES3   0.0000
    88 C49     -1.1997   5.9364   1.1493   C.ar      3 RES3   0.0000
    89 C50     -0.2077   5.2643   0.4839   C.ar      3 RES3   0.0000
    90 C51      0.2877   4.0948   0.9859   C.ar      3 RES3   0.0000
    91 C52     -0.2001   3.5900   2.1510   C.ar      3 RES3   0.0000
    92 H33     -1.4967   3.8831   3.6604   H         3 RES3   0.0000
    93 H34     -2.3595   5.8994   2.8202   H         3 RES3   0.0000
    94 H35     -1.5546   6.7417   0.7920   H         3 RES3   0.0000
    95 H36      0.1364   5.6137  -0.3303   H         3 RES3   0.0000
    96 H37      0.9755   3.6329   0.5215   H         3 RES3   0.0000
    97 H38      0.1430   2.7683   2.4860   H         3 RES3   0.0000
@<TRIPOS>BOND
     1     1     2    1
     2     2     8    1
     3     3     1    1
     4     4     1    1
     5     5     1    1
     6     6     1    1
     7     7     1    1
     8     8     9   ar
     9     9    10   ar
    10    10    11   ar
    11    11    12   ar
    12    12    13   ar
    13    13    14   ar
    14    14     9   ar
    15    15    14   ar
    16    16    15   ar
    17    17     8   ar
    18    18     4    2
    19    19     4    1
    20    20    19   ar
    21    21    20   ar
    22    22    21   ar
    23    23    22   ar
    24    24    23   ar
    25    25    24   ar
    26    26     5   ar
    27    27     5   ar
    28    28     3    1
    29    29    28   ar
    30    30    29   ar
    31    31    30   ar
    32    32    31   ar
    33    33    32   ar
    34    34    29   ar
    35    35    34   ar
    36    36    35   ar
    37    37    28   ar
    38    38     6    2
    39    39     6    1
    40    40    39   ar
    41    41    40   ar
    42    42    41   ar
    43    43    42   ar
    44    44    43   ar
    45    45    44   ar
    46    46     7   ar
    47    47     7   ar
    48    48    10    1
    49    49    11    1
    50    50    12    1
    51    51    13    1
    52    52    15    1
    53    53    16    1
    54    54    20    1
    55    55    21    1
    56    56    22    1
    57    57    24    1
    58    58    25    1
    59    59    26    1
    60    60    30    1
    61    61    31    1
    62    62    32    1
    63    63    33    1
    64    64    35    1
    65    65    36    1
    66    66    40    1
    67    67    41    1
    68    68    42    1
    69    69    44    1
    70    70    45    1
    71    71    46    1
    72    72    18    1
    73    73    38    1
    74    16    17   ar
    75    17    18    1
    76    19    27   ar
    77    23    27   ar
    78    25    26   ar
    79    33    34   ar
    80    36    37   ar
    81    37    38    1
    82    39    47   ar
    83    43    47   ar
    84    45    46   ar
    85    74    75   ar
    86    75    76   ar
    87    76    77   ar
    88    77    78   ar
    89    78    79   ar
    90    79    74   ar
    91    80    74    1
    92    81    75    1
    93    82    76    1
    94    83    77    1
    95    84    78    1
    96    85    79    1
    97    86    87   ar
    98    87    88   ar
    99    88    89   ar
   100    89    90   ar
   101    90    91   ar
   102    91    86   ar
   103    92    86    1
   104    93    87    1
   105    94    88    1
   106    95    89    1
   107    96    90    1
   108    97    91    1
@<TRIPOS>SUBSTRUCTURE
     1 RES1        1 GROUP             0 ****  ****    0  
     2 RES2       74 GROUP             0 ****  ****    0  
     3 RES3       86 GROUP             0 ****  ****    0  
@<TRIPOS>CRYSIN
   13.7610   14.8040   19.5340   90.0000   98.5650   90.0000    14     1
