@<TRIPOS>MOLECULE
BAMVUK
    88    96     2     0     0
SMALL
USER_CHARGES
****
Generated from the CSD

@<TRIPOS>ATOM
     1 Fe1      8.2229   9.6876   3.6726   Fe        1 RES1   2.0000
     2 O1      10.0661  11.9339   3.6937   O.3       1 RES1   0.0000
     3 O2       5.6183   9.5962   4.9762   O.3       1 RES1   0.0000
     4 O3      11.0024   9.8010   4.5705   O.3       1 RES1   0.0000
     5 O4       6.4222   7.4273   4.0641   O.3       1 RES1   0.0000
     6 O5      10.6829  10.0755   2.1426   O.3       1 RES1   0.0000
     7 O6       5.5893   9.1969   2.5299   O.3       1 RES1   0.0000
     8 N1       8.8008  11.4686   4.0493   N.2       1 RES1   0.0000
     9 N2       6.8107  10.2932   4.8057   N.2       1 RES1   0.0000
    10 N3       9.8053   9.0916   4.5845   N.2       1 RES1   0.0000
    11 N4       7.7233   7.8991   4.1614   N.2       1 RES1   0.0000
    12 N5       9.3370   9.7400   2.1123   N.2       1 RES1   0.0000
    13 N6       6.9198   9.5103   2.2773   N.2       1 RES1   0.0000
    14 C1      12.5226  11.4022   3.2950   C.3       1 RES1   0.0000
    15 H1      13.1646  10.6732   3.1625   H         1 RES1   0.0000
    16 H2      12.7508  11.8936   4.1121   H         1 RES1   0.0000
    17 H3      12.5559  12.0108   2.5269   H         1 RES1   0.0000
    18 C2       3.9354   7.9592   4.0023   C.3       1 RES1   0.0000
    19 H4       3.8203   7.5327   4.8772   H         1 RES1   0.0000
    20 H5       3.7970   7.2957   3.2946   H         1 RES1   0.0000
    21 H6       3.2825   8.6836   3.9041   H         1 RES1   0.0000
    22 C3       8.0989  12.1945   4.8984   C.2       1 RES1   0.0000
    23 C4       6.8604  11.5199   5.2763   C.2       1 RES1   0.0000
    24 C5       5.7430  12.2020   6.0159   C.3       1 RES1   0.0000
    25 H7       6.1253  12.8217   6.6861   H         1 RES1   0.0000
    26 H8       5.2082  11.5230   6.4990   H         1 RES1   0.0000
    27 C6       4.8243  12.9885   5.0598   C.3       1 RES1   0.0000
    28 H9       4.2925  12.3422   4.5306   H         1 RES1   0.0000
    29 H10      4.1915  13.5240   5.6005   H         1 RES1   0.0000
    30 C7       5.5531  13.9259   4.0944   C.3       1 RES1   0.0000
    31 H11      4.8799  14.3938   3.5392   H         1 RES1   0.0000
    32 H12      6.1145  13.3807   3.4869   H         1 RES1   0.0000
    33 C8       6.4535  14.9872   4.7791   C.3       1 RES1   0.0000
    34 H13      6.2505  15.8704   4.3815   H         1 RES1   0.0000
    35 H14      6.2084  15.0303   5.7378   H         1 RES1   0.0000
    36 C9       7.9639  14.7491   4.6792   C.3       1 RES1   0.0000
    37 H15      8.4255  15.5613   5.0067   H         1 RES1   0.0000
    38 H16      8.1959  14.6434   3.7223   H         1 RES1   0.0000
    39 C10      8.5271  13.5332   5.4476   C.3       1 RES1   0.0000
    40 H17      9.5163  13.5800   5.4331   H         1 RES1   0.0000
    41 H18      8.2391  13.5945   6.3931   H         1 RES1   0.0000
    42 C11      9.8773   7.8298   4.9465   C.2       1 RES1   0.0000
    43 C12      8.5977   7.1406   4.8012   C.2       1 RES1   0.0000
    44 C13      8.3176   5.7487   5.3239   C.3       1 RES1   0.0000
    45 H19      7.3554   5.6797   5.5469   H         1 RES1   0.0000
    46 H20      8.8299   5.6133   6.1603   H         1 RES1   0.0000
    47 C14      8.6804   4.6199   4.3279   C.3       1 RES1   0.0000
    48 H21      8.3383   3.7654   4.6928   H         1 RES1   0.0000
    49 H22      8.1997   4.7917   3.4791   H         1 RES1   0.0000
    50 C15     10.1763   4.4385   4.0038   C.3       1 RES1   0.0000
    51 H23     10.2846   3.6020   3.4869   H         1 RES1   0.0000
    52 H24     10.6693   4.3267   4.8550   H         1 RES1   0.0000
    53 C16     10.8324   5.5961   3.2056   C.3       1 RES1   0.0000
    54 H25     11.3443   5.2066   2.4536   H         1 RES1   0.0000
    55 H26     10.1130   6.1553   2.8172   H         1 RES1   0.0000
    56 C17     11.7703   6.5057   4.0105   C.3       1 RES1   0.0000
    57 H27     12.0693   7.2459   3.4254   H         1 RES1   0.0000
    58 H28     12.5730   5.9847   4.2651   H         1 RES1   0.0000
    59 C18     11.1513   7.1055   5.2846   C.3       1 RES1   0.0000
    60 H29     10.9608   6.3837   5.9340   H         1 RES1   0.0000
    61 H30     11.7920   7.7345   5.7012   H         1 RES1   0.0000
    62 C19      8.7851   9.5830   0.9264   C.2       1 RES1   0.0000
    63 C20      7.3385   9.3944   1.0336   C.2       1 RES1   0.0000
    64 C21      6.4406   9.0766  -0.1358   C.3       1 RES1   0.0000
    65 H31      6.7527   9.5808  -0.9286   H         1 RES1   0.0000
    66 H32      5.5205   9.3772   0.0719   H         1 RES1   0.0000
    67 C22      6.4123   7.5711  -0.4774   C.3       1 RES1   0.0000
    68 H33      6.2459   7.0646   0.3571   H         1 RES1   0.0000
    69 H34      5.6461   7.4030  -1.0830   H         1 RES1   0.0000
    70 C23      7.6814   7.0123  -1.1372   C.3       1 RES1   0.0000
    71 H35      7.9115   7.5901  -1.9069   H         1 RES1   0.0000
    72 H36      7.4748   6.1124  -1.4949   H         1 RES1   0.0000
    73 C24      8.9391   6.8956  -0.2191   C.3       1 RES1   0.0000
    74 H37      8.6453   6.9624   0.7246   H         1 RES1   0.0000
    75 H38      9.3361   5.9969  -0.3440   H         1 RES1   0.0000
    76 C25     10.0323   7.9502  -0.4650   C.3       1 RES1   0.0000
    77 H39     10.4073   7.8100  -1.3707   H         1 RES1   0.0000
    78 H40     10.7635   7.8039   0.1870   H         1 RES1   0.0000
    79 C26      9.5575   9.4189  -0.3504   C.3       1 RES1   0.0000
    80 H41     10.3390  10.0270  -0.3518   H         1 RES1   0.0000
    81 H42      8.9833   9.6480  -1.1235   H         1 RES1   0.0000
    82 B1      11.0480  10.7956   3.4320   B         1 RES1  -1.0000
    83 B2       5.4125   8.5557   3.8905   B         1 RES1  -1.0000
    84 Cl1     14.9763  15.0649  -0.4041   Cl        2 RES2   0.0000
    85 Cl2     15.3330  12.4293   0.8830   Cl        2 RES2   0.0000
    86 C27     15.1219  13.3084  -0.6526   C.3       2 RES2   0.0000
    87 H43     15.8958  13.1258  -1.2412   H         2 RES2   0.0000
    88 H44     14.3082  12.9757  -1.1078   H         2 RES2   0.0000
@<TRIPOS>BOND
     1     1     8    1
     2     2     8    1
     3     3     9    1
     4     4    10    1
     5     5    11    1
     6     6    12    1
     7     7    13    1
     8     8    22    2
     9     9     1    1
    10    10     1    1
    11    11     1    1
    12    12     1    1
    13    13     1    1
    14    14    15    1
    15    16    14    1
    16    17    14    1
    17    18    19    1
    18    20    18    1
    19    21    18    1
    20    22    23    1
    21    23     9    2
    22    24    23    1
    23    25    24    1
    24    26    24    1
    25    27    24    1
    26    28    27    1
    27    29    27    1
    28    30    27    1
    29    31    30    1
    30    32    30    1
    31    33    30    1
    32    34    33    1
    33    35    33    1
    34    36    33    1
    35    37    36    1
    36    38    36    1
    37    39    22    1
    38    40    39    1
    39    41    39    1
    40    42    10    2
    41    43    11    2
    42    44    43    1
    43    45    44    1
    44    46    44    1
    45    47    44    1
    46    48    47    1
    47    49    47    1
    48    50    47    1
    49    51    50    1
    50    52    50    1
    51    53    50    1
    52    54    53    1
    53    55    53    1
    54    56    53    1
    55    57    56    1
    56    58    56    1
    57    59    42    1
    58    60    59    1
    59    61    59    1
    60    62    12    2
    61    63    13    2
    62    64    63    1
    63    65    64    1
    64    66    64    1
    65    67    64    1
    66    68    67    1
    67    69    67    1
    68    70    67    1
    69    71    70    1
    70    72    70    1
    71    73    70    1
    72    74    73    1
    73    75    73    1
    74    76    73    1
    75    77    76    1
    76    78    76    1
    77    79    62    1
    78    80    79    1
    79    81    79    1
    80    82     2    1
    81    83     3    1
    82     4    82    1
    83     5    83    1
    84     6    82    1
    85     7    83    1
    86    14    82    1
    87    18    83    1
    88    36    39    1
    89    42    43    1
    90    56    59    1
    91    62    63    1
    92    76    79    1
    93    84    86    1
    94    85    86    1
    95    86    87    1
    96    88    86    1
@<TRIPOS>SUBSTRUCTURE
     1 RES1        1 GROUP             0 ****  ****    0  
     2 RES2       84 GROUP             0 ****  ****    0  
@<TRIPOS>CRYSIN
   11.2530   11.5120   13.3570   78.3200   86.1000   74.2900     2     1
