@<TRIPOS>MOLECULE
BARSAQ
    78    80     3     0     0
SMALL
USER_CHARGES
****
Generated from the CSD

@<TRIPOS>ATOM
     1 Fe1      0.7248   6.7393   9.2737   Fe        1 RES1   1.0000
     2 P1      -1.1844   6.6906  10.3542   P.3       1 RES1   0.0000
     3 N1       1.5298   6.5363   7.5211   N.2       1 RES1   0.0000
     4 C1      -2.5941   6.9365   9.2391   C.3       1 RES1   0.0000
     5 H1      -3.4276   6.9030   9.7537   H         1 RES1   0.0000
     6 H2      -2.5997   6.2301   8.5599   H         1 RES1   0.0000
     7 H3      -2.5144   7.8095   8.8003   H         1 RES1   0.0000
     8 P2       0.7015   4.4896   9.4883   P.3       1 RES1   0.0000
     9 N2       0.1400   6.6021   7.3685   N.3       1 RES1   0.0000
    10 C2      -1.6349   7.6658  11.8275   C.3       1 RES1   0.0000
    11 H4      -1.6570   8.6166  11.5955   H         1 RES1   0.0000
    12 H5      -0.9726   7.5154  12.5332   H         1 RES1   0.0000
    13 H6      -2.5197   7.3864  12.1449   H         1 RES1   0.0000
    14 P3       2.2448   7.0228  10.8145   P.3       1 RES1   0.0000
    15 C3      -1.5303   4.9838  10.9715   C.3       1 RES1   0.0000
    16 H7      -1.0900   4.8455  11.8468   H         1 RES1   0.0000
    17 H8      -2.5053   4.8589  11.0893   H         1 RES1   0.0000
    18 P4       0.7193   8.9889   9.1622   P.3       1 RES1   0.0000
    19 C4      -0.9844   3.9605   9.9340   C.3       1 RES1   0.0000
    20 H9      -1.5632   3.9444   9.1309   H         1 RES1   0.0000
    21 H10     -0.9658   3.0513  10.3259   H         1 RES1   0.0000
    22 C5       1.6982   3.6274  10.7672   C.3       1 RES1   0.0000
    23 H11      1.4350   2.6846  10.8056   H         1 RES1   0.0000
    24 H12      1.5424   4.0464  11.6388   H         1 RES1   0.0000
    25 H13      2.6489   3.6919  10.5375   H         1 RES1   0.0000
    26 C6       1.1405   3.4945   8.0273   C.3       1 RES1   0.0000
    27 H14      1.1095   2.5436   8.2581   H         1 RES1   0.0000
    28 H15      2.0463   3.7295   7.7327   H         1 RES1   0.0000
    29 H16      0.5055   3.6771   7.3047   H         1 RES1   0.0000
    30 C7       1.8978   6.8170  12.6102   C.3       1 RES1   0.0000
    31 H17      1.4949   5.9387  12.7665   H         1 RES1   0.0000
    32 H18      1.2799   7.5181  12.9059   H         1 RES1   0.0000
    33 H19      2.7364   6.8869  13.1139   H         1 RES1   0.0000
    34 C8       3.8576   6.1536  10.6481   C.3       1 RES1   0.0000
    35 H20      3.9524   5.4982  11.3707   H         1 RES1   0.0000
    36 H21      4.5878   6.8063  10.7010   H         1 RES1   0.0000
    37 H22      3.8943   5.6929   9.7825   H         1 RES1   0.0000
    38 C9       2.8364   8.7899  10.8237   C.3       1 RES1   0.0000
    39 H23      3.2658   9.0047  11.6893   H         1 RES1   0.0000
    40 H24      3.4976   8.9349  10.1011   H         1 RES1   0.0000
    41 C10      1.6044   9.6856  10.6036   C.3       1 RES1   0.0000
    42 H25      1.8813  10.6177  10.4233   H         1 RES1   0.0000
    43 H26      1.0236   9.6762  11.4055   H         1 RES1   0.0000
    44 C11      1.6682   9.6588   7.7508   C.3       1 RES1   0.0000
    45 H27      1.7303  10.6338   7.8337   H         1 RES1   0.0000
    46 H28      1.2132   9.4305   6.9140   H         1 RES1   0.0000
    47 H29      2.5695   9.2720   7.7496   H         1 RES1   0.0000
    48 C12     -0.7731  10.0509   9.0672   C.3       1 RES1   0.0000
    49 H30     -1.3787   9.8320   9.8066   H         1 RES1   0.0000
    50 H31     -1.2304   9.8965   8.2148   H         1 RES1   0.0000
    51 H32     -0.5082  10.9924   9.1297   H         1 RES1   0.0000
    52 C13      2.3688   6.6854   6.4728   C.ar      1 RES1   0.0000
    53 C14      1.9261   6.7002   5.1203   C.ar      1 RES1   0.0000
    54 H33      0.9963   6.6679   4.9291   H         1 RES1   0.0000
    55 C15      2.8418   6.7606   4.0756   C.ar      1 RES1   0.0000
    56 H34      2.5247   6.7620   3.1799   H         1 RES1   0.0000
    57 C16      4.2198   6.8210   4.3100   C.ar      1 RES1   0.0000
    58 H35      4.8419   6.8372   3.5911   H         1 RES1   0.0000
    59 C17      4.6447   6.8560   5.6288   C.ar      1 RES1   0.0000
    60 H36      5.5759   6.9271   5.8092   H         1 RES1   0.0000
    61 C18      3.7670   6.7902   6.6856   C.ar      1 RES1   0.0000
    62 H37      4.1016   6.8157   7.5740   H         1 RES1   0.0000
    63 H46     -0.2301   7.2642   6.9922   H         1 RES1   0.0000
    64 H47     -0.2725   5.9199   7.0607   H         1 RES1   0.0000
    65 Cl1     -1.4570   8.9890   5.7097   Cl        2 RES2  -1.0000
    66 O1       4.4675  11.0662  16.3755   O.3       3 RES3   0.0000
    67 C19      4.8626  11.2838  15.0266   C.3       3 RES3   0.0000
    68 H38      5.8447  11.1871  14.9377   H         3 RES3   0.0000
    69 H39      4.6098  12.1970  14.7393   H         3 RES3   0.0000
    70 C20      4.1512  10.2457  14.1695   C.3       3 RES3   0.0000
    71 H40      4.7635   9.8562  13.4962   H         3 RES3   0.0000
    72 H41      3.3679  10.6392  13.7066   H         3 RES3   0.0000
    73 C21      3.7123   9.1834  15.2070   C.3       3 RES3   0.0000
    74 H42      2.7273   9.1646  15.3056   H         3 RES3   0.0000
    75 H43      4.0289   8.2809  14.9497   H         3 RES3   0.0000
    76 C22      4.3729   9.6494  16.4693   C.3       3 RES3   0.0000
    77 H44      3.8339   9.3902  17.2580   H         3 RES3   0.0000
    78 H45      5.2745   9.2478  16.5559   H         3 RES3   0.0000
@<TRIPOS>BOND
     1     1     2    1
     2     2     4    1
     3     3     1    1
     4     4     5    1
     5     6     4    1
     6     7     4    1
     7     8     1    1
     8     9     1    1
     9    10     2    1
    10    11    10    1
    11    12    10    1
    12    13    10    1
    13    14     1    1
    14    15     2    1
    15    16    15    1
    16    17    15    1
    17    18     1    1
    18    19     8    1
    19    20    19    1
    20    21    19    1
    21    22     8    1
    22    23    22    1
    23    24    22    1
    24    25    22    1
    25    26     8    1
    26    27    26    1
    27    28    26    1
    28    29    26    1
    29    30    14    1
    30    31    30    1
    31    32    30    1
    32    33    30    1
    33    34    14    1
    34    35    34    1
    35    36    34    1
    36    37    34    1
    37    38    14    1
    38    39    38    1
    39    40    38    1
    40    41    18    1
    41    42    41    1
    42    43    41    1
    43    44    18    1
    44    45    44    1
    45    46    44    1
    46    47    44    1
    47    48    18    1
    48    49    48    1
    49    50    48    1
    50    51    48    1
    51    52     3    1
    52    53    52   ar
    53    54    53    1
    54    55    53   ar
    55    56    55    1
    56    57    55   ar
    57    58    57    1
    58    59    57   ar
    59    60    59    1
    60    61    52   ar
    61    62    61    1
    62    63     9    1
    63    64     9    1
    64     3     9    1
    65    15    19    1
    66    38    41    1
    67    59    61   ar
    68    66    67    1
    69    67    68    1
    70    69    67    1
    71    70    67    1
    72    71    70    1
    73    72    70    1
    74    73    70    1
    75    74    73    1
    76    75    73    1
    77    76    66    1
    78    77    76    1
    79    78    76    1
    80    73    76    1
@<TRIPOS>SUBSTRUCTURE
     1 RES1        1 GROUP             0 ****  ****    0  
     2 RES2       65 GROUP             0 ****  ****    0  
     3 RES3       66 GROUP             0 ****  ****    0  
@<TRIPOS>CRYSIN
   17.2600   13.4299   12.5230   90.0000  106.2570   90.0000    14     1
