@<TRIPOS>MOLECULE
BASDAE
    78    83     4     0     0
SMALL
USER_CHARGES
****
Generated from the CSD

@<TRIPOS>ATOM
     1 Fe1     -0.0353  12.9163  10.6975   Fe        1 RES1   2.0000
     2 O1       2.8234  13.4226  10.4306   O.2       1 RES1   0.0000
     3 N1      -1.9441  12.3659  11.0349   N.ar      1 RES1   0.0000
     4 N2       0.2337  12.9081  12.6708   N.ar      1 RES1   0.0000
     5 N3      -0.4057  14.7606  11.0760   N.ar      1 RES1   0.0000
     6 N4      -0.5190  13.5096   8.8733   N.ar      1 RES1   0.0000
     7 N5       0.9696  10.1729   9.7798   N.pl3     1 RES1   0.0000
     8 N6      -1.0568  10.3080  10.5558   N.pl3     1 RES1   0.0000
     9 C1       0.0910  11.0409  10.2983   C.3       1 RES1   0.0000
    10 C2       1.6998  13.2265  10.4985   C.1       1 RES1   0.0000
    11 C3       0.5690  11.8625  13.4414   C.ar      1 RES1   0.0000
    12 C4       0.7474  11.9847  14.8092   C.ar      1 RES1   0.0000
    13 C5       0.5899  13.2191  15.4081   C.ar      1 RES1   0.0000
    14 C6       0.2446  14.3109  14.6232   C.ar      1 RES1   0.0000
    15 C7       0.0531  14.1388  13.2734   C.ar      1 RES1   0.0000
    16 C8      -0.3166  15.2048  12.3294   C.ar      1 RES1   0.0000
    17 C9      -0.5795  16.5428  12.6118   C.ar      1 RES1   0.0000
    18 C10     -0.8695  17.3922  11.5570   C.ar      1 RES1   0.0000
    19 C11     -0.9633  16.9203  10.2572   C.ar      1 RES1   0.0000
    20 C12     -0.7453  15.5712  10.0480   C.ar      1 RES1   0.0000
    21 C13     -0.8599  14.8347   8.7857   C.ar      1 RES1   0.0000
    22 C14     -1.3054  15.3769   7.5896   C.ar      1 RES1   0.0000
    23 C15     -1.4095  14.5626   6.4722   C.ar      1 RES1   0.0000
    24 C16     -1.0250  13.2579   6.5544   C.ar      1 RES1   0.0000
    25 C17     -0.5835  12.7767   7.7648   C.ar      1 RES1   0.0000
    26 C18     -2.9640  13.1598  11.3836   C.ar      1 RES1   0.0000
    27 C19     -4.2192  12.6842  11.7090   C.ar      1 RES1   0.0000
    28 C20     -4.4223  11.3185  11.7125   C.ar      1 RES1   0.0000
    29 C21     -3.3868  10.4746  11.3514   C.ar      1 RES1   0.0000
    30 C22     -2.1783  11.0261  11.0009   C.ar      1 RES1   0.0000
    31 C23     -0.8853   8.9570  10.1875   C.ar      1 RES1   0.0000
    32 C24     -1.6848   7.8300  10.2554   C.ar      1 RES1   0.0000
    33 C25     -1.1222   6.6308   9.7923   C.ar      1 RES1   0.0000
    34 C26      0.1662   6.5753   9.3024   C.ar      1 RES1   0.0000
    35 C27      0.9651   7.7023   9.2506   C.ar      1 RES1   0.0000
    36 C28      0.4131   8.8867   9.6976   C.ar      1 RES1   0.0000
    37 C29      2.3135  10.4931   9.2917   C.3       1 RES1   0.0000
    38 H1       0.6853  11.0112  13.0356   H         1 RES1   0.0000
    39 H2       0.9759  11.2241  15.3312   H         1 RES1   0.0000
    40 H3       0.7176  13.3190  16.3450   H         1 RES1   0.0000
    41 H4       0.1420  15.1696  15.0166   H         1 RES1   0.0000
    42 H5      -0.5615  16.8648  13.5058   H         1 RES1   0.0000
    43 H6      -1.0066  18.3157  11.7286   H         1 RES1   0.0000
    44 H7      -1.1664  17.5033   9.5349   H         1 RES1   0.0000
    45 H8      -1.5361  16.2966   7.5360   H         1 RES1   0.0000
    46 H9      -1.7450  14.9105   5.6533   H         1 RES1   0.0000
    47 H10     -1.0629  12.6935   5.7928   H         1 RES1   0.0000
    48 H11     -0.3073  11.8681   7.8131   H         1 RES1   0.0000
    49 H12     -2.8171  14.0981  11.4086   H         1 RES1   0.0000
    50 H13     -4.9238  13.2820  11.9271   H         1 RES1   0.0000
    51 H14     -5.2650  10.9613  11.9593   H         1 RES1   0.0000
    52 H15     -3.5113   9.5326  11.3460   H         1 RES1   0.0000
    53 H16     -2.5687   7.8652  10.5969   H         1 RES1   0.0000
    54 H17     -1.6429   5.8369   9.8156   H         1 RES1   0.0000
    55 H18      0.5118   5.7462   8.9967   H         1 RES1   0.0000
    56 H19      1.8554   7.6635   8.9216   H         1 RES1   0.0000
    57 H20      2.7321   9.7010   8.9753   H         1 RES1   0.0000
    58 H21      2.8288  10.8613   9.9997   H         1 RES1   0.0000
    59 H22      2.2522  11.1241   8.5837   H         1 RES1   0.0000
    60 Cl1      4.7334  10.4718  13.1024   Cl        2 RES2   0.0000
    61 C30      6.1607   9.5104  13.4093   C.3       2 RES2   0.0000
    62 H23      5.9976   8.9626  14.1673   H         2 RES2   0.0000
    63 Cl1B     7.5880  10.4718  13.7161   Cl        2 RES2   0.0000
    64 H23B     6.3238   8.9626  12.6512   H         2 RES2   0.0000
    65 P1       3.2234  17.2394  12.6705   P.3       3 RES3  -1.0000
    66 F1       2.1927  18.1712  11.8897   F         3 RES3   0.0000
    67 F2       2.1497  16.9986  13.8160   F         3 RES3   0.0000
    68 F3       2.6849  15.9824  11.8534   F         3 RES3   0.0000
    69 F4       4.2646  16.3207  13.4396   F         3 RES3   0.0000
    70 F5       4.3141  17.5084  11.5153   F         3 RES3   0.0000
    71 F6       3.7652  18.5196  13.4647   F         3 RES3   0.0000
    72 P2       4.9887   7.2867  10.0285   P.3       4 RES4  -1.0000
    73 F7       3.8052   8.0158  10.8172   F         4 RES4   0.0000
    74 F8       4.0544   5.9988   9.8531   F         4 RES4   0.0000
    75 F9       5.5389   6.7183  11.4234   F         4 RES4   0.0000
    76 F10      6.1532   6.5383   9.2649   F         4 RES4   0.0000
    77 F11      5.9024   8.5943  10.2071   F         4 RES4   0.0000
    78 F12      4.4321   7.8735   8.6490   F         4 RES4   0.0000
@<TRIPOS>BOND
     1     1     3    1
     2     2    10    3
     3     3    26   ar
     4     4     1    1
     5     5     1    1
     6     6     1    1
     7     7     9    1
     8     8     9    1
     9     9     1    1
    10    10     1    1
    11    11     4   ar
    12    12    11   ar
    13    13    12   ar
    14    14    13   ar
    15    15     4   ar
    16    16     5   ar
    17    17    16   ar
    18    18    17   ar
    19    19    18   ar
    20    20     5   ar
    21    21     6   ar
    22    22    21   ar
    23    23    22   ar
    24    24    23   ar
    25    25     6   ar
    26    26    27   ar
    27    27    28   ar
    28    28    29   ar
    29    29    30   ar
    30    30     3   ar
    31    31     8    1
    32    32    31   ar
    33    33    32   ar
    34    34    33   ar
    35    35    34   ar
    36    36     7    1
    37    37     7    1
    38    38    11    1
    39    39    12    1
    40    40    13    1
    41    41    14    1
    42    42    17    1
    43    43    18    1
    44    44    19    1
    45    45    22    1
    46    46    23    1
    47    47    24    1
    48    48    25    1
    49    49    26    1
    50    50    27    1
    51    51    28    1
    52    52    29    1
    53    53    32    1
    54    54    33    1
    55    55    34    1
    56    56    35    1
    57    57    37    1
    58    58    37    1
    59    59    37    1
    60     8    30    1
    61    14    15   ar
    62    15    16    1
    63    19    20   ar
    64    20    21    1
    65    24    25   ar
    66    31    36   ar
    67    35    36   ar
    68    60    61    1
    69    61    62    1
    70    63    61    1
    71    64    61    1
    72    65    66    1
    73    67    65    1
    74    68    65    1
    75    69    65    1
    76    70    65    1
    77    71    65    1
    78    72    73    1
    79    74    72    1
    80    75    72    1
    81    76    72    1
    82    77    72    1
    83    78    72    1
@<TRIPOS>SUBSTRUCTURE
     1 RES1        1 GROUP             0 ****  ****    0  
     2 RES2       60 GROUP             0 ****  ****    0  
     3 RES3       65 GROUP             0 ****  ****    0  
     4 RES4       72 GROUP             0 ****  ****    0  
@<TRIPOS>CRYSIN
   20.0016   18.5063   18.5977   90.0000  105.9805   90.0000    15     1
