@<TRIPOS>MOLECULE
BAVHEL
    59    68     1     0     0
SMALL
NO_CHARGES
****
Generated from the CSD

@<TRIPOS>ATOM
     1 Fe1      0.0000   0.0000   0.0000   Fe        1 RES1   0.0000
     2 Br1      0.3707   2.1759   1.1604   Br        1 RES1   0.0000
     3 P1       1.1140  -1.0720   2.1719   P.3       1 RES1   0.0000
     4 P2      -2.1044  -0.2895   1.5604   P.3       1 RES1   0.0000
     5 C1      -0.2222  -1.2014   3.3907   C.2       1 RES1   0.0000
     6 C2      -1.4668  -0.9057   3.1438   C.2       1 RES1   0.0000
     7 C11      2.3828  -0.0767   3.0039   C.ar      1 RES1   0.0000
     8 C21      2.3676   0.1877   4.3701   C.ar      1 RES1   0.0000
     9 C31      3.4048   0.9402   4.9544   C.ar      1 RES1   0.0000
    10 C41      4.4141   1.4058   4.1725   C.ar      1 RES1   0.0000
    11 C51      4.4409   1.1467   2.8311   C.ar      1 RES1   0.0000
    12 C61      3.4191   0.4163   2.2797   C.ar      1 RES1   0.0000
    13 C12      1.8510  -2.7522   2.2879   C.ar      1 RES1   0.0000
    14 C22      1.1735  -3.8147   1.7447   C.ar      1 RES1   0.0000
    15 C32      1.7142  -5.1088   1.7283   C.ar      1 RES1   0.0000
    16 C42      2.9470  -5.3130   2.3126   C.ar      1 RES1   0.0000
    17 C52      3.6205  -4.2790   2.8805   C.ar      1 RES1   0.0000
    18 C62      3.0590  -3.0014   2.8722   C.ar      1 RES1   0.0000
    19 C13     -3.0489   1.2353   2.0410   C.ar      1 RES1   0.0000
    20 C23     -3.6381   1.4291   3.2014   C.ar      1 RES1   0.0000
    21 C33     -4.3644   2.6532   3.4154   C.ar      1 RES1   0.0000
    22 C43     -4.4790   3.5491   2.4196   C.ar      1 RES1   0.0000
    23 C53     -3.9083   3.3445   1.2263   C.ar      1 RES1   0.0000
    24 C63     -3.1533   2.1704   1.0534   C.ar      1 RES1   0.0000
    25 C14     -3.4216  -1.5466   1.2839   C.ar      1 RES1   0.0000
    26 C24     -3.0594  -2.8500   1.1028   C.ar      1 RES1   0.0000
    27 C34     -4.0068  -3.8264   0.8724   C.ar      1 RES1   0.0000
    28 C44     -5.3649  -3.4830   0.8641   C.ar      1 RES1   0.0000
    29 C54     -5.7265  -2.1966   1.0534   C.ar      1 RES1   0.0000
    30 C64     -4.7643  -1.2029   1.2427   C.ar      1 RES1   0.0000
    31 Br1A    -0.3707  -2.1759  -1.1604   Br        1 RES1   0.0000
    32 P1A     -1.1140   1.0720  -2.1719   P.3       1 RES1   0.0000
    33 P2A      2.1044   0.2895  -1.5604   P.3       1 RES1   0.0000
    34 C1A      0.2222   1.2014  -3.3907   C.2       1 RES1   0.0000
    35 C11A    -2.3828   0.0767  -3.0039   C.ar      1 RES1   0.0000
    36 C12A    -1.8510   2.7522  -2.2879   C.ar      1 RES1   0.0000
    37 C2A      1.4668   0.9057  -3.1438   C.2       1 RES1   0.0000
    38 C13A     3.0489  -1.2353  -2.0410   C.ar      1 RES1   0.0000
    39 C14A     3.4216   1.5466  -1.2839   C.ar      1 RES1   0.0000
    40 C21A    -2.3676  -0.1877  -4.3701   C.ar      1 RES1   0.0000
    41 C61A    -3.4191  -0.4163  -2.2797   C.ar      1 RES1   0.0000
    42 C22A    -1.1735   3.8147  -1.7447   C.ar      1 RES1   0.0000
    43 C62A    -3.0590   3.0014  -2.8722   C.ar      1 RES1   0.0000
    44 C23A     3.6381  -1.4291  -3.2014   C.ar      1 RES1   0.0000
    45 C63A     3.1533  -2.1704  -1.0534   C.ar      1 RES1   0.0000
    46 C24A     3.0594   2.8500  -1.1028   C.ar      1 RES1   0.0000
    47 C64A     4.7643   1.2029  -1.2427   C.ar      1 RES1   0.0000
    48 C31A    -3.4048  -0.9402  -4.9544   C.ar      1 RES1   0.0000
    49 C51A    -4.4409  -1.1467  -2.8311   C.ar      1 RES1   0.0000
    50 C32A    -1.7142   5.1088  -1.7283   C.ar      1 RES1   0.0000
    51 C52A    -3.6205   4.2790  -2.8805   C.ar      1 RES1   0.0000
    52 C33A     4.3644  -2.6532  -3.4154   C.ar      1 RES1   0.0000
    53 C53A     3.9083  -3.3445  -1.2263   C.ar      1 RES1   0.0000
    54 C34A     4.0068   3.8264  -0.8724   C.ar      1 RES1   0.0000
    55 C54A     5.7265   2.1966  -1.0534   C.ar      1 RES1   0.0000
    56 C41A    -4.4141  -1.4058  -4.1725   C.ar      1 RES1   0.0000
    57 C42A    -2.9470   5.3130  -2.3126   C.ar      1 RES1   0.0000
    58 C43A     4.4790  -3.5491  -2.4196   C.ar      1 RES1   0.0000
    59 C44A     5.3649   3.4830  -0.8641   C.ar      1 RES1   0.0000
@<TRIPOS>BOND
     1     1     2    1
     2     3     1    1
     3     4     1    1
     4     5     3    1
     5     6     4    1
     6     7     3    1
     7     8     7   ar
     8     9     8   ar
     9    10     9   ar
    10    11    10   ar
    11    12     7   ar
    12    13     3    1
    13    14    13   ar
    14    15    14   ar
    15    16    15   ar
    16    17    16   ar
    17    18    13   ar
    18    19     4    1
    19    20    19   ar
    20    21    20   ar
    21    22    21   ar
    22    23    22   ar
    23    24    19   ar
    24    25     4    1
    25    26    25   ar
    26    27    26   ar
    27    28    27   ar
    28    29    28   ar
    29    30    25   ar
    30    31     1    1
    31    32     1    1
    32    33     1    1
    33    34    32    1
    34    35    32    1
    35    36    32    1
    36    37    33    1
    37    38    33    1
    38    39    33    1
    39    40    35   ar
    40    41    35   ar
    41    42    36   ar
    42    43    36   ar
    43    44    38   ar
    44    45    38   ar
    45    46    39   ar
    46    47    39   ar
    47    48    40   ar
    48    49    41   ar
    49    50    42   ar
    50    51    43   ar
    51    52    44   ar
    52    53    45   ar
    53    54    46   ar
    54    55    47   ar
    55    56    48   ar
    56    57    50   ar
    57    58    52   ar
    58    59    54   ar
    59     5     6    2
    60    11    12   ar
    61    17    18   ar
    62    23    24   ar
    63    29    30   ar
    64    34    37    2
    65    49    56   ar
    66    51    57   ar
    67    53    58   ar
    68    55    59   ar
@<TRIPOS>SUBSTRUCTURE
     1 RES1        1 GROUP             0 ****  ****    0  
@<TRIPOS>CRYSIN
   12.3270   11.6550   10.3010  118.5400  103.2200  105.0500     2     1
