@<TRIPOS>MOLECULE
BAVZED
    59    68     1     0     0
SMALL
NO_CHARGES
****
Generated from the CSD

@<TRIPOS>ATOM
     1 Fe1      0.0000   0.0000   0.0000   Fe        1 RES1   0.0000
     2 Cl1     -1.2740  -0.1134   1.9674   Cl        1 RES1   0.0000
     3 P1       2.3814   0.0448   1.2184   P.3       1 RES1   0.0000
     4 P2       0.4229   2.4848   0.2417   P.3       1 RES1   0.0000
     5 C1       3.0099   1.7238   0.8531   C.2       1 RES1   0.0000
     6 C2       2.2164   2.7143   0.4791   C.2       1 RES1   0.0000
     7 C3       3.6463  -1.0551   0.4921   C.ar      1 RES1   0.0000
     8 C4       4.2408  -0.7333  -0.7273   C.ar      1 RES1   0.0000
     9 C5       5.0786  -1.6645  -1.3571   C.ar      1 RES1   0.0000
    10 C6       5.3158  -2.8976  -0.7870   C.ar      1 RES1   0.0000
    11 C7       4.7423  -3.2089   0.4184   C.ar      1 RES1   0.0000
    12 C8       3.9060  -2.3028   1.0590   C.ar      1 RES1   0.0000
    13 C9       2.7608  -0.0686   3.0124   C.ar      1 RES1   0.0000
    14 C10      4.0715  -0.0646   3.4926   C.ar      1 RES1   0.0000
    15 C11      4.3140  -0.1490   4.8584   C.ar      1 RES1   0.0000
    16 C12      3.2828  -0.2545   5.7515   C.ar      1 RES1   0.0000
    17 C13      1.9945  -0.2387   5.2854   C.ar      1 RES1   0.0000
    18 C14      1.7262  -0.1319   3.9305   C.ar      1 RES1   0.0000
    19 C15      0.0403   3.6481  -1.1154   C.ar      1 RES1   0.0000
    20 C16      0.2713   5.0276  -1.0189   C.ar      1 RES1   0.0000
    21 C17     -0.0669   5.8691  -2.0693   C.ar      1 RES1   0.0000
    22 C18     -0.6392   5.3574  -3.2118   C.ar      1 RES1   0.0000
    23 C19     -0.8765   4.0095  -3.3224   C.ar      1 RES1   0.0000
    24 C20     -0.5270   3.1627  -2.2828   C.ar      1 RES1   0.0000
    25 C21     -0.3051   3.3408   1.6823   C.ar      1 RES1   0.0000
    26 C22      0.4119   3.5861   2.8389   C.ar      1 RES1   0.0000
    27 C23     -0.2186   4.1598   3.9326   C.ar      1 RES1   0.0000
    28 C24     -1.5550   4.4737   3.8839   C.ar      1 RES1   0.0000
    29 C25     -2.2738   4.2310   2.7457   C.ar      1 RES1   0.0000
    30 C26     -1.6496   3.6560   1.6444   C.ar      1 RES1   0.0000
    31 Cl1B     1.2740   0.1134  -1.9674   Cl        1 RES1   0.0000
    32 P1B     -2.3814  -0.0448  -1.2184   P.3       1 RES1   0.0000
    33 P2B     -0.4229  -2.4848  -0.2417   P.3       1 RES1   0.0000
    34 C1B     -3.0099  -1.7238  -0.8531   C.2       1 RES1   0.0000
    35 C3B     -3.6463   1.0551  -0.4921   C.ar      1 RES1   0.0000
    36 C9B     -2.7608   0.0686  -3.0124   C.ar      1 RES1   0.0000
    37 C2B     -2.2164  -2.7143  -0.4791   C.2       1 RES1   0.0000
    38 C15B    -0.0403  -3.6481   1.1154   C.ar      1 RES1   0.0000
    39 C21B     0.3051  -3.3408  -1.6823   C.ar      1 RES1   0.0000
    40 C4B     -4.2408   0.7333   0.7273   C.ar      1 RES1   0.0000
    41 C8B     -3.9060   2.3028  -1.0590   C.ar      1 RES1   0.0000
    42 C10B    -4.0715   0.0646  -3.4926   C.ar      1 RES1   0.0000
    43 C14B    -1.7262   0.1319  -3.9305   C.ar      1 RES1   0.0000
    44 C16B    -0.2713  -5.0276   1.0189   C.ar      1 RES1   0.0000
    45 C20B     0.5270  -3.1627   2.2828   C.ar      1 RES1   0.0000
    46 C22B    -0.4119  -3.5861  -2.8389   C.ar      1 RES1   0.0000
    47 C26B     1.6496  -3.6560  -1.6444   C.ar      1 RES1   0.0000
    48 C5B     -5.0786   1.6645   1.3571   C.ar      1 RES1   0.0000
    49 C7B     -4.7423   3.2089  -0.4184   C.ar      1 RES1   0.0000
    50 C11B    -4.3140   0.1490  -4.8584   C.ar      1 RES1   0.0000
    51 C13B    -1.9945   0.2387  -5.2854   C.ar      1 RES1   0.0000
    52 C17B     0.0669  -5.8691   2.0693   C.ar      1 RES1   0.0000
    53 C19B     0.8765  -4.0095   3.3224   C.ar      1 RES1   0.0000
    54 C23B     0.2186  -4.1598  -3.9326   C.ar      1 RES1   0.0000
    55 C25B     2.2738  -4.2310  -2.7457   C.ar      1 RES1   0.0000
    56 C6B     -5.3158   2.8976   0.7870   C.ar      1 RES1   0.0000
    57 C12B    -3.2828   0.2545  -5.7515   C.ar      1 RES1   0.0000
    58 C18B     0.6392  -5.3574   3.2118   C.ar      1 RES1   0.0000
    59 C24B     1.5550  -4.4737  -3.8839   C.ar      1 RES1   0.0000
@<TRIPOS>BOND
     1     1     2    1
     2     3     1    1
     3     4     1    1
     4     5     3    1
     5     6     4    1
     6     7     3    1
     7     8     7   ar
     8     9     8   ar
     9    10     9   ar
    10    11    10   ar
    11    12     7   ar
    12    13     3    1
    13    14    13   ar
    14    15    14   ar
    15    16    15   ar
    16    17    16   ar
    17    18    13   ar
    18    19     4    1
    19    20    19   ar
    20    21    20   ar
    21    22    21   ar
    22    23    22   ar
    23    24    19   ar
    24    25     4    1
    25    26    25   ar
    26    27    26   ar
    27    28    27   ar
    28    29    28   ar
    29    30    25   ar
    30    31     1    1
    31    32     1    1
    32    33     1    1
    33    34    32    1
    34    35    32    1
    35    36    32    1
    36    37    33    1
    37    38    33    1
    38    39    33    1
    39    40    35   ar
    40    41    35   ar
    41    42    36   ar
    42    43    36   ar
    43    44    38   ar
    44    45    38   ar
    45    46    39   ar
    46    47    39   ar
    47    48    40   ar
    48    49    41   ar
    49    50    42   ar
    50    51    43   ar
    51    52    44   ar
    52    53    45   ar
    53    54    46   ar
    54    55    47   ar
    55    56    48   ar
    56    57    50   ar
    57    58    52   ar
    58    59    54   ar
    59     5     6    2
    60    11    12   ar
    61    17    18   ar
    62    23    24   ar
    63    29    30   ar
    64    34    37    2
    65    49    56   ar
    66    51    57   ar
    67    53    58   ar
    68    55    59   ar
@<TRIPOS>SUBSTRUCTURE
     1 RES1        1 GROUP             0 ****  ****    0  
@<TRIPOS>CRYSIN
   16.0860   13.1890   10.8400   90.0000   90.4200   90.0000   231     1
