@<TRIPOS>MOLECULE
BAYDEL
    99   107     1     0     0
SMALL
NO_CHARGES
****
Generated from the CSD

@<TRIPOS>ATOM
     1 Fe1      5.8076   1.8638  17.6267   Fe        1 RES1   0.0000
     2 C1       6.7020   0.4427  17.9082   C.1       1 RES1   0.0000
     3 S1       7.6878  -0.7577  18.0823   S.2       1 RES1   0.0000
     4 N1       7.0401   2.8185  18.8825   N.2       1 RES1   0.0000
     5 N2       7.0356   2.2654  16.1051   N.2       1 RES1   0.0000
     6 N3       4.5259   0.9895  16.3639   N.2       1 RES1   0.0000
     7 N4       4.4747   1.6497  19.1107   N.2       1 RES1   0.0000
     8 C2       6.9144   2.9182  20.2447   C.2       1 RES1   0.0000
     9 C3       8.2766   3.3441  18.5898   C.2       1 RES1   0.0000
    10 C4       8.2011   2.9917  16.1556   C.2       1 RES1   0.0000
    11 C5       6.9002   1.8575  14.8063   C.2       1 RES1   0.0000
    12 C6       4.7270   0.6999  15.0403   C.2       1 RES1   0.0000
    13 C7       3.2504   0.5629  16.6392   C.2       1 RES1   0.0000
    14 C8       3.1870   1.1977  19.0101   C.2       1 RES1   0.0000
    15 C9       4.6461   1.9828  20.4275   C.2       1 RES1   0.0000
    16 C10      8.0957   3.5028  20.8285   C.2       1 RES1   0.0000
    17 C11      8.9465   3.7751  19.7989   C.2       1 RES1   0.0000
    18 C12      8.7693   3.1153  14.8277   C.2       1 RES1   0.0000
    19 C13      7.9769   2.3870  13.9973   C.2       1 RES1   0.0000
    20 C14      3.5683   0.0434  14.4743   C.2       1 RES1   0.0000
    21 C15      2.6398  -0.0284  15.4731   C.2       1 RES1   0.0000
    22 C16      2.5148   1.2545  20.2991   C.2       1 RES1   0.0000
    23 C17      3.4268   1.7489  21.1833   C.2       1 RES1   0.0000
    24 C18      8.7936   3.4627  17.3161   C.2       1 RES1   0.0000
    25 H1       9.6290   3.9071  17.2275   H         1 RES1   0.0000
    26 C19      5.8434   1.0941  14.3173   C.2       1 RES1   0.0000
    27 H2       5.8911   0.8185  13.4088   H         1 RES1   0.0000
    28 C20      2.6154   0.7149  17.8513   C.2       1 RES1   0.0000
    29 H3       1.6992   0.4644  17.8943   H         1 RES1   0.0000
    30 C21      5.7976   2.5256  20.9598   C.2       1 RES1   0.0000
    31 H4       5.8251   2.6426  21.9020   H         1 RES1   0.0000
    32 C22      8.2983   3.7450  22.3034   C.3       1 RES1   0.0000
    33 H5       9.2621   3.8904  22.4754   H         1 RES1   0.0000
    34 H6       8.0210   2.9366  22.8032   H         1 RES1   0.0000
    35 C23      7.5115   4.9494  22.8305   C.3       1 RES1   0.0000
    36 H7       7.8447   5.7679  22.4072   H         1 RES1   0.0000
    37 H8       7.6248   5.0145  23.8022   H         1 RES1   0.0000
    38 H9       6.5608   4.8358  22.6188   H         1 RES1   0.0000
    39 C24     10.3083   4.4015  19.8667   C.3       1 RES1   0.0000
    40 H10     10.8613   4.0507  19.1255   H         1 RES1   0.0000
    41 H11     10.7414   4.1376  20.7163   H         1 RES1   0.0000
    42 C25     10.2781   5.9099  19.7809   C.3       1 RES1   0.0000
    43 H12     10.0455   6.1805  18.8684   H         1 RES1   0.0000
    44 H13     11.1598   6.2690  20.0131   H         1 RES1   0.0000
    45 H14      9.6083   6.2590  20.4068   H         1 RES1   0.0000
    46 C26      9.9965   3.9071  14.4766   C.3       1 RES1   0.0000
    47 H15     10.1006   4.6404  15.1338   H         1 RES1   0.0000
    48 H16      9.8644   4.3197  13.5863   H         1 RES1   0.0000
    49 C27     11.2719   3.0936  14.4511   C.3       1 RES1   0.0000
    50 H17     11.4192   2.6893  15.3318   H         1 RES1   0.0000
    51 H18     12.0276   3.6766  14.2281   H         1 RES1   0.0000
    52 H19     11.1952   2.3870  13.7752   H         1 RES1   0.0000
    53 C28      8.1607   2.1281  12.5333   C.3       1 RES1   0.0000
    54 H20      8.7083   2.8547  12.1435   H         1 RES1   0.0000
    55 H21      7.2759   2.1431  12.0889   H         1 RES1   0.0000
    56 C29      8.8350   0.7934  12.2520   C.3       1 RES1   0.0000
    57 H22      9.7386   0.7985  12.6305   H         1 RES1   0.0000
    58 H23      8.8871   0.6515  11.2832   H         1 RES1   0.0000
    59 H24      8.3128   0.0718  12.6601   H         1 RES1   0.0000
    60 C30      3.3951  -0.4059  13.0531   C.3       1 RES1   0.0000
    61 H25      4.0013   0.1203  12.4757   H         1 RES1   0.0000
    62 H26      2.4668  -0.2138  12.7670   H         1 RES1   0.0000
    63 C31      3.6782  -1.8892  12.8440   C.3       1 RES1   0.0000
    64 H27      4.6125  -2.0780  13.0720   H         1 RES1   0.0000
    65 H28      3.5174  -2.1231  11.9068   H         1 RES1   0.0000
    66 H29      3.0886  -2.4187  13.4202   H         1 RES1   0.0000
    67 C32      1.2583  -0.5897  15.4447   C.3       1 RES1   0.0000
    68 H30      0.9831  -0.7183  14.5034   H         1 RES1   0.0000
    69 H31      0.6378   0.0618  15.8552   H         1 RES1   0.0000
    70 C33      1.1376  -1.9226  16.1818   C.3       1 RES1   0.0000
    71 H32      1.6153  -2.6175  15.6823   H         1 RES1   0.0000
    72 H33      0.1919  -2.1682  16.2603   H         1 RES1   0.0000
    73 H34      1.5286  -1.8374  17.0773   H         1 RES1   0.0000
    74 C34      1.1104   0.7918  20.5401   C.3       1 RES1   0.0000
    75 H35      0.5417   1.0757  19.7809   H         1 RES1   0.0000
    76 H36      0.7629   1.2261  21.3580   H         1 RES1   0.0000
    77 C35      1.0074  -0.7183  20.6981   C.3       1 RES1   0.0000
    78 H37      1.2959  -1.1542  19.8674   H         1 RES1   0.0000
    79 H38      0.0783  -0.9638  20.8892   H         1 RES1   0.0000
    80 H39      1.5820  -1.0089  21.4354   H         1 RES1   0.0000
    81 C36      3.2610   2.0145  22.6434   C.3       1 RES1   0.0000
    82 H40      2.2987   2.1398  22.8373   H         1 RES1   0.0000
    83 H41      3.7267   2.8581  22.8692   H         1 RES1   0.0000
    84 C37      3.8004   0.9003  23.5350   C.3       1 RES1   0.0000
    85 H42      3.3453   0.0601  23.3198   H         1 RES1   0.0000
    86 H43      3.6397   1.1275  24.4736   H         1 RES1   0.0000
    87 H44      4.7635   0.7985  23.3835   H         1 RES1   0.0000
    88 N5       4.8181   3.6712  17.1611   N.2       1 RES1   0.0000
    89 C38      3.9754   4.4249  17.9499   C.2       1 RES1   0.0000
    90 H45      3.7692   4.2428  18.8593   H         1 RES1   0.0000
    91 C39      3.4838   5.4655  17.2355   C.2       1 RES1   0.0000
    92 H46      2.8864   6.1370  17.5416   H         1 RES1   0.0000
    93 N6       4.0218   5.3531  15.9827   N.pl3     1 RES1   0.0000
    94 C40      3.7314   6.2072  14.8380   C.3       1 RES1   0.0000
    95 H47      4.3607   6.0068  14.1143   H         1 RES1   0.0000
    96 H48      3.8231   7.1460  15.0997   H         1 RES1   0.0000
    97 H49      2.8156   6.0402  14.5308   H         1 RES1   0.0000
    98 C41      4.8171   4.2712  15.9866   C.2       1 RES1   0.0000
    99 H50      5.3171   3.9739  15.2362   H         1 RES1   0.0000
@<TRIPOS>BOND
     1     1     2    1
     2     2     3    3
     3     4     1    1
     4     5     1    1
     5     6     1    1
     6     7     1    1
     7     8     4    1
     8     9     4    1
     9    10     5    2
    10    11     5    1
    11    12     6    1
    12    13     6    1
    13    14     7    1
    14    15     7    2
    15    16     8    1
    16    17     9    1
    17    18    10    1
    18    19    11    1
    19    20    12    2
    20    21    13    2
    21    22    14    1
    22    23    15    1
    23    24     9    2
    24    25    24    1
    25    26    11    2
    26    27    26    1
    27    28    13    1
    28    29    28    1
    29    30     8    2
    30    31    30    1
    31    32    16    1
    32    33    32    1
    33    34    32    1
    34    35    32    1
    35    36    35    1
    36    37    35    1
    37    38    35    1
    38    39    17    1
    39    40    39    1
    40    41    39    1
    41    42    39    1
    42    43    42    1
    43    44    42    1
    44    45    42    1
    45    46    18    1
    46    47    46    1
    47    48    46    1
    48    49    46    1
    49    50    49    1
    50    51    49    1
    51    52    49    1
    52    53    19    1
    53    54    53    1
    54    55    53    1
    55    56    53    1
    56    57    56    1
    57    58    56    1
    58    59    56    1
    59    60    20    1
    60    61    60    1
    61    62    60    1
    62    63    60    1
    63    64    63    1
    64    65    63    1
    65    66    63    1
    66    67    21    1
    67    68    67    1
    68    69    67    1
    69    70    67    1
    70    71    70    1
    71    72    70    1
    72    73    70    1
    73    74    22    1
    74    75    74    1
    75    76    74    1
    76    77    74    1
    77    78    77    1
    78    79    77    1
    79    80    77    1
    80    81    23    1
    81    82    81    1
    82    83    81    1
    83    84    81    1
    84    85    84    1
    85    86    84    1
    86    87    84    1
    87    88     1    1
    88    89    88    1
    89    90    89    1
    90    91    89    2
    91    92    91    1
    92    93    91    1
    93    94    93    1
    94    95    94    1
    95    96    94    1
    96    97    94    1
    97    98    88    2
    98    99    98    1
    99    10    24    1
   100    12    26    1
   101    14    28    2
   102    15    30    1
   103    16    17    2
   104    18    19    2
   105    20    21    1
   106    22    23    2
   107    93    98    1
@<TRIPOS>SUBSTRUCTURE
     1 RES1        1 GROUP             0 ****  ****    0  
@<TRIPOS>CRYSIN
    9.5906   16.7040   23.1417   90.0000  100.4530   90.0000   231     1
