@<TRIPOS>MOLECULE
BAYKUJ
    99   104     3     0     0
SMALL
USER_CHARGES
****
Generated from the CSD

@<TRIPOS>ATOM
     1 C1      18.4406   2.8487   7.8194   C.ar      1 RES1   0.0000
     2 H1      19.0806   2.3537   7.3629   H         1 RES1   0.0000
     3 C2      18.7269   4.1315   8.1369   C.ar      1 RES1   0.0000
     4 H2      19.5227   4.5204   7.8551   H         1 RES1   0.0000
     5 C3      17.8231   4.8482   8.8871   C.ar      1 RES1   0.0000
     6 H3      18.0240   5.7188   9.1491   H         1 RES1   0.0000
     7 C4      16.6121   4.2738   9.2503   C.ar      1 RES1   0.0000
     8 H4      15.9827   4.7455   9.7464   H         1 RES1   0.0000
     9 C5      16.3738   2.9645   8.8395   C.ar      1 RES1   0.0000
    10 C6      15.0759   2.2875   9.1213   C.3       1 RES1   0.0000
    11 H5      14.6833   2.6715   9.9191   H         1 RES1   0.0000
    12 H6      14.4674   2.4481   8.3830   H         1 RES1   0.0000
    13 C7      15.7579   0.4883  10.6887   C.3       1 RES1   0.0000
    14 H7      16.5942   0.9650  10.8062   H         1 RES1   0.0000
    15 H8      15.9692  -0.4585  10.6970   H         1 RES1   0.0000
    16 C8      14.0418   0.0563   8.8791   C.3       1 RES1   0.0000
    17 H9      14.1857  -0.8822   9.1233   H         1 RES1   0.0000
    18 C9      12.7139   0.4916   9.4864   C.3       1 RES1   0.0000
    19 H10     12.7753   0.4403  10.4529   H         1 RES1   0.0000
    20 H11     12.5430   1.4169   9.2483   H         1 RES1   0.0000
    21 C10     11.5674  -0.3592   9.0181   C.3       1 RES1   0.0000
    22 H12     10.7445  -0.0265   9.4110   H         1 RES1   0.0000
    23 H13     11.6992  -1.2679   9.3277   H         1 RES1   0.0000
    24 C11     11.4370  -0.3575   7.5018   C.3       1 RES1   0.0000
    25 H14     10.7355  -0.9733   7.2339   H         1 RES1   0.0000
    26 H15     11.1912   0.5297   7.1962   H         1 RES1   0.0000
    27 C12     12.7454  -0.7713   6.8628   C.3       1 RES1   0.0000
    28 H16     12.6629  -0.7233   5.8983   H         1 RES1   0.0000
    29 H17     12.9432  -1.6916   7.1029   H         1 RES1   0.0000
    30 C13     13.8889   0.1258   7.3175   C.3       1 RES1   0.0000
    31 H18     13.6057   1.0411   7.1168   H         1 RES1   0.0000
    32 C14     15.3412   0.9402   5.4855   C.3       1 RES1   0.0000
    33 H19     15.3862   1.8241   5.8804   H         1 RES1   0.0000
    34 H20     16.1895   0.7763   5.0449   H         1 RES1   0.0000
    35 C15     14.2666   0.9484   4.4416   C.ar      1 RES1   0.0000
    36 C16     13.2040   1.8621   4.5328   C.ar      1 RES1   0.0000
    37 H21     13.1815   2.4663   5.2394   H         1 RES1   0.0000
    38 C17     12.2013   1.8787   3.5981   C.ar      1 RES1   0.0000
    39 H22     11.5179   2.5060   3.6576   H         1 RES1   0.0000
    40 C18     12.2118   0.9683   2.5780   C.ar      1 RES1   0.0000
    41 H23     11.5119   0.9551   1.9648   H         1 RES1   0.0000
    42 C19     13.2504   0.0712   2.4510   C.ar      1 RES1   0.0000
    43 H24     13.2475  -0.5396   1.7504   H         1 RES1   0.0000
    44 C20     14.2861   0.0728   3.3461   C.ar      1 RES1   0.0000
    45 H25     15.0025  -0.5082   3.2290   H         1 RES1   0.0000
    46 C21     15.3772  -1.4632   6.0769   C.3       1 RES1   0.0000
    47 H26     14.5753  -1.7396   5.6065   H         1 RES1   0.0000
    48 H27     16.1131  -1.4732   5.4438   H         1 RES1   0.0000
    49 C22     15.6604  -2.4233   7.1744   C.ar      1 RES1   0.0000
    50 C23     15.1913  -3.7176   7.1228   C.ar      1 RES1   0.0000
    51 H28     14.6503  -4.0057   6.4222   H         1 RES1   0.0000
    52 C24     15.5525  -4.5817   8.1528   C.ar      1 RES1   0.0000
    53 H29     15.2528  -5.4623   8.1607   H         1 RES1   0.0000
    54 C25     16.3589  -4.1083   9.1610   C.ar      1 RES1   0.0000
    55 H30     16.6151  -4.6711   9.8556   H         1 RES1   0.0000
    56 C26     16.7800  -2.8271   9.1391   C.ar      1 RES1   0.0000
    57 H31     17.3151  -2.5159   9.8337   H         1 RES1   0.0000
    58 C27     19.1900  -0.2930   5.6462   C.1       1 RES1   0.0000
    59 C28     20.2106  -0.4717   4.6301   C.3       1 RES1   0.0000
    60 H32     20.3560  -1.4103   4.4852   H         1 RES1   0.0000
    61 H33     21.0290  -0.0629   4.9218   H         1 RES1   0.0000
    62 H34     19.9229  -0.0612   3.8124   H         1 RES1   0.0000
    63 C29     19.4403  -0.3906  10.0223   C.1       1 RES1   0.0000
    64 C30     20.6123  -0.6720  10.8499   C.3       1 RES1   0.0000
    65 H35     20.9885  -1.5178  10.5938   H         1 RES1   0.0000
    66 H36     20.3530  -0.7018  11.7727   H         1 RES1   0.0000
    67 H37     21.2673   0.0199  10.7228   H         1 RES1   0.0000
    68 C31     14.9006   0.7713  11.9033   C.ar      1 RES1   0.0000
    69 C32     14.2022  -0.2582  12.5209   C.ar      1 RES1   0.0000
    70 H38     14.2591  -1.1256  12.1895   H         1 RES1   0.0000
    71 C33     13.4153   0.0066  13.6363   C.ar      1 RES1   0.0000
    72 H39     12.9462  -0.6820  14.0491   H         1 RES1   0.0000
    73 C34     13.3284   1.3027  14.1332   C.ar      1 RES1   0.0000
    74 H40     12.8023   1.4798  14.8786   H         1 RES1   0.0000
    75 C35     14.0283   2.3322  13.5152   C.ar      1 RES1   0.0000
    76 H41     13.9698   3.1996  13.8486   H         1 RES1   0.0000
    77 C36     14.8136   2.0674  12.3998   C.ar      1 RES1   0.0000
    78 H42     15.2828   2.7560  11.9870   H         1 RES1   0.0000
    79 N1      16.4533  -1.9830   8.1446   N.ar      1 RES1   0.0000
    80 N2      15.1898  -0.0646   6.6000   N.3       1 RES1   0.0000
    81 N3      15.2363   0.8226   9.3118   N.3       1 RES1   0.0000
    82 N4      17.2866   2.2511   8.1286   N.ar      1 RES1   0.0000
    83 N5      18.5590  -0.1771   9.3642   N.1       1 RES1   0.0000
    84 N6      18.3747  -0.1357   6.4216   N.1       1 RES1   0.0000
    85 Fe1     16.9258   0.1410   7.9815   Fe        1 RES1   2.0000
    86 F1       3.4426  13.0416   4.2748   F         2 RES2  -1.0000
    87 F2       2.9615  11.6363   2.1255   F         2 RES2   0.0000
    88 F3       1.8285  13.7649   1.0062   F         2 RES2   0.0000
    89 F4       2.3860  15.1271   3.2250   F         2 RES2   0.0000
    90 F5       4.2969  13.9354   1.9151   F         2 RES2   0.0000
    91 F6       1.0326  12.8264   3.2746   F         2 RES2   0.0000
    92 Sb1      2.6876  13.3832   2.6188   Sb        2 RES2   0.0000
    93 F7       4.8679   2.0277   2.3537   F         3 RES3  -1.0000
    94 F8       5.4090   4.5833   2.8499   F         3 RES3   0.0000
    95 F9       3.2868   4.7422   4.3245   F         3 RES3   0.0000
    96 F10      2.7697   2.2428   3.8462   F         3 RES3   0.0000
    97 F11      3.1759   3.8815   1.8377   F         3 RES3   0.0000
    98 F12      5.0778   2.8553   4.8643   F         3 RES3   0.0000
    99 Sb2      4.1129   3.3803   3.3459   Sb        3 RES3   0.0000
@<TRIPOS>BOND
     1     1     2    1
     2     3     1   ar
     3     4     3    1
     4     5     3   ar
     5     6     5    1
     6     7     5   ar
     7     8     7    1
     8     9     7   ar
     9    10     9    1
    10    11    10    1
    11    12    10    1
    12    13    14    1
    13    15    13    1
    14    16    17    1
    15    18    16    1
    16    19    18    1
    17    20    18    1
    18    21    18    1
    19    22    21    1
    20    23    21    1
    21    24    21    1
    22    25    24    1
    23    26    24    1
    24    27    24    1
    25    28    27    1
    26    29    27    1
    27    30    16    1
    28    31    30    1
    29    32    33    1
    30    34    32    1
    31    35    32    1
    32    36    35   ar
    33    37    36    1
    34    38    36   ar
    35    39    38    1
    36    40    38   ar
    37    41    40    1
    38    42    40   ar
    39    43    42    1
    40    44    35   ar
    41    45    44    1
    42    46    47    1
    43    48    46    1
    44    49    46    1
    45    50    49   ar
    46    51    50    1
    47    52    50   ar
    48    53    52    1
    49    54    52   ar
    50    55    54    1
    51    56    54   ar
    52    57    56    1
    53    58    59    1
    54    59    60    1
    55    61    59    1
    56    62    59    1
    57    63    64    1
    58    64    65    1
    59    66    64    1
    60    67    64    1
    61    68    13    1
    62    69    68   ar
    63    70    69    1
    64    71    69   ar
    65    72    71    1
    66    73    71   ar
    67    74    73    1
    68    75    73   ar
    69    76    75    1
    70    77    68   ar
    71    78    77    1
    72    79    49   ar
    73    80    30    1
    74    81    10    1
    75    82     1   ar
    76    83    63    3
    77    84    58    3
    78    85    79    1
    79     9    82   ar
    80    13    81    1
    81    16    81    1
    82    27    30    1
    83    32    80    1
    84    42    44   ar
    85    46    80    1
    86    56    79   ar
    87    75    77   ar
    88    80    85    1
    89    81    85    1
    90    82    85    1
    91    83    85    1
    92    84    85    1
    93    86    92    1
    94    87    92    1
    95    88    92    1
    96    89    92    1
    97    90    92    1
    98    91    92    1
    99    93    99    1
   100    94    99    1
   101    95    99    1
   102    96    99    1
   103    97    99    1
   104    98    99    1
@<TRIPOS>SUBSTRUCTURE
     1 RES1        1 GROUP             0 ****  ****    0  
     2 RES2       86 GROUP             0 ****  ****    0  
     3 RES3       93 GROUP             0 ****  ****    0  
@<TRIPOS>CRYSIN
   14.9875   16.5523   19.8461   90.0000   90.0000   90.0000    19     1
