@<TRIPOS>MOLECULE
BAYKOD
    81    87     2     0     0
SMALL
NO_CHARGES
****
Generated from the CSD

@<TRIPOS>ATOM
     1 Fe1      7.4940   7.0627   4.3970   Fe        1 RES1   0.0000
     2 Cl1      7.8099   8.1375   2.1946   Cl        1 RES1   0.0000
     3 Cl2      8.7312   8.6705   5.6044   Cl        1 RES1   0.0000
     4 N1       6.5915   4.9773   3.8878   N.3       1 RES1   0.0000
     5 C1       4.8364   3.2871   4.6571   C.3       1 RES1   0.0000
     6 H1       4.5916   3.1052   3.7354   H         1 RES1   0.0000
     7 H2       5.5234   2.6537   4.9152   H         1 RES1   0.0000
     8 C2       5.7563   4.9732   6.2433   C.3       1 RES1   0.0000
     9 H3       6.3570   4.2406   6.4963   H         1 RES1   0.0000
    10 N2       6.5413   6.2310   6.4826   N.3       1 RES1   0.0000
    11 N3       5.4197   7.8574   4.4631   N.ar      1 RES1   0.0000
    12 C3       5.4014   4.7167   4.7586   C.3       1 RES1   0.0000
    13 H4       4.6929   5.3433   4.5028   H         1 RES1   0.0000
    14 C4       7.6552   3.9705   4.0925   C.3       1 RES1   0.0000
    15 H5       7.4530   3.1805   3.5671   H         1 RES1   0.0000
    16 H6       7.6730   3.7105   5.0262   H         1 RES1   0.0000
    17 C5       6.2675   5.1557   2.4345   C.3       1 RES1   0.0000
    18 H7       7.0770   5.4578   1.9934   H         1 RES1   0.0000
    19 H8       5.6246   5.8799   2.3688   H         1 RES1   0.0000
    20 C6       2.7354   8.5251   4.7135   C.ar      1 RES1   0.0000
    21 H9       1.8346   8.7414   4.7950   H         1 RES1   0.0000
    22 N4       9.1919   5.8102   3.8489   N.ar      1 RES1   0.0000
    23 C7       3.4688   8.1339   5.8239   C.ar      1 RES1   0.0000
    24 H10      3.0690   8.0886   6.6627   H         1 RES1   0.0000
    25 C8       4.8168   7.8091   5.6621   C.ar      1 RES1   0.0000
    26 C9       8.4788   4.9770   7.5420   C.ar      1 RES1   0.0000
    27 C10      9.0067   4.4914   3.6999   C.ar      1 RES1   0.0000
    28 C11     10.0222   3.6348   3.2838   C.ar      1 RES1   0.0000
    29 H11      9.8599   2.7256   3.1732   H         1 RES1   0.0000
    30 C12      4.7032   8.2541   3.3972   C.ar      1 RES1   0.0000
    31 H12      5.1247   8.3062   2.5704   H         1 RES1   0.0000
    32 C13      4.5138   4.8034   7.1331   C.3       1 RES1   0.0000
    33 H13      4.7518   4.9703   8.0589   H         1 RES1   0.0000
    34 H14      3.8386   5.4496   6.8735   H         1 RES1   0.0000
    35 C14      5.7234   3.9993   1.6295   C.ar      1 RES1   0.0000
    36 C15      9.7018   5.3055   6.9693   C.ar      1 RES1   0.0000
    37 H15      9.8692   6.1810   6.7034   H         1 RES1   0.0000
    38 C16     11.2761   4.1624   3.0381   C.ar      1 RES1   0.0000
    39 H16     11.9786   3.6107   2.7794   H         1 RES1   0.0000
    40 C17      6.5574   3.0092   1.1101   C.ar      1 RES1   0.0000
    41 H17      7.4716   3.0398   1.2797   H         1 RES1   0.0000
    42 C18      4.3664   3.9573   1.3087   C.ar      1 RES1   0.0000
    43 H18      3.7983   4.6251   1.6181   H         1 RES1   0.0000
    44 C19     10.6749   4.3308   6.7947   C.ar      1 RES1   0.0000
    45 H19     11.4858   4.5596   6.4020   H         1 RES1   0.0000
    46 C20      3.6169   3.0936   5.5467   C.3       1 RES1   0.0000
    47 H20      2.9048   3.6811   5.2499   H         1 RES1   0.0000
    48 H21      3.3035   2.1792   5.4700   H         1 RES1   0.0000
    49 C21      7.4231   6.0447   7.6905   C.3       1 RES1   0.0000
    50 H22      6.8642   5.8227   8.4509   H         1 RES1   0.0000
    51 H23      7.8621   6.8877   7.8869   H         1 RES1   0.0000
    52 C22     11.4703   5.5231   3.1840   C.ar      1 RES1   0.0000
    53 H24     12.3060   5.8996   3.0253   H         1 RES1   0.0000
    54 C23      3.8572   2.9221   0.5292   C.ar      1 RES1   0.0000
    55 H25      2.9492   2.9023   0.3273   H         1 RES1   0.0000
    56 C24      5.6821   7.3982   6.8142   C.3       1 RES1   0.0000
    57 H26      6.2444   8.1442   7.0714   H         1 RES1   0.0000
    58 H27      5.1185   7.1740   7.5707   H         1 RES1   0.0000
    59 C25     10.4077   6.3136   3.5682   C.ar      1 RES1   0.0000
    60 H28     10.5365   7.2313   3.6355   H         1 RES1   0.0000
    61 C26      3.3655   8.5887   3.4835   C.ar      1 RES1   0.0000
    62 H29      2.8944   8.8526   2.7257   H         1 RES1   0.0000
    63 C27      3.9471   3.3936   6.9991   C.3       1 RES1   0.0000
    64 H30      4.5968   2.7502   7.3247   H         1 RES1   0.0000
    65 H31      3.1455   3.3130   7.5392   H         1 RES1   0.0000
    66 C28      8.2732   3.6705   7.9923   C.ar      1 RES1   0.0000
    67 H32      7.4788   3.4471   8.4195   H         1 RES1   0.0000
    68 C29      9.2484   2.7099   7.8027   C.ar      1 RES1   0.0000
    69 H33      9.0944   1.8373   8.0866   H         1 RES1   0.0000
    70 C30      6.0306   1.9706   0.3373   C.ar      1 RES1   0.0000
    71 H34      6.5915   1.3039   0.0129   H         1 RES1   0.0000
    72 C31      4.6774   1.9309   0.0551   C.ar      1 RES1   0.0000
    73 H35      4.3262   1.2368  -0.4531   H         1 RES1   0.0000
    74 C32     10.4580   3.0309   7.1932   C.ar      1 RES1   0.0000
    75 H36     11.1067   2.3788   7.0584   H         1 RES1   0.0000
    76 C33      5.5038   7.2200  -0.4194   C.3       2 RES2   0.0000
    77 H37      6.1670   7.4800   0.2238   H         2 RES2   0.0000
    78 H38      5.8560   7.3295  -1.3055   H         2 RES2   0.0000
    79 H39      5.2662   6.3004  -0.2811   H         2 RES2   0.0000
    80 C34      4.3293   8.0493  -0.2626   C.1       2 RES2   0.0000
    81 N5       3.4047   8.7070  -0.1328   N.1       2 RES2   0.0000
@<TRIPOS>BOND
     1     1     2    1
     2     3     1    1
     3     4     1    1
     4     5     6    1
     5     7     5    1
     6     8     9    1
     7    10     1    1
     8    11     1    1
     9    12     4    1
    10    13    12    1
    11    14     4    1
    12    15    14    1
    13    16    14    1
    14    17     4    1
    15    18    17    1
    16    19    17    1
    17    20    21    1
    18    22     1    1
    19    23    20   ar
    20    24    23    1
    21    25    11   ar
    22    26    36   ar
    23    27    14    1
    24    28    27   ar
    25    29    28    1
    26    30    11   ar
    27    31    30    1
    28    32     8    1
    29    33    32    1
    30    34    32    1
    31    35    17    1
    32    36    37    1
    33    38    28   ar
    34    39    38    1
    35    40    35   ar
    36    41    40    1
    37    42    35   ar
    38    43    42    1
    39    44    36   ar
    40    45    44    1
    41    46     5    1
    42    47    46    1
    43    48    46    1
    44    49    10    1
    45    50    49    1
    46    51    49    1
    47    52    38   ar
    48    53    52    1
    49    54    42   ar
    50    55    54    1
    51    56    10    1
    52    57    56    1
    53    58    56    1
    54    59    22   ar
    55    60    59    1
    56    61    20   ar
    57    62    61    1
    58    63    32    1
    59    64    63    1
    60    65    63    1
    61    66    26   ar
    62    67    66    1
    63    68    66   ar
    64    69    68    1
    65    70    40   ar
    66    71    70    1
    67    72    54   ar
    68    73    72    1
    69    74    44   ar
    70    75    74    1
    71     5    12    1
    72     8    10    1
    73     8    12    1
    74    22    27   ar
    75    23    25   ar
    76    25    56    1
    77    26    49    1
    78    30    61   ar
    79    46    63    1
    80    52    59   ar
    81    68    74   ar
    82    70    72   ar
    83    76    77    1
    84    78    76    1
    85    79    76    1
    86    80    76    1
    87    81    80    3
@<TRIPOS>SUBSTRUCTURE
     1 RES1        1 GROUP             0 ****  ****    0  
     2 RES2       76 GROUP             0 ****  ****    0  
@<TRIPOS>CRYSIN
   10.3299   16.3604   18.4921   90.0000   90.0000   90.0000    19     1
