@<TRIPOS>MOLECULE
BAZKUK
    81    83     4     0     0
SMALL
USER_CHARGES
****
Generated from the CSD

@<TRIPOS>ATOM
     1 Fe1      2.2200  -1.3368   3.5659   Fe        1 RES1   1.0000
     2 O1       3.4070  -0.0080   2.8668   O.3       1 RES1   0.0000
     3 O2       4.9241   1.3277   1.2297   O.3       1 RES1   0.0000
     4 O3       0.8720  -2.2634   4.8698   O.2       1 RES1   0.0000
     5 O4      -2.0408  -1.4249   8.2763   O.3       1 RES1   0.0000
     6 O5       3.4776  -2.7444   3.7571   O.3       1 RES1   0.0000
     7 O6       5.4586  -4.1872   4.6394   O.3       1 RES1   0.0000
     8 O7       0.5573  -0.2798   2.9314   O.2       1 RES1   0.0000
     9 O8      -2.8862   0.2341  -0.0106   O.3       1 RES1   0.0000
    10 N1       2.2646  -0.1749   5.3371   N.2       1 RES1   0.0000
    11 N2       1.3242  -0.5723   6.2665   N.am      1 RES1   0.0000
    12 N3      -0.9078  -1.0827   7.5646   N.2       1 RES1   0.0000
    13 N4       1.5121  -2.3894   1.8745   N.2       1 RES1   0.0000
    14 N5       0.3643  -1.8358   1.3233   N.am      1 RES1   0.0000
    15 N6      -1.7778  -0.5044   0.3771   N.2       1 RES1   0.0000
    16 C1       4.0603   1.0251   3.3728   C.ar      1 RES1   0.0000
    17 C2       4.9000   1.7769   2.5177   C.ar      1 RES1   0.0000
    18 C3       5.6059   2.8644   2.9883   C.ar      1 RES1   0.0000
    19 H1       6.1869   3.3416   2.4082   H         1 RES1   0.0000
    20 C4       5.4656   3.2652   4.3282   C.ar      1 RES1   0.0000
    21 H2       5.9558   4.0125   4.6516   H         1 RES1   0.0000
    22 C5       4.6320   2.5885   5.1650   C.ar      1 RES1   0.0000
    23 H3       4.5317   2.8774   6.0646   H         1 RES1   0.0000
    24 C6       3.9166   1.4654   4.7096   C.ar      1 RES1   0.0000
    25 C7       2.9850   0.8633   5.6221   C.2       1 RES1   0.0000
    26 H4       2.8912   1.2490   6.4848   H         1 RES1   0.0000
    27 C8       0.5965  -1.6369   5.9162   C.2       1 RES1   0.0000
    28 C9      -0.5574  -2.0146   6.7545   C.2       1 RES1   0.0000
    29 C10     -1.2579  -3.3122   6.5326   C.3       1 RES1   0.0000
    30 H5      -1.1682  -3.8728   7.3316   H         1 RES1   0.0000
    31 H6      -0.8584  -3.7715   5.7639   H         1 RES1   0.0000
    32 H7      -2.2069  -3.1437   6.3552   H         1 RES1   0.0000
    33 C11      5.6187   2.1279   0.2718   C.3       1 RES1   0.0000
    34 H8       5.2195   3.0229   0.2441   H         1 RES1   0.0000
    35 H9       5.5506   1.7116  -0.6127   H         1 RES1   0.0000
    36 H10      6.5610   2.1991   0.5284   H         1 RES1   0.0000
    37 C12      3.8108  -3.7872   3.0179   C.ar      1 RES1   0.0000
    38 C13      4.9007  -4.5891   3.4543   C.ar      1 RES1   0.0000
    39 C14      5.3368  -5.6613   2.6989   C.ar      1 RES1   0.0000
    40 H11      6.0776  -6.1778   2.9945   H         1 RES1   0.0000
    41 C15      4.6948  -5.9881   1.5073   C.ar      1 RES1   0.0000
    42 H12      5.0107  -6.7177   0.9864   H         1 RES1   0.0000
    43 C16      3.5990  -5.2594   1.0770   C.ar      1 RES1   0.0000
    44 H13      3.1506  -5.5047   0.2768   H         1 RES1   0.0000
    45 C17      3.1505  -4.1548   1.8238   C.ar      1 RES1   0.0000
    46 C18      1.9843  -3.4587   1.3363   C.2       1 RES1   0.0000
    47 H14      1.5400  -3.8095   0.5737   H         1 RES1   0.0000
    48 C19     -0.0600  -0.7334   1.9431   C.2       1 RES1   0.0000
    49 C20     -1.2703  -0.0235   1.4522   C.2       1 RES1   0.0000
    50 C21     -1.7842   1.1641   2.1994   C.3       1 RES1   0.0000
    51 H15     -1.6931   1.9656   1.6420   H         1 RES1   0.0000
    52 H16     -1.2683   1.2800   3.0247   H         1 RES1   0.0000
    53 H17     -2.7291   1.0270   2.4208   H         1 RES1   0.0000
    54 C22      6.5011  -4.9857   5.1863   C.3       1 RES1   0.0000
    55 H18      6.1624  -5.8861   5.3675   H         1 RES1   0.0000
    56 H19      6.8187  -4.5814   6.0205   H         1 RES1   0.0000
    57 H20      7.2417  -5.0383   4.5459   H         1 RES1   0.0000
    58 H27      1.1691  -0.0814   6.9202   H         1 RES1   0.0000
    59 H28     -2.1326  -0.7702   8.7320   H         1 RES1   0.0000
    60 H29     -0.0123  -2.2316   0.6643   H         1 RES1   0.0000
    61 H30     -3.1604  -0.1442  -0.6920   H         1 RES1   0.0000
    62 S1      -2.0197   5.6696   2.7117   S.o2      2 RES2   0.0000
    63 F1      -1.7494   3.6527   4.3559   F         2 RES2   0.0000
    64 F2      -0.0914   5.0388   4.3635   F         2 RES2   0.0000
    65 F3      -1.9246   5.5407   5.3119   F         2 RES2   0.0000
    66 O9      -1.3908   4.8746   1.7061   O.3       2 RES2  -1.0000
    67 O10     -1.5613   7.0292   2.7857   O.2       2 RES2   0.0000
    68 O11     -3.4438   5.5131   2.7920   O.2       2 RES2   0.0000
    69 C23     -1.4200   4.9354   4.2666   C.3       2 RES2   0.0000
    70 O12     -3.4888   8.9502   2.9191   O.3       3 RES3   0.0000
    71 C24     -4.3644   8.7007   1.8533   C.3       3 RES3   0.0000
    72 H21     -5.1746   9.2413   1.9641   H         3 RES3   0.0000
    73 H22     -4.6049   7.7514   1.8433   H         3 RES3   0.0000
    74 H23     -3.9279   8.9365   1.0091   H         3 RES3   0.0000
    75 H31     -2.9150   8.4183   3.0323   H         3 RES3   0.0000
    76 O13      0.6888   3.3319   0.8165   O.3       4 RES4   0.0000
    77 C25      1.5690   2.9543   1.8609   C.3       4 RES4   0.0000
    78 H24      1.8531   3.7521   2.3541   H         4 RES4   0.0000
    79 H25      2.3545   2.5081   1.4809   H         4 RES4   0.0000
    80 H26      1.1078   2.3407   2.4711   H         4 RES4   0.0000
    81 H32      0.1706   3.9002   1.1450   H         4 RES4   0.0000
@<TRIPOS>BOND
     1     1     2    1
     2     2    16    1
     3     3    17    1
     4     4     1    1
     5     5    12    1
     6     6     1    1
     7     7    38    1
     8     8     1    1
     9     9    15    1
    10    10     1    1
    11    11    10    1
    12    12    28    2
    13    13     1    1
    14    14    13    1
    15    15    49    2
    16    16    17   ar
    17    17    18   ar
    18    18    19    1
    19    20    18   ar
    20    21    20    1
    21    22    20   ar
    22    23    22    1
    23    24    16   ar
    24    25    10    2
    25    26    25    1
    26    27     4    2
    27    28    27    1
    28    29    28    1
    29    30    29    1
    30    31    29    1
    31    32    29    1
    32    33     3    1
    33    34    33    1
    34    35    33    1
    35    36    33    1
    36    37     6    1
    37    38    37   ar
    38    39    38   ar
    39    40    39    1
    40    41    39   ar
    41    42    41    1
    42    43    41   ar
    43    44    43    1
    44    45    37   ar
    45    46    13    2
    46    47    46    1
    47    48     8    2
    48    49    48    1
    49    50    49    1
    50    51    50    1
    51    52    50    1
    52    53    50    1
    53    54     7    1
    54    55    54    1
    55    56    54    1
    56    57    54    1
    57    58    11    1
    58    59     5    1
    59    60    14    1
    60    61     9    1
    61    11    27   am
    62    14    48   am
    63    22    24   ar
    64    24    25    1
    65    43    45   ar
    66    45    46    1
    67    62    66    1
    68    63    69    1
    69    64    69    1
    70    65    69    1
    71    67    62    2
    72    68    62    2
    73    69    62    1
    74    70    71    1
    75    71    72    1
    76    73    71    1
    77    74    71    1
    78    75    70    1
    79    76    77    1
    80    77    78    1
    81    79    77    1
    82    80    77    1
    83    81    76    1
@<TRIPOS>SUBSTRUCTURE
     1 RES1        1 GROUP             0 ****  ****    0  
     2 RES2       62 GROUP             0 ****  ****    0  
     3 RES3       70 GROUP             0 ****  ****    0  
     4 RES4       76 GROUP             0 ****  ****    0  
@<TRIPOS>CRYSIN
   10.9360   12.1660   13.6130   98.0010  109.7120   96.5380     2     1
