@<TRIPOS>MOLECULE
BAZYUZ
    78    85     1     0     0
SMALL
USER_CHARGES
****
Generated from the CSD

@<TRIPOS>ATOM
     1 Fe1      1.8153  12.9170   9.9726   Fe        1 RES1   0.0000
     2 O1       0.9621  13.9530   8.5451   O.3       1 RES1   0.0000
     3 O2       0.2542  11.8427  10.0902   O.3       1 RES1   0.0000
     4 N1       2.8389  12.0311   8.2616   N.2       1 RES1   0.0000
     5 N2       3.8895  13.5989  10.2069   N.3       1 RES1   0.0000
     6 H1       3.8885  14.5985  10.2344   H         1 RES1   0.0000
     7 N3       2.7011  11.3056  11.1835   N.2       1 RES1   0.0000
     8 N4       1.4891  14.2867  11.4219   N.2       1 RES1   0.0000
     9 N5       0.4806  14.5732  12.0004   N.1       1 RES1   1.0000
    10 N6      -0.4580  14.8992  12.5851   N.3       1 RES1  -1.0000
    11 C1       0.3211  13.2770   7.5907   C.ar      1 RES1   0.0000
    12 C2      -1.0186  13.6271   7.2803   C.ar      1 RES1   0.0000
    13 C3      -1.7092  12.9124   6.3164   C.ar      1 RES1   0.0000
    14 H2      -2.6071  13.1575   6.1259   H         1 RES1   0.0000
    15 C4      -1.1427  11.8444   5.6098   C.ar      1 RES1   0.0000
    16 C5       0.1720  11.5294   5.8866   C.ar      1 RES1   0.0000
    17 H3       0.5892  10.8282   5.4000   H         1 RES1   0.0000
    18 C6       0.9146  12.2145   6.8674   C.ar      1 RES1   0.0000
    19 C7       2.3120  11.8484   7.1003   C.2       1 RES1   0.0000
    20 C8       3.1213  11.3202   5.9527   C.ar      1 RES1   0.0000
    21 C9       3.8218  12.2136   5.1458   C.ar      1 RES1   0.0000
    22 H4       3.7300  13.1497   5.2796   H         1 RES1   0.0000
    23 C10      4.6548  11.7312   4.1451   C.ar      1 RES1   0.0000
    24 H5       5.1341  12.3390   3.5943   H         1 RES1   0.0000
    25 C11      4.7894  10.3639   3.9468   C.ar      1 RES1   0.0000
    26 H6       5.3722  10.0382   3.2709   H         1 RES1   0.0000
    27 C12      4.0784   9.4765   4.7295   C.ar      1 RES1   0.0000
    28 H7       4.1584   8.5416   4.5805   H         1 RES1   0.0000
    29 C13      3.2440   9.9523   5.7371   C.ar      1 RES1   0.0000
    30 H8       2.7576   9.3414   6.2783   H         1 RES1   0.0000
    31 C14      4.2791  11.8677   8.4763   C.3       1 RES1   0.0000
    32 H9       4.7402  11.6996   7.6166   H         1 RES1   0.0000
    33 H10      4.4541  11.1057   9.0838   H         1 RES1   0.0000
    34 C15      4.7700  13.1681   9.0985   C.3       1 RES1   0.0000
    35 H11      5.6905  13.0415   9.4402   H         1 RES1   0.0000
    36 H12      4.7953  13.8745   8.4055   H         1 RES1   0.0000
    37 C16      4.3162  13.1006  11.5332   C.3       1 RES1   0.0000
    38 H13      3.8219  13.5860  12.2403   H         1 RES1   0.0000
    39 H14      5.2818  13.2816  11.6562   H         1 RES1   0.0000
    40 C17      4.0624  11.6130  11.6742   C.3       1 RES1   0.0000
    41 H15      4.7317  11.1063  11.1492   H         1 RES1   0.0000
    42 H16      4.1459  11.3461  12.6239   H         1 RES1   0.0000
    43 C18      2.2655  10.0847  11.3001   C.2       1 RES1   0.0000
    44 C19      3.2147   9.0081  11.7554   C.ar      1 RES1   0.0000
    45 C20      3.4708   8.7540  13.0969   C.ar      1 RES1   0.0000
    46 H17      2.9712   9.2023  13.7691   H         1 RES1   0.0000
    47 C21      4.4602   7.8418  13.4564   C.ar      1 RES1   0.0000
    48 H18      4.6452   7.6807  14.3743   H         1 RES1   0.0000
    49 C22      5.1749   7.1692  12.4795   C.ar      1 RES1   0.0000
    50 H19      5.8647   6.5650  12.7277   H         1 RES1   0.0000
    51 C23      4.8859   7.3757  11.1436   C.ar      1 RES1   0.0000
    52 H20      5.3519   6.8861  10.4760   H         1 RES1   0.0000
    53 C24      3.9162   8.2974  10.7767   C.ar      1 RES1   0.0000
    54 H21      3.7281   8.4461   9.8575   H         1 RES1   0.0000
    55 C25      0.8853   9.7036  10.9991   C.ar      1 RES1   0.0000
    56 C26      0.4423   8.4061  11.3445   C.ar      1 RES1   0.0000
    57 H22      1.0741   7.7853  11.6881   H         1 RES1   0.0000
    58 C27     -0.8680   8.0053  11.2031   C.ar      1 RES1   0.0000
    59 C28     -1.7757   8.9370  10.6773   C.ar      1 RES1   0.0000
    60 H23     -2.6844   8.6796  10.5744   H         1 RES1   0.0000
    61 C29     -1.4035  10.2097  10.3039   C.ar      1 RES1   0.0000
    62 C30     -0.0527  10.6215  10.4602   C.ar      1 RES1   0.0000
    63 C31     -1.6937  14.6857   8.0890   C.3       1 RES1   0.0000
    64 H24     -1.2628  15.5497   7.9209   H         1 RES1   0.0000
    65 H25     -1.6223  14.4648   9.0411   H         1 RES1   0.0000
    66 H26     -2.6390  14.7373   7.8356   H         1 RES1   0.0000
    67 C32     -1.9465  11.0708   4.5967   C.3       1 RES1   0.0000
    68 H27     -2.6390  10.5518   5.0565   H         1 RES1   0.0000
    69 H28     -1.3549  10.4633   4.1055   H         1 RES1   0.0000
    70 H29     -2.3683  11.6945   3.9693   H         1 RES1   0.0000
    71 C33     -1.3379   6.6391  11.6402   C.3       1 RES1   0.0000
    72 H30     -1.6006   6.6703  12.5837   H         1 RES1   0.0000
    73 H31     -0.6115   5.9915  11.5246   H         1 RES1   0.0000
    74 H32     -2.1065   6.3683  11.0958   H         1 RES1   0.0000
    75 C34     -2.3849  11.1962   9.7342   C.3       1 RES1   0.0000
    76 H33     -2.1458  11.3954   8.8050   H         1 RES1   0.0000
    77 H34     -2.3616  12.0218  10.2617   H         1 RES1   0.0000
    78 H35     -3.2869  10.8143   9.7648   H         1 RES1   0.0000
@<TRIPOS>BOND
     1     1     2    1
     2     2    11    1
     3     3     1    1
     4     4     1    1
     5     5     1    1
     6     6     5    1
     7     7     1    1
     8     8     1    1
     9     9     8    2
    10    10     9    2
    11    11    12   ar
    12    12    13   ar
    13    13    14    1
    14    15    13   ar
    15    16    15   ar
    16    17    16    1
    17    18    11   ar
    18    19     4    2
    19    20    19    1
    20    21    20   ar
    21    22    21    1
    22    23    21   ar
    23    24    23    1
    24    25    23   ar
    25    26    25    1
    26    27    25   ar
    27    28    27    1
    28    29    20   ar
    29    30    29    1
    30    31     4    1
    31    32    31    1
    32    33    31    1
    33    34     5    1
    34    35    34    1
    35    36    34    1
    36    37     5    1
    37    38    37    1
    38    39    37    1
    39    40     7    1
    40    41    40    1
    41    42    40    1
    42    43     7    2
    43    44    43    1
    44    45    44   ar
    45    46    45    1
    46    47    45   ar
    47    48    47    1
    48    49    47   ar
    49    50    49    1
    50    51    49   ar
    51    52    51    1
    52    53    44   ar
    53    54    53    1
    54    55    43    1
    55    56    55   ar
    56    57    56    1
    57    58    56   ar
    58    59    58   ar
    59    60    59    1
    60    61    59   ar
    61    62     3    1
    62    63    12    1
    63    64    63    1
    64    65    63    1
    65    66    63    1
    66    67    15    1
    67    68    67    1
    68    69    67    1
    69    70    67    1
    70    71    58    1
    71    72    71    1
    72    73    71    1
    73    74    71    1
    74    75    61    1
    75    76    75    1
    76    77    75    1
    77    78    75    1
    78    16    18   ar
    79    18    19    1
    80    27    29   ar
    81    31    34    1
    82    37    40    1
    83    51    53   ar
    84    55    62   ar
    85    61    62   ar
@<TRIPOS>SUBSTRUCTURE
     1 RES1        1 GROUP             0 ****  ****    0  
@<TRIPOS>CRYSIN
   10.2617   15.2514   19.5057   90.0000  105.1110   90.0000   231     1
