@<TRIPOS>MOLECULE
BAZZAG
    78    85     1     0     0
SMALL
NO_CHARGES
****
Generated from the CSD

@<TRIPOS>ATOM
     1 Fe1      1.9465  13.0693   9.9160   Fe        1 RES1   0.0000
     2 O1       1.1028  14.1030   8.4796   O.3       1 RES1   0.0000
     3 O2       0.4279  11.9309   9.9761   O.3       1 RES1   0.0000
     4 O3       0.1304  15.4485  12.9692   O.2       1 RES1   0.0000
     5 N1       2.9839  12.1915   8.2224   N.2       1 RES1   0.0000
     6 N2       4.0277  13.7667  10.1676   N.3       1 RES1   0.0000
     7 H1       4.0219  14.7665  10.1813   H         1 RES1   0.0000
     8 N3       2.8629  11.4658  11.1416   N.2       1 RES1   0.0000
     9 N4       1.5027  14.3952  11.3570   N.2       1 RES1   0.0000
    10 C1       0.4535  13.4173   7.5333   C.ar      1 RES1   0.0000
    11 C2      -0.8804  13.7725   7.2125   C.ar      1 RES1   0.0000
    12 C3      -1.5827  13.0407   6.2745   C.ar      1 RES1   0.0000
    13 H2      -2.4762  13.2946   6.0749   H         1 RES1   0.0000
    14 C4      -1.0329  11.9413   5.6061   C.ar      1 RES1   0.0000
    15 C5       0.2791  11.6227   5.8861   C.ar      1 RES1   0.0000
    16 H3       0.6857  10.9025   5.4186   H         1 RES1   0.0000
    17 C6       1.0397  12.3296   6.8437   C.ar      1 RES1   0.0000
    18 C7       2.4359  11.9640   7.0705   C.2       1 RES1   0.0000
    19 C8       3.2280  11.3877   5.9341   C.ar      1 RES1   0.0000
    20 C9       3.3377  10.0119   5.7684   C.ar      1 RES1   0.0000
    21 H4       2.8761   9.4243   6.3552   H         1 RES1   0.0000
    22 C10      4.1213   9.4972   4.7458   C.ar      1 RES1   0.0000
    23 H5       4.1916   8.5567   4.6317   H         1 RES1   0.0000
    24 C11      4.7965  10.3419   3.8967   C.ar      1 RES1   0.0000
    25 H6       5.3428   9.9848   3.2064   H         1 RES1   0.0000
    26 C12      4.6800  11.7115   4.0479   C.ar      1 RES1   0.0000
    27 H7       5.1399  12.2944   3.4553   H         1 RES1   0.0000
    28 C13      3.8960  12.2347   5.0595   C.ar      1 RES1   0.0000
    29 H8       3.8141  13.1762   5.1566   H         1 RES1   0.0000
    30 C14      4.4198  12.0309   8.4350   C.3       1 RES1   0.0000
    31 H9       4.8803  11.8721   7.5731   H         1 RES1   0.0000
    32 H10      4.5960  11.2623   9.0335   H         1 RES1   0.0000
    33 C15      4.9169  13.3262   9.0727   C.3       1 RES1   0.0000
    34 H11      5.8303  13.1868   9.4283   H         1 RES1   0.0000
    35 H12      4.9626  14.0346   8.3826   H         1 RES1   0.0000
    36 C16      4.4332  13.2905  11.5050   C.3       1 RES1   0.0000
    37 H13      3.9082  13.7665  12.1962   H         1 RES1   0.0000
    38 H14      5.3903  13.4975  11.6510   H         1 RES1   0.0000
    39 C17      4.2147  11.8009  11.6458   C.3       1 RES1   0.0000
    40 H15      4.8996  11.3090  11.1272   H         1 RES1   0.0000
    41 H16      4.2951  11.5367  12.5965   H         1 RES1   0.0000
    42 C18      2.4524  10.2418  11.2591   C.2       1 RES1   0.0000
    43 C19      3.4146   9.1758  11.7170   C.ar      1 RES1   0.0000
    44 C20      4.0980   8.4359  10.7550   C.ar      1 RES1   0.0000
    45 H17      3.9046   8.5676   9.8343   H         1 RES1   0.0000
    46 C21      5.0565   7.5104  11.1290   C.ar      1 RES1   0.0000
    47 H18      5.5106   7.0028  10.4664   H         1 RES1   0.0000
    48 C22      5.3544   7.3237  12.4695   C.ar      1 RES1   0.0000
    49 H19      6.0350   6.7127  12.7262   H         1 RES1   0.0000
    50 C23      4.6606   8.0267  13.4277   C.ar      1 RES1   0.0000
    51 H20      4.8515   7.8830  14.3471   H         1 RES1   0.0000
    52 C24      3.6841   8.9442  13.0632   C.ar      1 RES1   0.0000
    53 H21      3.2001   9.4139  13.7322   H         1 RES1   0.0000
    54 C25      1.0832   9.8297  10.9546   C.ar      1 RES1   0.0000
    55 C26      0.6508   8.5405  11.3285   C.ar      1 RES1   0.0000
    56 H22      1.2876   7.9362  11.6916   H         1 RES1   0.0000
    57 C27     -0.6508   8.1182  11.1916   C.ar      1 RES1   0.0000
    58 C28     -1.5695   9.0235  10.6396   C.ar      1 RES1   0.0000
    59 H23     -2.4750   8.7531  10.5430   H         1 RES1   0.0000
    60 C29     -1.2092  10.2904  10.2316   C.ar      1 RES1   0.0000
    61 C30      0.1354  10.7170  10.3796   C.ar      1 RES1   0.0000
    62 C31     -1.5415  14.8723   7.9837   C.3       1 RES1   0.0000
    63 H24     -1.5217  14.6583   8.9398   H         1 RES1   0.0000
    64 H25     -2.4714  14.9647   7.6888   H         1 RES1   0.0000
    65 H26     -1.0640  15.7136   7.8272   H         1 RES1   0.0000
    66 C32     -1.8488  11.1570   4.6108   C.3       1 RES1   0.0000
    67 H27     -2.5665  10.6818   5.0790   H         1 RES1   0.0000
    68 H28     -1.2723  10.5096   4.1537   H         1 RES1   0.0000
    69 H29     -2.2379  11.7698   3.9524   H         1 RES1   0.0000
    70 C33     -2.2040  11.2533   9.6434   C.3       1 RES1   0.0000
    71 H30     -2.1970  12.0862  10.1599   H         1 RES1   0.0000
    72 H31     -3.0998  10.8571   9.6747   H         1 RES1   0.0000
    73 H32     -1.9633  11.4439   8.7128   H         1 RES1   0.0000
    74 C34     -1.1054   6.7615  11.6669   C.3       1 RES1   0.0000
    75 H33     -0.3705   6.1199  11.5746   H         1 RES1   0.0000
    76 H34     -1.8678   6.4649  11.1272   H         1 RES1   0.0000
    77 H35     -1.3736   6.8179  12.6078   H         1 RES1   0.0000
    78 C35      0.7964  14.8845  12.1364   C.1       1 RES1   0.0000
@<TRIPOS>BOND
     1     1     2    1
     2     2    10    1
     3     3     1    1
     4     4    78    2
     5     5     1    1
     6     6     1    1
     7     7     6    1
     8     8     1    1
     9     9     1    1
    10    10    11   ar
    11    11    12   ar
    12    12    13    1
    13    14    12   ar
    14    15    14   ar
    15    16    15    1
    16    17    10   ar
    17    18     5    2
    18    19    18    1
    19    20    19   ar
    20    21    20    1
    21    22    20   ar
    22    23    22    1
    23    24    22   ar
    24    25    24    1
    25    26    24   ar
    26    27    26    1
    27    28    19   ar
    28    29    28    1
    29    30     5    1
    30    31    30    1
    31    32    30    1
    32    33     6    1
    33    34    33    1
    34    35    33    1
    35    36     6    1
    36    37    36    1
    37    38    36    1
    38    39     8    1
    39    40    39    1
    40    41    39    1
    41    42     8    2
    42    43    42    1
    43    44    43   ar
    44    45    44    1
    45    46    44   ar
    46    47    46    1
    47    48    46   ar
    48    49    48    1
    49    50    48   ar
    50    51    50    1
    51    52    43   ar
    52    53    52    1
    53    54    42    1
    54    55    54   ar
    55    56    55    1
    56    57    55   ar
    57    58    57   ar
    58    59    58    1
    59    60    58   ar
    60    61     3    1
    61    62    11    1
    62    63    62    1
    63    64    62    1
    64    65    62    1
    65    66    14    1
    66    67    66    1
    67    68    66    1
    68    69    66    1
    69    70    60    1
    70    71    70    1
    71    72    70    1
    72    73    70    1
    73    74    57    1
    74    75    74    1
    75    76    74    1
    76    77    74    1
    77    78     9    2
    78    15    17   ar
    79    17    18    1
    80    26    28   ar
    81    30    33    1
    82    36    39    1
    83    50    52   ar
    84    54    61   ar
    85    60    61   ar
@<TRIPOS>SUBSTRUCTURE
     1 RES1        1 GROUP             0 ****  ****    0  
@<TRIPOS>CRYSIN
   10.1275   15.4288   19.3778   90.0000  103.6790   90.0000   231     1
