@<TRIPOS>MOLECULE
BECTOU
    93   103     3     0     0
SMALL
USER_CHARGES
****
Generated from the CSD

@<TRIPOS>ATOM
     1 Fe1     -1.7483   2.6398   3.5004   Fe        1 RES1   2.0000
     2 N1      -2.8225   3.9801   4.4684   N.ar      1 RES1   0.0000
     3 N2      -0.6323   2.7219   5.1199   N.ar      1 RES1   0.0000
     4 N3      -0.7001   1.1454   2.7238   N.ar      1 RES1   0.0000
     5 C1      -3.9197   4.6435   4.1025   C.ar      1 RES1   0.0000
     6 H1      -4.2164   4.5631   3.2246   H         1 RES1   0.0000
     7 C2      -4.6447   5.4549   4.9790   C.ar      1 RES1   0.0000
     8 H2      -5.4088   5.8958   4.6836   H         1 RES1   0.0000
     9 C3      -4.2279   5.5989   6.2756   C.ar      1 RES1   0.0000
    10 H3      -4.7126   6.1297   6.8679   H         1 RES1   0.0000
    11 C4      -3.0681   4.9398   6.7057   C.ar      1 RES1   0.0000
    12 C5      -2.5085   5.0428   8.0230   C.ar      1 RES1   0.0000
    13 H4      -2.9574   5.5324   8.6727   H         1 RES1   0.0000
    14 C6      -1.3459   4.4450   8.3338   C.ar      1 RES1   0.0000
    15 H5      -0.9922   4.5532   9.1865   H         1 RES1   0.0000
    16 C7      -0.6340   3.6437   7.3777   C.ar      1 RES1   0.0000
    17 C8       0.5858   3.0054   7.6267   C.ar      1 RES1   0.0000
    18 H6       0.9913   3.0740   8.4599   H         1 RES1   0.0000
    19 C9       1.1735   2.2808   6.6284   C.ar      1 RES1   0.0000
    20 H7       1.9989   1.8765   6.7712   H         1 RES1   0.0000
    21 C10      0.5389   2.1450   5.3963   C.ar      1 RES1   0.0000
    22 H8       0.9494   1.6314   4.7382   H         1 RES1   0.0000
    23 C11     -1.1972   3.4793   6.1057   C.ar      1 RES1   0.0000
    24 C12     -2.3974   4.1509   5.7627   C.ar      1 RES1   0.0000
    25 C13     -1.2066  -2.5185   3.1000   C.ar      1 RES1   0.0000
    26 H9      -0.8430  -3.3290   2.8242   H         1 RES1   0.0000
    27 C14     -0.6079  -1.2941   2.6659   C.ar      1 RES1   0.0000
    28 C15      0.5208  -1.2144   1.8412   C.ar      1 RES1   0.0000
    29 H10      0.9358  -1.9906   1.5402   H         1 RES1   0.0000
    30 C16      1.0115   0.0085   1.4800   C.ar      1 RES1   0.0000
    31 H11      1.7620   0.0676   0.9353   H         1 RES1   0.0000
    32 C17      0.3791   1.1672   1.9349   C.ar      1 RES1   0.0000
    33 H12      0.7248   1.9920   1.6774   H         1 RES1   0.0000
    34 C18     -1.1776  -0.0817   3.0830   C.ar      1 RES1   0.0000
    35 N1A     -0.6741   3.9801   2.5325   N.ar      1 RES1   0.0000
    36 N2A     -2.8643   2.7219   1.8810   N.ar      1 RES1   0.0000
    37 N3A     -2.7965   1.1454   4.2771   N.ar      1 RES1   0.0000
    38 C1A      0.4231   4.6435   2.8984   C.ar      1 RES1   0.0000
    39 H1A      0.7198   4.5631   3.7763   H         1 RES1   0.0000
    40 C2A      1.1481   5.4549   2.0219   C.ar      1 RES1   0.0000
    41 H2A      1.9122   5.8958   2.3173   H         1 RES1   0.0000
    42 C3A      0.7313   5.5989   0.7253   C.ar      1 RES1   0.0000
    43 H3A      1.2160   6.1297   0.1330   H         1 RES1   0.0000
    44 C4A     -0.4285   4.9398   0.2952   C.ar      1 RES1   0.0000
    45 C5A     -0.9881   5.0428  -1.0221   C.ar      1 RES1   0.0000
    46 H4A     -0.5392   5.5324  -1.6718   H         1 RES1   0.0000
    47 C6A     -2.1507   4.4450  -1.3330   C.ar      1 RES1   0.0000
    48 H5A     -2.5044   4.5532  -2.1857   H         1 RES1   0.0000
    49 C7A     -2.8626   3.6437  -0.3768   C.ar      1 RES1   0.0000
    50 C8A     -4.0824   3.0054  -0.6259   C.ar      1 RES1   0.0000
    51 H6A     -4.4879   3.0740  -1.4590   H         1 RES1   0.0000
    52 C9A     -4.6701   2.2808   0.3724   C.ar      1 RES1   0.0000
    53 H7A     -5.4955   1.8765   0.2296   H         1 RES1   0.0000
    54 C10A    -4.0355   2.1450   1.6046   C.ar      1 RES1   0.0000
    55 H8A     -4.4460   1.6314   2.2627   H         1 RES1   0.0000
    56 C11A    -2.2995   3.4793   0.8951   C.ar      1 RES1   0.0000
    57 C12A    -1.0993   4.1509   1.2382   C.ar      1 RES1   0.0000
    58 C13A    -2.2900  -2.5185   3.9009   C.ar      1 RES1   0.0000
    59 H9A     -2.6536  -3.3290   4.1767   H         1 RES1   0.0000
    60 C14A    -2.8887  -1.2941   4.3349   C.ar      1 RES1   0.0000
    61 C15A    -4.0174  -1.2144   5.1596   C.ar      1 RES1   0.0000
    62 H10A    -4.4324  -1.9906   5.4607   H         1 RES1   0.0000
    63 C16A    -4.5081   0.0085   5.5209   C.ar      1 RES1   0.0000
    64 H11A    -5.2586   0.0676   6.0656   H         1 RES1   0.0000
    65 C17A    -3.8757   1.1672   5.0660   C.ar      1 RES1   0.0000
    66 H12A    -4.2214   1.9920   5.3235   H         1 RES1   0.0000
    67 C18A    -2.3190  -0.0817   3.9178   C.ar      1 RES1   0.0000
    68 C19      7.7038   3.7716   1.0277   C.ar      2 RES2   0.0000
    69 C20      8.1449   2.4855   0.7351   C.ar      2 RES2   0.0000
    70 H13      8.9321   2.3893   0.2492   H         2 RES2   0.0000
    71 C21      7.4779   1.3447   1.1280   C.ar      2 RES2   0.0000
    72 C22      6.2957   1.4730   1.8530   C.ar      2 RES2   0.0000
    73 C23      5.8359   2.7493   2.1526   C.ar      2 RES2   0.0000
    74 H14      5.0415   2.8331   2.6281   H         2 RES2   0.0000
    75 C24      6.5131   3.9139   1.7736   C.ar      2 RES2   0.0000
    76 C25      8.6604   4.8322   0.4887   C.2       2 RES2   0.0000
    77 C26      8.1326   0.0289   0.7911   C.2       2 RES2   0.0000
    78 C27      5.5989   0.2329   2.3191   C.2       2 RES2   0.0000
    79 C28      5.8508   5.2051   2.2123   C.2       2 RES2   0.0000
    80 O1       8.3778   6.0974   0.6015   O.3       2 RES2   0.0000
    81 H15      7.6556   6.1832   0.9773   H         2 RES2   0.0000
    82 O3       9.6851   4.4862  -0.0504   O.2       2 RES2   0.0000
    83 O4       9.0071  -0.4428   1.4811   O.2       2 RES2   0.0000
    84 O5       7.8183  -0.5218  -0.3688   O.3       2 RES2   0.0000
    85 H17      7.2804  -0.0437  -0.7617   H         2 RES2   0.0000
    86 O6       6.0284  -0.8687   2.0486   O.2       2 RES2   0.0000
    87 O7       4.5369   0.4494   3.0620   O.3       2 RES2   0.0000
    88 H18      4.2077  -0.2677   3.2820   H         2 RES2   0.0000
    89 O8       4.9895   5.1482   3.0940   O.co2     2 RES2   0.0000
    90 O9       6.1773   6.3024   1.6427   O.co2     2 RES2  -1.0000
    91 O2      10.3272   1.1341   3.5004   O.3       3 RES3   0.0000
    92 H16     10.6824   0.6058   4.0465   H         3 RES3   0.0000
    93 H16A     9.9720   0.6058   2.9544   H         3 RES3   0.0000
@<TRIPOS>BOND
     1     1     2    1
     2     2     5   ar
     3     3     1    1
     4     4     1    1
     5     5     6    1
     6     7     5   ar
     7     8     7    1
     8     9     7   ar
     9    10     9    1
    10    11     9   ar
    11    12    11   ar
    12    13    12    1
    13    14    12   ar
    14    15    14    1
    15    16    14   ar
    16    17    16   ar
    17    18    17    1
    18    19    17   ar
    19    20    19    1
    20    21     3   ar
    21    22    21    1
    22    23     3   ar
    23    24     2   ar
    24    25    26    1
    25    27    25   ar
    26    28    27   ar
    27    29    28    1
    28    30    28   ar
    29    31    30    1
    30    32     4   ar
    31    33    32    1
    32    34     4   ar
    33    35     1    1
    34    36     1    1
    35    37     1    1
    36    38    35   ar
    37    39    38    1
    38    40    38   ar
    39    41    40    1
    40    42    40   ar
    41    43    42    1
    42    44    42   ar
    43    45    44   ar
    44    46    45    1
    45    47    45   ar
    46    48    47    1
    47    49    47   ar
    48    50    49   ar
    49    51    50    1
    50    52    50   ar
    51    53    52    1
    52    54    36   ar
    53    55    54    1
    54    56    36   ar
    55    57    35   ar
    56    58    25   ar
    57    59    58    1
    58    60    58   ar
    59    61    60   ar
    60    62    61    1
    61    63    61   ar
    62    64    63    1
    63    65    37   ar
    64    66    65    1
    65    67    34   ar
    66    11    24   ar
    67    16    23   ar
    68    19    21   ar
    69    23    24   ar
    70    27    34   ar
    71    30    32   ar
    72    37    67   ar
    73    44    57   ar
    74    49    56   ar
    75    52    54   ar
    76    56    57   ar
    77    60    67   ar
    78    63    65   ar
    79    68    69   ar
    80    69    70    1
    81    71    69   ar
    82    72    71   ar
    83    73    72   ar
    84    74    73    1
    85    75    68   ar
    86    76    68    1
    87    77    71    1
    88    78    72    1
    89    79    75    1
    90    80    76    1
    91    81    80    1
    92    82    76    2
    93    83    77    2
    94    84    77    1
    95    85    84    1
    96    86    78    2
    97    87    78    1
    98    88    87    1
    99    89    79    2
   100    90    79    1
   101    73    75   ar
   102    91    92    1
   103    93    91    1
@<TRIPOS>SUBSTRUCTURE
     1 RES1        1 GROUP             0 ****  ****    0  
     2 RES2       68 GROUP             0 ****  ****    0  
     3 RES3       91 GROUP             0 ****  ****    0  
@<TRIPOS>CRYSIN
   24.1510   14.0880   15.6510   90.0000  116.5400   90.0000    15     1
