@<TRIPOS>MOLECULE
BEFBEW
    83    92     3     0     0
SMALL
USER_CHARGES
****
Generated from the CSD

@<TRIPOS>ATOM
     1 I1       0.5146   1.6331   8.3290   I         1 RES1  -1.0000
     2 I2       7.5174   6.1159   5.9372   I         2 RES2  -1.0000
     3 Fe1     11.0643   4.5681   9.9492   Fe        3 RES3   2.0000
     4 N1       9.7534   3.4824   7.7087   N.pl3     3 RES3   0.0000
     5 N2      13.2445   6.3869  11.1202   N.pl3     3 RES3   0.0000
     6 N3       9.7377   3.4015   9.0714   N.2       3 RES3   0.0000
     7 N4      11.9812   2.4943  11.5877   N.pl3     3 RES3   0.0000
     8 N5      11.3994   4.9847   8.1269   N.ar      3 RES3   0.0000
     9 N6       9.0929   5.9401  11.4468   N.pl3     3 RES3   0.0000
    10 N7      13.2043   2.4076   9.7716   N.pl3     3 RES3   0.0000
    11 N8      12.8724   6.4197   8.9868   N.pl3     3 RES3   0.0000
    12 C1      12.4670   5.8168  10.1498   C.3       3 RES3   0.0000
    13 C2      10.9835   3.0856  12.3560   C.ar      3 RES3   0.0000
    14 N9      10.4873   4.1584  11.7170   N.ar      3 RES3   0.0000
    15 C3       9.4546   4.8307  12.2691   C.ar      3 RES3   0.0000
    16 C4      12.2556   5.9786   7.8332   C.ar      3 RES3   0.0000
    17 N10      9.6486   5.9555  10.1780   N.2       3 RES3   0.0000
    18 C5      12.1944   3.0875  10.3026   C.3       3 RES3   0.0000
    19 C6       8.9077   4.5533  13.4814   C.ar      3 RES3   0.0000
    20 H1       8.2333   5.0676  13.8597   H         3 RES3   0.0000
    21 C7      10.6970   4.3915   7.1566   C.ar      3 RES3   0.0000
    22 C8       9.0982   6.9706   9.6048   C.2       3 RES3   0.0000
    23 H2       9.2921   7.2421   8.7354   H         3 RES3   0.0000
    24 C9      13.8439   2.6927   8.4887   C.3       3 RES3   0.0000
    25 H3      14.7979   2.5444   8.5733   H         3 RES3   0.0000
    26 H4      13.7093   3.6307   8.2726   H         3 RES3   0.0000
    27 C10     13.1222   0.6395  12.9199   C.ar      3 RES3   0.0000
    28 H5      12.6365   0.7127  13.7093   H         3 RES3   0.0000
    29 C11     14.6476   8.2649   8.4018   C.ar      3 RES3   0.0000
    30 H6      14.4939   8.3362   7.4855   H         3 RES3   0.0000
    31 C12     13.6464   1.3560  10.6691   C.ar      3 RES3   0.0000
    32 C13     12.8811   1.4715  11.8109   C.ar      3 RES3   0.0000
    33 C14      8.1704   6.8800  11.5572   C.2       3 RES3   0.0000
    34 H7       7.6112   7.0168  12.2855   H         3 RES3   0.0000
    35 C15     15.1089   8.1089  11.1813   C.ar      3 RES3   0.0000
    36 H8      15.2731   8.0742  12.0952   H         3 RES3   0.0000
    37 C16      8.7662   2.7331   7.1284   C.2       3 RES3   0.0000
    38 H9       8.5705   2.6869   6.2215   H         3 RES3   0.0000
    39 C17     14.6109   0.4122  10.5023   C.ar      3 RES3   0.0000
    40 H10     15.1072   0.3255   9.7199   H         3 RES3   0.0000
    41 C18     15.8113   8.9795  10.3167   C.ar      3 RES3   0.0000
    42 H11     16.4578   9.5477  10.6714   H         3 RES3   0.0000
    43 C19     13.2096   5.9728  12.5440   C.3       3 RES3   0.0000
    44 H12     12.3482   5.5799  12.7531   H         3 RES3   0.0000
    45 H13     13.3389   6.7452  13.1173   H         3 RES3   0.0000
    46 C20      8.1896   7.6062  10.4294   C.2       3 RES3   0.0000
    47 H14      7.6951   8.3708  10.2415   H         3 RES3   0.0000
    48 C21     12.4460   6.3735   6.5011   C.ar      3 RES3   0.0000
    49 H15     13.0349   7.0630   6.2920   H         3 RES3   0.0000
    50 C22      9.4564   3.4053  14.1205   C.ar      3 RES3   0.0000
    51 H16      9.1139   3.1472  14.9452   H         3 RES3   0.0000
    52 C23     11.7349   5.7128   5.4908   C.ar      3 RES3   0.0000
    53 H17     11.8816   5.9305   4.5980   H         3 RES3   0.0000
    54 C24      8.1215   2.0686   8.1246   C.2       3 RES3   0.0000
    55 H18      7.4243   1.4581   8.0447   H         3 RES3   0.0000
    56 C25     14.1496   7.3018  10.5634   C.ar      3 RES3   0.0000
    57 C26     15.5702   9.0045   9.0197   C.ar      3 RES3   0.0000
    58 H19     16.0821   9.5785   8.4981   H         3 RES3   0.0000
    59 C27     10.4681   2.6696  13.5660   C.ar      3 RES3   0.0000
    60 H20     10.7983   1.9107  13.9913   H         3 RES3   0.0000
    61 C28     14.1426  -0.3062  12.7578   C.ar      3 RES3   0.0000
    62 H21     14.3523  -0.8513  13.4814   H         3 RES3   0.0000
    63 C29     13.9242   7.3750   9.2006   C.ar      3 RES3   0.0000
    64 C30     14.3436   4.9327  12.7907   C.3       3 RES3   0.0000
    65 H22     15.2102   5.3103  12.5698   H         3 RES3   0.0000
    66 H23     14.2021   4.1373  12.2526   H         3 RES3   0.0000
    67 C31     14.8014  -0.4642  11.6817   C.ar      3 RES3   0.0000
    68 H24     15.4217  -1.1537  11.6324   H         3 RES3   0.0000
    69 C32     10.8263   4.7478   5.8221   C.ar      3 RES3   0.0000
    70 H25     10.3056   4.3376   5.1689   H         3 RES3   0.0000
    71 C33      8.7557   2.5213   9.3322   C.2       3 RES3   0.0000
    72 H26      8.5181   2.2401  10.1851   H         3 RES3   0.0000
    73 C34     14.2527   4.5957  14.3273   C.3       3 RES3   0.0000
    74 H27     15.1246   4.6631  14.7220   H         3 RES3   0.0000
    75 H28     13.9190   3.7020  14.4400   H         3 RES3   0.0000
    76 H29     13.6586   5.2140  14.7572   H         3 RES3   0.0000
    77 C35     13.3319   1.8741   7.3774   C.3       3 RES3   0.0000
    78 H30     12.3674   1.9627   7.3351   H         3 RES3   0.0000
    79 H31     13.5381   0.9419   7.5489   H         3 RES3   0.0000
    80 C36     13.9295   2.2767   6.0382   C.3       3 RES3   0.0000
    81 H32     13.4210   3.0028   5.6670   H         3 RES3   0.0000
    82 H33     13.9033   1.5274   5.4367   H         3 RES3   0.0000
    83 H34     14.8398   2.5540   6.1627   H         3 RES3   0.0000
@<TRIPOS>BOND
     1     3     6    1
     2     4     6    1
     3     5    12    1
     4     6    71    2
     5     7    13    1
     6     8     3    1
     7     9    15    1
     8    10    18    1
     9    11    12    1
    10    12     3    1
    11    13    14   ar
    12    14     3    1
    13    15    14   ar
    14    16     8   ar
    15    17     3    1
    16    18     3    1
    17    19    15   ar
    18    20    19    1
    19    21     4    1
    20    22    17    2
    21    23    22    1
    22    24    10    1
    23    25    24    1
    24    26    24    1
    25    27    28    1
    26    29    30    1
    27    31    10    1
    28    32     7    1
    29    33     9    1
    30    34    33    1
    31    35    36    1
    32    37     4    1
    33    38    37    1
    34    39    31   ar
    35    40    39    1
    36    41    35   ar
    37    42    41    1
    38    43     5    1
    39    44    43    1
    40    45    43    1
    41    46    22    1
    42    47    46    1
    43    48    16   ar
    44    49    48    1
    45    50    19   ar
    46    51    50    1
    47    52    48   ar
    48    53    52    1
    49    54    37    2
    50    55    54    1
    51    56     5    1
    52    57    29   ar
    53    58    57    1
    54    59    13   ar
    55    60    59    1
    56    61    27   ar
    57    62    61    1
    58    63    11    1
    59    64    43    1
    60    65    64    1
    61    66    64    1
    62    67    39   ar
    63    68    67    1
    64    69    21   ar
    65    70    69    1
    66    71    54    1
    67    72    71    1
    68    73    64    1
    69    74    73    1
    70    75    73    1
    71    76    73    1
    72    77    24    1
    73    78    77    1
    74    79    77    1
    75    80    77    1
    76    81    80    1
    77    82    80    1
    78    83    80    1
    79     7    18    1
    80     8    21   ar
    81     9    17    1
    82    11    16    1
    83    27    32   ar
    84    29    63   ar
    85    31    32   ar
    86    33    46    2
    87    35    56   ar
    88    41    57   ar
    89    50    59   ar
    90    52    69   ar
    91    56    63   ar
    92    61    67   ar
@<TRIPOS>SUBSTRUCTURE
     1 RES1        1 GROUP             0 ****  ****    0  
     2 RES2        2 GROUP             0 ****  ****    0  
     3 RES3        3 GROUP             0 ****  ****    0  
@<TRIPOS>CRYSIN
   17.4730   19.2610   23.4950   90.0000   90.0000   90.0000    61     1
