@<TRIPOS>MOLECULE
BEFNIM
    89    97     2     0     0
SMALL
NO_CHARGES
****
Generated from the CSD

@<TRIPOS>ATOM
     1 Fe1      6.9210   4.2964   0.0000   Fe        1 RES1   0.0000
     2 Cl1      9.3567   0.6015   8.3552   Cl        1 RES1   0.0000
     3 S1       4.8405   5.1394   4.1901   S.2       1 RES1   0.0000
     4 N1       8.7306   3.9761   1.2052   N.ar      1 RES1   0.0000
     5 N2       6.4546   2.4733   1.1405   N.2       1 RES1   0.0000
     6 N3       5.2561   1.8998   1.5271   N.2       1 RES1   0.0000
     7 N4       6.7238   1.6951   3.1730   N.pl3     1 RES1   0.0000
     8 N5       3.4333   0.0142   3.1002   N.pl3     1 RES1   0.0000
     9 N6       5.9957   5.2817   1.6317   N.2       1 RES1   0.0000
    10 C1       9.9121   4.5785   1.0474   C.ar      1 RES1   0.0000
    11 H1       9.9717   5.3127   0.4491   H         1 RES1   0.0000
    12 C2      11.0550   4.1776   1.7198   C.ar      1 RES1   0.0000
    13 H2      11.8752   4.6417   1.5960   H         1 RES1   0.0000
    14 C3      10.9824   3.0882   2.5758   C.ar      1 RES1   0.0000
    15 H3      11.7561   2.7846   3.0351   H         1 RES1   0.0000
    16 C4       9.7637   2.4474   2.7519   C.ar      1 RES1   0.0000
    17 H4       9.6875   1.6963   3.3285   H         1 RES1   0.0000
    18 C5       8.6577   2.9313   2.0617   C.ar      1 RES1   0.0000
    19 C6       7.3097   2.3521   2.1306   C.2       1 RES1   0.0000
    20 C7       5.4348   1.4418   2.7531   C.2       1 RES1   0.0000
    21 C8       4.4234   0.8295   3.6028   C.2       1 RES1   0.0000
    22 C9       4.1551   1.0603   4.9398   C.2       1 RES1   0.0000
    23 H5       4.6717   1.5905   5.5356   H         1 RES1   0.0000
    24 C10      2.9717   0.3602   5.2537   C.2       1 RES1   0.0000
    25 H6       2.5399   0.3363   6.0995   H         1 RES1   0.0000
    26 C11      2.5584  -0.2771   4.1144   C.2       1 RES1   0.0000
    27 H7       1.7917  -0.8319   4.0391   H         1 RES1   0.0000
    28 C12      3.3625  -0.5424   1.7542   C.3       1 RES1   0.0000
    29 H8       4.0955  -0.1825   1.2133   H         1 RES1   0.0000
    30 H9       2.5053  -0.3010   1.3460   H         1 RES1   0.0000
    31 H10      3.4388  -1.5179   1.8001   H         1 RES1   0.0000
    32 C13      7.3130   1.4159   4.4678   C.ar      1 RES1   0.0000
    33 C14      7.7562   0.1326   4.7357   C.ar      1 RES1   0.0000
    34 H11      7.6373  -0.5634   4.1004   H         1 RES1   0.0000
    35 C15      8.3811  -0.1206   5.9554   C.ar      1 RES1   0.0000
    36 H12      8.6954  -0.9916   6.1659   H         1 RES1   0.0000
    37 C16      8.5341   0.9171   6.8535   C.ar      1 RES1   0.0000
    38 C17      8.0715   2.1952   6.5907   C.ar      1 RES1   0.0000
    39 H13      8.1740   2.8873   7.2337   H         1 RES1   0.0000
    40 C18      7.4528   2.4499   5.3672   C.ar      1 RES1   0.0000
    41 H14      7.1331   3.3199   5.1580   H         1 RES1   0.0000
    42 C19      5.5247   5.2115   2.7136   C.1       1 RES1   0.0000
    43 Cl1A     4.4853   7.9913  -8.3552   Cl        1 RES1   0.0000
    44 S1A      9.0015   3.4533  -4.1901   S.2       1 RES1   0.0000
    45 N1A      5.1115   4.6166  -1.2052   N.ar      1 RES1   0.0000
    46 N2A      7.3874   6.1194  -1.1405   N.2       1 RES1   0.0000
    47 N3A      8.5859   6.6930  -1.5271   N.2       1 RES1   0.0000
    48 N4A      7.1183   6.8977  -3.1730   N.pl3     1 RES1   0.0000
    49 N5A     10.4087   8.5786  -3.1002   N.pl3     1 RES1   0.0000
    50 N6A      7.8464   3.3111  -1.6317   N.2       1 RES1   0.0000
    51 C1A      3.9299   4.0143  -1.0474   C.ar      1 RES1   0.0000
    52 H1A      3.8704   3.2800  -0.4491   H         1 RES1   0.0000
    53 C2A      2.7870   4.4151  -1.7198   C.ar      1 RES1   0.0000
    54 H2A      1.9669   3.9510  -1.5960   H         1 RES1   0.0000
    55 C3A      2.8596   5.5045  -2.5758   C.ar      1 RES1   0.0000
    56 H3A      2.0859   5.8081  -3.0351   H         1 RES1   0.0000
    57 C4A      4.0783   6.1453  -2.7519   C.ar      1 RES1   0.0000
    58 H4A      4.1545   6.8964  -3.3285   H         1 RES1   0.0000
    59 C5A      5.1843   5.6614  -2.0617   C.ar      1 RES1   0.0000
    60 C6A      6.5323   6.2406  -2.1306   C.2       1 RES1   0.0000
    61 C7A      8.4072   7.1509  -2.7531   C.2       1 RES1   0.0000
    62 C8A      9.4186   7.7632  -3.6028   C.2       1 RES1   0.0000
    63 C9A      9.6869   7.5325  -4.9398   C.2       1 RES1   0.0000
    64 H5A      9.1703   7.0023  -5.5356   H         1 RES1   0.0000
    65 C10A    10.8703   8.2325  -5.2537   C.2       1 RES1   0.0000
    66 H6A     11.3021   8.2564  -6.0995   H         1 RES1   0.0000
    67 C11A    11.2836   8.8698  -4.1144   C.2       1 RES1   0.0000
    68 H7A     12.0503   9.4247  -4.0391   H         1 RES1   0.0000
    69 C12A    10.4795   9.1351  -1.7542   C.3       1 RES1   0.0000
    70 H8A      9.7465   8.7752  -1.2133   H         1 RES1   0.0000
    71 H9A     11.3367   8.8937  -1.3460   H         1 RES1   0.0000
    72 H10A    10.4032  10.1107  -1.8001   H         1 RES1   0.0000
    73 C13A     6.5291   7.1769  -4.4678   C.ar      1 RES1   0.0000
    74 C14A     6.0858   8.4601  -4.7357   C.ar      1 RES1   0.0000
    75 H11A     6.2047   9.1561  -4.1004   H         1 RES1   0.0000
    76 C15A     5.4609   8.7133  -5.9554   C.ar      1 RES1   0.0000
    77 H12A     5.1466   9.5844  -6.1659   H         1 RES1   0.0000
    78 C16A     5.3080   7.6756  -6.8535   C.ar      1 RES1   0.0000
    79 C17A     5.7705   6.3976  -6.5907   C.ar      1 RES1   0.0000
    80 H13A     5.6680   5.7055  -7.2337   H         1 RES1   0.0000
    81 C18A     6.3892   6.1428  -5.3672   C.ar      1 RES1   0.0000
    82 H14A     6.7089   5.2728  -5.1580   H         1 RES1   0.0000
    83 C19A     8.3173   3.3813  -2.7136   C.1       1 RES1   0.0000
    84 C20      3.4240   7.4733   1.1559   C.3       2 RES2   0.0000
    85 H15      3.2100   7.0205   1.9979   H         2 RES2   0.0000
    86 H16      3.5119   6.8094   0.4401   H         2 RES2   0.0000
    87 H17      2.7074   8.1028   0.9313   H         2 RES2   0.0000
    88 O1       4.5476   8.1196   1.2783   O.3       2 RES2   0.0000
    89 H18      5.1006   8.7798   1.0946   H         2 RES2   0.0000
@<TRIPOS>BOND
     1     1     4    1
     2     2    37    1
     3     3    42    2
     4     4    10   ar
     5     5     1    1
     6     6     5    1
     7     7    19    1
     8     8    21    1
     9     9     1    1
    10    10    11    1
    11    12    10   ar
    12    13    12    1
    13    14    12   ar
    14    15    14    1
    15    16    14   ar
    16    17    16    1
    17    18     4   ar
    18    19     5    2
    19    20     6    2
    20    21    20    1
    21    22    21    2
    22    23    22    1
    23    24    22    1
    24    25    24    1
    25    26     8    1
    26    27    26    1
    27    28     8    1
    28    29    28    1
    29    30    28    1
    30    31    28    1
    31    32     7    1
    32    33    32   ar
    33    34    33    1
    34    35    33   ar
    35    36    35    1
    36    37    35   ar
    37    38    37   ar
    38    39    38    1
    39    40    32   ar
    40    41    40    1
    41    42     9    2
    42    43    78    1
    43    44    83    2
    44    45     1    1
    45    46     1    1
    46    47    46    1
    47    48    60    1
    48    49    62    1
    49    50     1    1
    50    51    45   ar
    51    52    51    1
    52    53    51   ar
    53    54    53    1
    54    55    53   ar
    55    56    55    1
    56    57    55   ar
    57    58    57    1
    58    59    45   ar
    59    60    46    2
    60    61    47    2
    61    62    61    1
    62    63    62    2
    63    64    63    1
    64    65    63    1
    65    66    65    1
    66    67    49    1
    67    68    67    1
    68    69    49    1
    69    70    69    1
    70    71    69    1
    71    72    69    1
    72    73    48    1
    73    74    73   ar
    74    75    74    1
    75    76    74   ar
    76    77    76    1
    77    78    76   ar
    78    79    78   ar
    79    80    79    1
    80    81    73   ar
    81    82    81    1
    82    83    50    2
    83     7    20    1
    84    16    18   ar
    85    18    19    1
    86    24    26    2
    87    38    40   ar
    88    48    61    1
    89    57    59   ar
    90    59    60    1
    91    65    67    2
    92    79    81   ar
    93    84    85    1
    94    86    84    1
    95    87    84    1
    96    88    84    1
    97    89    88    1
@<TRIPOS>SUBSTRUCTURE
     1 RES1        1 GROUP             0 ****  ****    0  
     2 RES2       84 GROUP             0 ****  ****    0  
@<TRIPOS>CRYSIN
    9.0061    9.5512   13.5276   91.2540  106.7950  115.8880     2     1
