@<TRIPOS>MOLECULE
BEFNOS
    89    97     2     0     0
SMALL
NO_CHARGES
****
Generated from the CSD

@<TRIPOS>ATOM
     1 Br1      0.0115   2.6461  -2.0316   Br        1 RES1   0.0000
     2 Fe1      2.5568  -1.1435   6.4015   Fe        1 RES1   0.0000
     3 S1       4.6663  -1.9695   2.2057   S.2       1 RES1   0.0000
     4 N1       0.7455  -0.7973   5.2061   N.ar      1 RES1   0.0000
     5 N2       3.0269   0.6946   5.2851   N.2       1 RES1   0.0000
     6 N3       4.2277   1.2717   4.8971   N.2       1 RES1   0.0000
     7 N4       2.7589   1.4897   3.2545   N.pl3     1 RES1   0.0000
     8 N5       6.0646   3.1488   3.3390   N.pl3     1 RES1   0.0000
     9 N6       3.4757  -2.1058   4.7499   N.2       1 RES1   0.0000
    10 C1      -0.4408  -1.3925   5.3606   C.ar      1 RES1   0.0000
    11 H1      -0.5043  -2.1319   5.9534   H         1 RES1   0.0000
    12 C2      -1.5824  -0.9779   4.6936   C.ar      1 RES1   0.0000
    13 H2      -2.4057  -1.4360   4.8178   H         1 RES1   0.0000
    14 C3      -1.5046   0.1122   3.8447   C.ar      1 RES1   0.0000
    15 H3      -2.2776   0.4217   3.3877   H         1 RES1   0.0000
    16 C4      -0.2866   0.7453   3.6719   C.ar      1 RES1   0.0000
    17 H4      -0.2069   1.4985   3.0983   H         1 RES1   0.0000
    18 C5       0.8189   0.2525   4.3594   C.ar      1 RES1   0.0000
    19 C6       2.1717   0.8315   4.2954   C.2       1 RES1   0.0000
    20 C7       4.0533   1.7344   3.6744   C.2       1 RES1   0.0000
    21 C8       5.0635   2.3466   2.8282   C.2       1 RES1   0.0000
    22 C9       5.3341   2.1354   1.4877   C.2       1 RES1   0.0000
    23 H5       4.8128   1.6182   0.8860   H         1 RES1   0.0000
    24 C10      6.5193   2.8227   1.1766   C.2       1 RES1   0.0000
    25 H6       6.9532   2.8506   0.3316   H         1 RES1   0.0000
    26 C11      6.9336   3.4472   2.3327   C.2       1 RES1   0.0000
    27 H7       7.7028   3.9982   2.4159   H         1 RES1   0.0000
    28 C12      6.1224   3.7028   4.6859   C.3       1 RES1   0.0000
    29 H8       5.3900   3.3340   5.2223   H         1 RES1   0.0000
    30 H9       6.0369   4.6776   4.6424   H         1 RES1   0.0000
    31 H10      6.9803   3.4689   5.0981   H         1 RES1   0.0000
    32 C13      2.1690   1.7752   1.9665   C.ar      1 RES1   0.0000
    33 C14      1.7122   3.0588   1.7079   C.ar      1 RES1   0.0000
    34 H11      1.8278   3.7501   2.3493   H         1 RES1   0.0000
    35 C15      1.0832   3.3202   0.4968   C.ar      1 RES1   0.0000
    36 H12      0.7596   4.1913   0.2970   H         1 RES1   0.0000
    37 C16      0.9366   2.2909  -0.4110   C.ar      1 RES1   0.0000
    38 C17      1.4068   1.0167  -0.1664   C.ar      1 RES1   0.0000
    39 H13      1.3076   0.3316  -0.8181   H         1 RES1   0.0000
    40 C18      2.0327   0.7500   1.0550   C.ar      1 RES1   0.0000
    41 H14      2.3570  -0.1205   1.2521   H         1 RES1   0.0000
    42 C19      3.9598  -2.0411   3.6744   C.1       1 RES1   0.0000
    43 Br1A     5.1020  -4.9330  14.8345   Br        1 RES1   0.0000
    44 S1A      0.4472  -0.3174  10.5973   S.2       1 RES1   0.0000
    45 N1A      4.3681  -1.4896   7.5969   N.ar      1 RES1   0.0000
    46 N2A      2.0866  -2.9815   7.5179   N.2       1 RES1   0.0000
    47 N3A      0.8858  -3.5586   7.9058   N.2       1 RES1   0.0000
    48 N4A      2.3546  -3.7766   9.5484   N.pl3     1 RES1   0.0000
    49 N5A     -0.9511  -5.4357   9.4639   N.pl3     1 RES1   0.0000
    50 N6A      1.6378  -0.1811   8.0531   N.2       1 RES1   0.0000
    51 C1A      5.5543  -0.8944   7.4424   C.ar      1 RES1   0.0000
    52 H1A      5.6178  -0.1551   6.8496   H         1 RES1   0.0000
    53 C2A      6.6960  -1.3090   8.1094   C.ar      1 RES1   0.0000
    54 H2A      7.5192  -0.8510   7.9852   H         1 RES1   0.0000
    55 C3A      6.6181  -2.3991   8.9582   C.ar      1 RES1   0.0000
    56 H3A      7.3911  -2.7087   9.4153   H         1 RES1   0.0000
    57 C4A      5.4001  -3.0322   9.1311   C.ar      1 RES1   0.0000
    58 H4A      5.3205  -3.7855   9.7046   H         1 RES1   0.0000
    59 C5A      4.2946  -2.5394   8.4435   C.ar      1 RES1   0.0000
    60 C6A      2.9418  -3.1184   8.5076   C.2       1 RES1   0.0000
    61 C7A      1.0602  -4.0214   9.1285   C.2       1 RES1   0.0000
    62 C8A      0.0500  -4.6335   9.9748   C.2       1 RES1   0.0000
    63 C9A     -0.2206  -4.4224  11.3152   C.2       1 RES1   0.0000
    64 H5A      0.3008  -3.9051  11.9170   H         1 RES1   0.0000
    65 C10A    -1.4058  -5.1097  11.6264   C.2       1 RES1   0.0000
    66 H6A     -1.8396  -5.1375  12.4714   H         1 RES1   0.0000
    67 C11A    -1.8201  -5.7342  10.4703   C.2       1 RES1   0.0000
    68 H7A     -2.5892  -6.2851  10.3870   H         1 RES1   0.0000
    69 C12A    -1.0089  -5.9897   8.1171   C.3       1 RES1   0.0000
    70 H8A     -0.2765  -5.6209   7.5806   H         1 RES1   0.0000
    71 H9A     -0.9234  -6.9646   8.1606   H         1 RES1   0.0000
    72 H10A    -1.8667  -5.7558   7.7048   H         1 RES1   0.0000
    73 C13A     2.9445  -4.0621  10.8364   C.ar      1 RES1   0.0000
    74 C14A     3.4013  -5.3458  11.0950   C.ar      1 RES1   0.0000
    75 H11A     3.2857  -6.0371  10.4536   H         1 RES1   0.0000
    76 C15A     4.0303  -5.6072  12.3062   C.ar      1 RES1   0.0000
    77 H12A     4.3539  -6.4782  12.5059   H         1 RES1   0.0000
    78 C16A     4.1770  -4.5778  13.2139   C.ar      1 RES1   0.0000
    79 C17A     3.7067  -3.3036  12.9694   C.ar      1 RES1   0.0000
    80 H13A     3.8059  -2.6185  13.6211   H         1 RES1   0.0000
    81 C18A     3.0809  -3.0369  11.7480   C.ar      1 RES1   0.0000
    82 H14A     2.7565  -2.1664  11.5508   H         1 RES1   0.0000
    83 C19A     1.1537  -0.2458   9.1285   C.1       1 RES1   0.0000
    84 C20      6.1260  -4.2926   5.2428   C.3       2 RES2   0.0000
    85 H15      6.2937  -3.7972   4.4145   H         2 RES2   0.0000
    86 H16      6.8692  -4.9090   5.4092   H         2 RES2   0.0000
    87 H17      6.0490  -3.6636   5.9905   H         2 RES2   0.0000
    88 O1       5.0136  -4.9395   5.1340   O.3       2 RES2   0.0000
    89 H18      4.5435  -5.6665   5.2838   H         2 RES2   0.0000
@<TRIPOS>BOND
     1     1    37    1
     2     2     4    1
     3     3    42    2
     4     4    10   ar
     5     5     2    1
     6     6     5    1
     7     7    19    1
     8     8    21    1
     9     9     2    1
    10    10    11    1
    11    12    10   ar
    12    13    12    1
    13    14    12   ar
    14    15    14    1
    15    16    14   ar
    16    17    16    1
    17    18     4   ar
    18    19     5    2
    19    20     6    2
    20    21    20    1
    21    22    21    2
    22    23    22    1
    23    24    22    1
    24    25    24    1
    25    26     8    1
    26    27    26    1
    27    28     8    1
    28    29    28    1
    29    30    28    1
    30    31    28    1
    31    32     7    1
    32    33    32   ar
    33    34    33    1
    34    35    33   ar
    35    36    35    1
    36    37    35   ar
    37    38    37   ar
    38    39    38    1
    39    40    32   ar
    40    41    40    1
    41    42     9    2
    42    43    78    1
    43    44    83    2
    44    45     2    1
    45    46     2    1
    46    47    46    1
    47    48    60    1
    48    49    62    1
    49    50     2    1
    50    51    45   ar
    51    52    51    1
    52    53    51   ar
    53    54    53    1
    54    55    53   ar
    55    56    55    1
    56    57    55   ar
    57    58    57    1
    58    59    45   ar
    59    60    46    2
    60    61    47    2
    61    62    61    1
    62    63    62    2
    63    64    63    1
    64    65    63    1
    65    66    65    1
    66    67    49    1
    67    68    67    1
    68    69    49    1
    69    70    69    1
    70    71    69    1
    71    72    69    1
    72    73    48    1
    73    74    73   ar
    74    75    74    1
    75    76    74   ar
    76    77    76    1
    77    78    76   ar
    78    79    78   ar
    79    80    79    1
    80    81    73   ar
    81    82    81    1
    82    83    50    2
    83     7    20    1
    84    16    18   ar
    85    18    19    1
    86    24    26    2
    87    38    40   ar
    88    48    61    1
    89    57    59   ar
    90    59    60    1
    91    65    67    2
    92    79    81   ar
    93    84    85    1
    94    86    84    1
    95    87    84    1
    96    88    84    1
    97    89    88    1
@<TRIPOS>SUBSTRUCTURE
     1 RES1        1 GROUP             0 ****  ****    0  
     2 RES2       84 GROUP             0 ****  ****    0  
@<TRIPOS>CRYSIN
    9.0352    9.6782   13.5840   91.2700  106.7800  116.4460     2     1
