@<TRIPOS>MOLECULE
BEHDOK01
    87    90     1     0     0
SMALL
USER_CHARGES
****
Generated from the CSD

@<TRIPOS>ATOM
     1 Fe1      2.4605   4.3047   5.9448   Fe        1 RES1   2.0000
     2 C1       0.5957   4.6937   8.6330   C.1       1 RES1   0.0000
     3 C2      -1.1292   3.5544   9.8493   C.1       1 RES1   0.0000
     4 C3       2.5880   5.5719  10.4699   C.1       1 RES1   0.0000
     5 C4       1.5909   6.9752  12.1737   C.1       1 RES1   0.0000
     6 C5       0.2029   5.3274  10.9907   C.2       1 RES1   0.0000
     7 C6      -0.1074   4.5432   9.8540   C.2       1 RES1  -1.0000
     8 C7       1.4250   5.9550  11.1809   C.2       1 RES1   0.0000
     9 C8      -2.0873   5.5777  11.8217   C.3       1 RES1   0.0000
    10 H1      -2.5382   4.9650  12.4554   H         1 RES1   0.0000
    11 H2      -2.3209   5.2960  10.9015   H         1 RES1   0.0000
    12 C9      -2.5615   6.9847  12.0560   C.3       1 RES1   0.0000
    13 C10     -2.2084   7.5275  13.4125   C.3       1 RES1   0.0000
    14 H3      -1.2228   7.5992  13.4815   H         1 RES1   0.0000
    15 H4      -2.5838   8.4392  13.5005   H         1 RES1   0.0000
    16 C11      1.7063   1.6693   7.4619   C.ar      1 RES1   0.0000
    17 H5       1.9793   2.1553   8.2311   H         1 RES1   0.0000
    18 C12      0.9975   0.5044   7.6509   C.ar      1 RES1   0.0000
    19 H6       0.7754   0.2169   8.5283   H         1 RES1   0.0000
    20 C13      0.6100  -0.2510   6.5475   C.ar      1 RES1   0.0000
    21 C14      1.0393   0.1911   5.3027   C.ar      1 RES1   0.0000
    22 H7       0.8567  -0.3197   4.5228   H         1 RES1   0.0000
    23 C15      1.7332   1.3776   5.2076   C.ar      1 RES1   0.0000
    24 H8       2.0161   1.6610   4.3468   H         1 RES1   0.0000
    25 C16     -0.2871  -1.4395   6.6962   C.ar      1 RES1   0.0000
    26 C17     -0.9671  -1.6826   7.8744   C.ar      1 RES1   0.0000
    27 H9      -0.8481  -1.1158   8.6270   H         1 RES1   0.0000
    28 C18     -1.8240  -2.7663   7.9374   C.ar      1 RES1   0.0000
    29 H10     -2.2823  -2.9225   8.7554   H         1 RES1   0.0000
    30 C19     -1.3866  -3.3635   5.8056   C.ar      1 RES1   0.0000
    31 H11     -1.5315  -3.9446   5.0685   H         1 RES1   0.0000
    32 C20     -0.4983  -2.3187   5.6404   C.ar      1 RES1   0.0000
    33 H12     -0.0383  -2.2029   4.8176   H         1 RES1   0.0000
    34 N1       1.1325   4.7559   7.6224   N.1       1 RES1   0.0000
    35 N2      -1.9282   2.7404   9.8124   N.1       1 RES1   0.0000
    36 N3       3.5530   5.2461   9.9087   N.1       1 RES1   0.0000
    37 N4       1.7487   7.7879  12.9584   N.1       1 RES1   0.0000
    38 N5       2.0335   2.1567   6.2586   N.ar      1 RES1   0.0000
    39 N6      -2.0499  -3.6069   6.9244   N.ar      1 RES1   0.0000
    40 O1       4.0676   4.1761   7.2823   O.3       1 RES1   0.0000
    41 O2      -0.6444   5.4952  12.0060   O.3       1 RES1   0.0000
    42 O3      -2.6837   6.7318  14.4767   O.3       1 RES1   0.0000
    43 H13      3.8140   4.2946   8.0373   H         1 RES1   0.0000
    44 H14      4.7623   4.5946   7.0386   H         1 RES1   0.0000
    45 C1A      4.3254   3.9158   3.2565   C.1       1 RES1   0.0000
    46 C2A      6.0503   5.0550   2.0402   C.1       1 RES1   0.0000
    47 C3A      2.3331   3.0376   1.4196   C.1       1 RES1   0.0000
    48 C4A      3.3302   1.6342  -0.2842   C.1       1 RES1   0.0000
    49 C5A      4.7182   3.2820   0.8988   C.2       1 RES1   0.0000
    50 C6A      5.0285   4.0662   2.0355   C.2       1 RES1  -1.0000
    51 C7A      3.4961   2.6544   0.7086   C.2       1 RES1   0.0000
    52 C8A      7.0084   3.0317   0.0678   C.3       1 RES1   0.0000
    53 H1A      7.4593   3.6444  -0.5659   H         1 RES1   0.0000
    54 H2A      7.2420   3.3134   0.9880   H         1 RES1   0.0000
    55 C9A      7.4826   1.6247  -0.1665   C.3       1 RES1   0.0000
    56 C10A     7.1295   1.0820  -1.5230   C.3       1 RES1   0.0000
    57 H3A      6.1439   1.0103  -1.5920   H         1 RES1   0.0000
    58 H4A      7.5049   0.1703  -1.6110   H         1 RES1   0.0000
    59 C11A     3.2148   6.9402   4.4277   C.ar      1 RES1   0.0000
    60 H5A      2.9418   6.4542   3.6584   H         1 RES1   0.0000
    61 C12A     3.9235   8.1051   4.2386   C.ar      1 RES1   0.0000
    62 H6A      4.1457   8.3926   3.3612   H         1 RES1   0.0000
    63 C13A     4.3111   8.8605   5.3420   C.ar      1 RES1   0.0000
    64 C14A     3.8818   8.4184   6.5868   C.ar      1 RES1   0.0000
    65 H7A      4.0644   8.9291   7.3667   H         1 RES1   0.0000
    66 C15A     3.1879   7.2318   6.6819   C.ar      1 RES1   0.0000
    67 H8A      2.9049   6.9484   7.5427   H         1 RES1   0.0000
    68 C16A     5.2082  10.0490   5.1933   C.ar      1 RES1   0.0000
    69 C17A     5.8882  10.2920   4.0151   C.ar      1 RES1   0.0000
    70 H9A      5.7692   9.7252   3.2625   H         1 RES1   0.0000
    71 C18A     6.7451  11.3758   3.9521   C.ar      1 RES1   0.0000
    72 H10A     7.2034  11.5319   3.1341   H         1 RES1   0.0000
    73 C19A     6.3076  11.9729   6.0839   C.ar      1 RES1   0.0000
    74 H11A     6.4526  12.5541   6.8210   H         1 RES1   0.0000
    75 C20A     5.4193  10.9282   6.2491   C.ar      1 RES1   0.0000
    76 H12A     4.9594  10.8124   7.0719   H         1 RES1   0.0000
    77 N1A      3.7886   3.8536   4.2671   N.1       1 RES1   0.0000
    78 N2A      6.8493   5.8691   2.0771   N.1       1 RES1   0.0000
    79 N3A      1.3681   3.3634   1.9808   N.1       1 RES1   0.0000
    80 N4A      3.1724   0.8216  -1.0689   N.1       1 RES1   0.0000
    81 N5A      2.8876   6.4528   5.6309   N.ar      1 RES1   0.0000
    82 N6A      6.9710  12.2164   4.9651   N.ar      1 RES1   0.0000
    83 O1A      0.8534   4.4333   4.6072   O.3       1 RES1   0.0000
    84 O2A      5.5654   3.1143  -0.1165   O.3       1 RES1   0.0000
    85 O3A      7.6048   1.8776  -2.5872   O.3       1 RES1   0.0000
    86 H13A     1.1071   4.3149   3.8522   H         1 RES1   0.0000
    87 H14A     0.1588   4.0148   4.8509   H         1 RES1   0.0000
@<TRIPOS>BOND
     1     1    34    1
     2     2     7    1
     3     3     7    1
     4     4     8    1
     5     5     8    1
     6     6     7    1
     7     8     6    2
     8     9    10    1
     9    11     9    1
    10    12     9    1
    11    13    12    1
    12    14    13    1
    13    15    13    1
    14    16    17    1
    15    18    16   ar
    16    19    18    1
    17    20    18   ar
    18    21    20   ar
    19    22    21    1
    20    23    21   ar
    21    24    23    1
    22    25    20    1
    23    26    25   ar
    24    27    26    1
    25    28    26   ar
    26    29    28    1
    27    30    31    1
    28    32    25   ar
    29    33    32    1
    30    34     2    3
    31    35     3    3
    32    36     4    3
    33    37     5    3
    34    38     1    1
    35    39    28   ar
    36    40     1    1
    37    41     6    1
    38    42    13    1
    39    43    40    1
    40    44    40    1
    41    45    50    1
    42    46    50    1
    43    47    51    1
    44    48    51    1
    45    49    50    1
    46    51    49    2
    47    52    53    1
    48    54    52    1
    49    55    52    1
    50    56    55    1
    51    57    56    1
    52    58    56    1
    53    59    60    1
    54    61    59   ar
    55    62    61    1
    56    63    61   ar
    57    64    63   ar
    58    65    64    1
    59    66    64   ar
    60    67    66    1
    61    68    63    1
    62    69    68   ar
    63    70    69    1
    64    71    69   ar
    65    72    71    1
    66    73    74    1
    67    75    68   ar
    68    76    75    1
    69    77     1    1
    70    78    46    3
    71    79    47    3
    72    80    48    3
    73    81     1    1
    74    82    71   ar
    75    83     1    1
    76    84    49    1
    77    85    56    1
    78    86    83    1
    79    87    83    1
    80     9    41    1
    81    16    38   ar
    82    23    38   ar
    83    30    32   ar
    84    30    39   ar
    85    45    77    3
    86    52    84    1
    87    59    81   ar
    88    66    81   ar
    89    73    75   ar
    90    73    82   ar
@<TRIPOS>SUBSTRUCTURE
     1 RES1        1 GROUP             0 ****  ****    0  
@<TRIPOS>CRYSIN
    8.4903    9.4790   12.3652   93.5530  105.4050   91.7200     2     1
