@<TRIPOS>MOLECULE
BEJFOO
   119   127     4     0     0
SMALL
USER_CHARGES
****
Generated from the CSD

@<TRIPOS>ATOM
     1 Br1     11.1762  14.1290   1.7091   Br        1 RES1  -1.0000
     2 Br2      3.9142  14.1290   6.6597   Br        2 RES2  -1.0000
     3 Fe1      5.1215   7.0645   9.9929   Fe        3 RES3   2.0000
     4 N1       4.9376   5.1342   9.7689   N.ar      3 RES3   0.0000
     5 N2       4.0743   7.0645   8.4483   N.ar      3 RES3   0.0000
     6 N3       7.5921   7.0645   7.9330   N.pl3     3 RES3   0.0000
     7 N4       7.9403   7.0645  10.0422   N.pl3     3 RES3   0.0000
     8 N5       6.2649   7.0645  11.5373   N.ar      3 RES3   0.0000
     9 N6       4.3537   7.0645  12.7083   N.pl3     3 RES3   0.0000
    10 N7       2.4417   7.0645  11.7431   N.pl3     3 RES3   0.0000
    11 C1       5.3939   4.1779  10.5908   C.ar      3 RES3   0.0000
    12 H1       5.8867   4.4379  11.3607   H         3 RES3   0.0000
    13 C2       5.1816   2.8244  10.3664   C.ar      3 RES3   0.0000
    14 H2       5.5119   2.1730  10.9742   H         3 RES3   0.0000
    15 C3       4.4816   2.4500   9.2504   C.ar      3 RES3   0.0000
    16 H3       4.3252   1.5302   9.0728   H         3 RES3   0.0000
    17 C4       4.0115   3.4037   8.3901   C.ar      3 RES3   0.0000
    18 H4       3.5375   3.1465   7.6077   H         3 RES3   0.0000
    19 C5       4.2249   4.7516   8.6644   C.ar      3 RES3   0.0000
    20 C6       3.7508   5.8847   7.8820   C.ar      3 RES3   0.0000
    21 C7       3.0725   5.8536   6.6633   C.ar      3 RES3   0.0000
    22 H5       2.8389   5.0313   6.2497   H         3 RES3   0.0000
    23 C8       2.7519   7.0645   6.0814   C.ar      3 RES3   0.0000
    24 H6       2.2957   7.0645   5.2481   H         3 RES3   0.0000
    25 C9       6.9190   7.0645   9.1216   C.3       3 RES3   0.0000
    26 C10      8.9787   7.0645   8.1324   C.2       3 RES3   0.0000
    27 H7       9.6437   7.0645   7.4540   H         3 RES3   0.0000
    28 C11      9.1959   7.0645   9.4479   C.2       3 RES3   0.0000
    29 H8      10.0366   7.0645   9.8894   H         3 RES3   0.0000
    30 C12      7.5967   7.0645  11.3971   C.ar      3 RES3   0.0000
    31 C13      8.4760   7.0645  12.4600   C.ar      3 RES3   0.0000
    32 H9       9.4167   7.0645  12.3291   H         3 RES3   0.0000
    33 C14      7.9120   7.0645  13.7369   C.ar      3 RES3   0.0000
    34 H10      8.4800   7.0645  14.4986   H         3 RES3   0.0000
    35 C15      6.5230   7.0645  13.9115   C.ar      3 RES3   0.0000
    36 H11      6.1340   7.0645  14.7781   H         3 RES3   0.0000
    37 C16      5.7481   7.0645  12.7779   C.ar      3 RES3   0.0000
    38 C17      3.4179   7.0645  13.7297   C.2       3 RES3   0.0000
    39 H12      3.5932   7.0645  14.6638   H         3 RES3   0.0000
    40 C18      2.2202   7.0645  13.1374   C.2       3 RES3   0.0000
    41 H13      1.3775   7.0645  13.5728   H         3 RES3   0.0000
    42 C19      3.7673   7.0645  11.4552   C.3       3 RES3   0.0000
    43 C20      7.0185   7.0645   6.6082   C.ar      3 RES3   0.0000
    44 C21      6.7907   8.3008   5.9650   C.ar      3 RES3   0.0000
    45 C22      7.2065   9.6289   6.5781   C.3       3 RES3   0.0000
    46 H14      7.0914   9.5682   7.5703   H         3 RES3   0.0000
    47 C23      8.6874   9.9143   6.2736   C.3       3 RES3   0.0000
    48 H15      9.2453   9.2234   6.6882   H         3 RES3   0.0000
    49 H16      8.9330  10.7917   6.6352   H         3 RES3   0.0000
    50 H17      8.8275   9.9101   5.3042   H         3 RES3   0.0000
    51 C24      6.3668  10.8101   6.0627   C.3       3 RES3   0.0000
    52 H18      6.5646  11.6084   6.5968   H         3 RES3   0.0000
    53 H19      5.4149  10.5939   6.1396   H         3 RES3   0.0000
    54 H20      6.5895  10.9825   5.1234   H         3 RES3   0.0000
    55 C25      6.2324   8.2626   4.6933   C.ar      3 RES3   0.0000
    56 H21      6.0493   9.0793   4.2434   H         3 RES3   0.0000
    57 C26      5.9390   7.0645   4.0636   C.ar      3 RES3   0.0000
    58 H22      5.5373   7.0645   3.2023   H         3 RES3   0.0000
    59 C27      1.3650   7.0645  10.7747   C.ar      3 RES3   0.0000
    60 C28      0.8629   8.3008  10.3466   C.ar      3 RES3   0.0000
    61 C29      1.3284   9.6162  10.9337   C.3       3 RES3   0.0000
    62 H23      2.3097   9.5456  11.1113   H         3 RES3   0.0000
    63 C30      0.6231   9.9016  12.2657   C.3       3 RES3   0.0000
    64 H24     -0.3442   9.9609  12.1171   H         3 RES3   0.0000
    65 H25      0.9501  10.7493  12.6335   H         3 RES3   0.0000
    66 H26      0.8128   9.1768  12.8974   H         3 RES3   0.0000
    67 C31      1.0997  10.8129  10.0214   C.3       3 RES3   0.0000
    68 H27      0.1403  11.0079   9.9736   H         3 RES3   0.0000
    69 H28      1.4374  10.6095   9.1247   H         3 RES3   0.0000
    70 H29      1.5745  11.5914  10.3809   H         3 RES3   0.0000
    71 C32     -0.1584   8.2584   9.3886   C.ar      3 RES3   0.0000
    72 H30     -0.5231   9.0722   9.0624   H         3 RES3   0.0000
    73 C33     -0.6435   7.0645   8.9086   C.ar      3 RES3   0.0000
    74 H31     -1.3197   7.0645   8.2415   H         3 RES3   0.0000
    75 N1A      4.9376   8.9948   9.7689   N.ar      3 RES3   0.0000
    76 C1A      5.3939   9.9511  10.5908   C.ar      3 RES3   0.0000
    77 H1A      5.8867   9.6911  11.3607   H         3 RES3   0.0000
    78 C2A      5.1816  11.3046  10.3664   C.ar      3 RES3   0.0000
    79 H2A      5.5119  11.9560  10.9742   H         3 RES3   0.0000
    80 C3A      4.4816  11.6790   9.2504   C.ar      3 RES3   0.0000
    81 H3A      4.3252  12.5988   9.0728   H         3 RES3   0.0000
    82 C4A      4.0115  10.7253   8.3901   C.ar      3 RES3   0.0000
    83 H4A      3.5375  10.9825   7.6077   H         3 RES3   0.0000
    84 C5A      4.2249   9.3774   8.6644   C.ar      3 RES3   0.0000
    85 C6A      3.7508   8.2443   7.8820   C.ar      3 RES3   0.0000
    86 C7A      3.0725   8.2754   6.6633   C.ar      3 RES3   0.0000
    87 H5A      2.8389   9.0977   6.2497   H         3 RES3   0.0000
    88 C21A     6.7907   5.8282   5.9650   C.ar      3 RES3   0.0000
    89 C22A     7.2065   4.5001   6.5781   C.3       3 RES3   0.0000
    90 H14A     7.0914   4.5608   7.5703   H         3 RES3   0.0000
    91 C23A     8.6874   4.2147   6.2736   C.3       3 RES3   0.0000
    92 H15A     9.2453   4.9056   6.6882   H         3 RES3   0.0000
    93 H16A     8.9330   3.3373   6.6352   H         3 RES3   0.0000
    94 H17A     8.8275   4.2189   5.3042   H         3 RES3   0.0000
    95 C24A     6.3668   3.3189   6.0627   C.3       3 RES3   0.0000
    96 H18A     6.5646   2.5206   6.5968   H         3 RES3   0.0000
    97 H19A     5.4149   3.5351   6.1396   H         3 RES3   0.0000
    98 H20A     6.5895   3.1465   5.1234   H         3 RES3   0.0000
    99 C25A     6.2324   5.8664   4.6933   C.ar      3 RES3   0.0000
   100 H21A     6.0493   5.0497   4.2434   H         3 RES3   0.0000
   101 C28A     0.8629   5.8282  10.3466   C.ar      3 RES3   0.0000
   102 C29A     1.3284   4.5128  10.9337   C.3       3 RES3   0.0000
   103 H23A     2.3097   4.5834  11.1113   H         3 RES3   0.0000
   104 C30A     0.6231   4.2274  12.2657   C.3       3 RES3   0.0000
   105 H24A    -0.3442   4.1681  12.1171   H         3 RES3   0.0000
   106 H25A     0.9501   3.3797  12.6335   H         3 RES3   0.0000
   107 H26A     0.8128   4.9522  12.8974   H         3 RES3   0.0000
   108 C31A     1.0997   3.3161  10.0214   C.3       3 RES3   0.0000
   109 H27A     0.1403   3.1211   9.9736   H         3 RES3   0.0000
   110 H28A     1.4374   3.5195   9.1247   H         3 RES3   0.0000
   111 H29A     1.5745   2.5376  10.3809   H         3 RES3   0.0000
   112 C32A    -0.1584   5.8706   9.3886   C.ar      3 RES3   0.0000
   113 H30A    -0.5231   5.0568   9.0624   H         3 RES3   0.0000
   114 O1       2.2444   4.6612   3.8101   O.3       4 RES4   0.0000
   115 H32      2.4702   5.3238   3.3467   H         4 RES4   0.0000
   116 C34      3.1303   3.5662   3.5400   C.3       4 RES4   0.0000
   117 H33      4.0164   3.9123   3.3020   H         4 RES4   0.0000
   118 H34      2.7758   3.0349   2.7960   H         4 RES4   0.0000
   119 H35      3.2039   3.0010   4.3379   H         4 RES4   0.0000
@<TRIPOS>BOND
     1     3     4    1
     2     4    11   ar
     3     5     3    1
     4     6    25    1
     5     7    25    1
     6     8     3    1
     7     9    37    1
     8    10    40    1
     9    11    12    1
    10    13    11   ar
    11    14    13    1
    12    15    13   ar
    13    16    15    1
    14    17    15   ar
    15    18    17    1
    16    19     4   ar
    17    20     5   ar
    18    21    20   ar
    19    22    21    1
    20    23    21   ar
    21    24    23    1
    22    25     3    1
    23    26     6    1
    24    27    26    1
    25    28     7    1
    26    29    28    1
    27    30     7    1
    28    31    30   ar
    29    32    31    1
    30    33    31   ar
    31    34    33    1
    32    35    33   ar
    33    36    35    1
    34    37     8   ar
    35    38     9    1
    36    39    38    1
    37    40    38    2
    38    41    40    1
    39    42     3    1
    40    43     6    1
    41    44    43   ar
    42    45    44    1
    43    46    45    1
    44    47    45    1
    45    48    47    1
    46    49    47    1
    47    50    47    1
    48    51    45    1
    49    52    51    1
    50    53    51    1
    51    54    51    1
    52    55    44   ar
    53    56    55    1
    54    57    55   ar
    55    58    57    1
    56    59    10    1
    57    60    59   ar
    58    61    60    1
    59    62    61    1
    60    63    61    1
    61    64    63    1
    62    65    63    1
    63    66    63    1
    64    67    61    1
    65    68    67    1
    66    69    67    1
    67    70    67    1
    68    71    60   ar
    69    72    71    1
    70    73    71   ar
    71    74    73    1
    72    75     3    1
    73    76    75   ar
    74    77    76    1
    75    78    76   ar
    76    79    78    1
    77    80    78   ar
    78    81    80    1
    79    82    80   ar
    80    83    82    1
    81    84    75   ar
    82    85     5   ar
    83    86    23   ar
    84    87    86    1
    85    88    43   ar
    86    89    88    1
    87    90    89    1
    88    91    89    1
    89    92    91    1
    90    93    91    1
    91    94    91    1
    92    95    89    1
    93    96    95    1
    94    97    95    1
    95    98    95    1
    96    99    57   ar
    97   100    99    1
    98   101    59   ar
    99   102   101    1
   100   103   102    1
   101   104   102    1
   102   105   104    1
   103   106   104    1
   104   107   104    1
   105   108   102    1
   106   109   108    1
   107   110   108    1
   108   111   108    1
   109   112    73   ar
   110   113   112    1
   111     8    30   ar
   112     9    42    1
   113    10    42    1
   114    17    19   ar
   115    19    20    1
   116    26    28    2
   117    35    37   ar
   118    82    84   ar
   119    84    85    1
   120    85    86   ar
   121    88    99   ar
   122   101   112   ar
   123   114   115    1
   124   116   114    1
   125   117   116    1
   126   118   116    1
   127   119   116    1
@<TRIPOS>SUBSTRUCTURE
     1 RES1        1 GROUP             0 ****  ****    0  
     2 RES2        2 GROUP             0 ****  ****    0  
     3 RES3        3 GROUP             0 ****  ****    0  
     4 RES4      114 GROUP             0 ****  ****    0  
@<TRIPOS>CRYSIN
   16.4990   14.1290   12.7299   90.0000  125.2930   90.0000     8     1
