@<TRIPOS>MOLECULE
BEJQUG01
    75    86     1     0     0
SMALL
NO_CHARGES
****
Generated from the CSD

@<TRIPOS>ATOM
     1 Fe1      9.4410   2.1572   0.8513   Fe        1 RES1   0.0000
     2 N1       7.7662   1.6699  -0.5422   N.2       1 RES1   0.0000
     3 C1       6.6475   2.1378  -1.0656   C.2       1 RES1   0.0000
     4 C2       6.0979   1.1864  -1.9294   C.2       1 RES1   0.0000
     5 C3       6.9268   0.1107  -1.9144   C.2       1 RES1   0.0000
     6 N2       7.9598   0.4097  -1.0594   N.pl3     1 RES1   0.0000
     7 N3       9.8848   0.1942   0.2667   N.ar      1 RES1   0.0000
     8 C4       9.1155  -0.4272  -0.6481   C.ar      1 RES1   0.0000
     9 C5       9.3756  -1.7087  -1.0594   C.ar      1 RES1   0.0000
    10 C6      10.4582  -2.3301  -0.4861   C.ar      1 RES1   0.0000
    11 C7      11.2709  -1.7281   0.4487   C.ar      1 RES1   0.0000
    12 C8      10.9509  -0.4272   0.8226   C.ar      1 RES1   0.0000
    13 N4      11.1461   1.7068   1.9917   N.2       1 RES1   0.0000
    14 C9      11.6272   0.4563   1.7574   C.2       1 RES1   0.0000
    15 N5      12.7157   0.1359   2.4678   N.2       1 RES1   0.0000
    16 C10     12.8710   1.2912   3.1658   C.2       1 RES1   0.0000
    17 N6      11.9786   2.2640   2.9340   N.2       1 RES1   0.0000
    18 C11     13.9828   1.4951   4.1155   C.ar      1 RES1   0.0000
    19 C12     14.0904   2.6699   4.8110   C.ar      1 RES1   0.0000
    20 C13     15.1266   2.8543   5.6959   C.ar      1 RES1   0.0000
    21 C14     16.0553   1.8640   5.8854   C.ar      1 RES1   0.0000
    22 C15     15.9503   0.6796   5.1899   C.ar      1 RES1   0.0000
    23 C16     14.9115   0.4854   4.3050   C.ar      1 RES1   0.0000
    24 O1      15.2295   4.0388   6.3939   O.3       1 RES1   0.0000
    25 C17     14.1207   4.8873   6.5559   C.3       1 RES1   0.0000
    26 H1       6.2605   2.9669  -0.8999   H         1 RES1   0.0000
    27 H2       5.3191   1.2641  -2.4242   H         1 RES1   0.0000
    28 H3       6.7911  -0.6660  -2.4055   H         1 RES1   0.0000
    29 H4       8.8445  -2.1359  -1.6951   H         1 RES1   0.0000
    30 H5      10.6847  -3.2038  -0.7354   H         1 RES1   0.0000
    31 H6      11.9997  -2.1747   0.8226   H         1 RES1   0.0000
    32 H7      13.4635   3.3436   4.6826   H         1 RES1   0.0000
    33 H8      16.7560   1.9805   6.4836   H         1 RES1   0.0000
    34 H9      16.5793   0.0000   5.3220   H         1 RES1   0.0000
    35 H10     14.8463  -0.3107   3.8388   H         1 RES1   0.0000
    36 H11     13.4507   4.4271   7.0171   H         1 RES1   0.0000
    37 H12     13.7996   5.1649   5.7208   H         1 RES1   0.0000
    38 H13     14.3758   5.6348   7.0544   H         1 RES1   0.0000
    39 N7      10.4464   2.6407  -1.0544   N.2       1 RES1   0.0000
    40 C18     11.2243   2.1514  -1.9942   C.2       1 RES1   0.0000
    41 C19     11.4532   3.1300  -2.9664   C.2       1 RES1   0.0000
    42 C20     10.7817   4.2446  -2.5800   C.2       1 RES1   0.0000
    43 N8      10.1618   3.9417  -1.3959   N.pl3     1 RES1   0.0000
    44 N9       9.0682   4.2057   0.6481   N.ar      1 RES1   0.0000
    45 C21      9.4784   4.8349  -0.4686   C.ar      1 RES1   0.0000
    46 C22      9.2597   6.1941  -0.6481   C.ar      1 RES1   0.0000
    47 C23      8.5973   6.8154   0.3864   C.ar      1 RES1   0.0000
    48 C24      8.1643   6.1941   1.5206   C.ar      1 RES1   0.0000
    49 C25      8.4223   4.8543   1.6327   C.ar      1 RES1   0.0000
    50 N10      8.4314   2.6291   2.6348   N.2       1 RES1   0.0000
    51 C26      8.0703   3.9378   2.7121   C.2       1 RES1   0.0000
    52 N11      7.4250   4.2737   3.8338   N.2       1 RES1   0.0000
    53 C27      7.4152   3.0640   4.4520   C.2       1 RES1   0.0000
    54 N12      7.9921   2.0427   3.7977   N.2       1 RES1   0.0000
    55 C28      6.7692   2.8737   5.7707   C.ar      1 RES1   0.0000
    56 C29      6.3604   3.9805   6.4936   C.ar      1 RES1   0.0000
    57 C30      5.7610   3.8058   7.7150   C.ar      1 RES1   0.0000
    58 C31      5.5703   2.5436   8.2136   C.ar      1 RES1   0.0000
    59 C32      5.9726   1.4369   7.4907   C.ar      1 RES1   0.0000
    60 C33      6.5760   1.6116   6.2692   C.ar      1 RES1   0.0000
    61 O2       5.3332   4.8543   8.4753   O.3       1 RES1   0.0000
    62 C34      5.2089   4.8543   9.8463   C.3       1 RES1   0.0000
    63 H14     11.5841   1.2912  -2.0316   H         1 RES1   0.0000
    64 H15     11.9702   3.0485  -3.7391   H         1 RES1   0.0000
    65 H16     10.7699   5.0465  -3.0411   H         1 RES1   0.0000
    66 H17      9.5432   6.6212  -1.4084   H         1 RES1   0.0000
    67 H18      8.4147   7.7280   0.3241   H         1 RES1   0.0000
    68 H19      7.7326   6.6795   2.1936   H         1 RES1   0.0000
    69 H20      6.4911   4.8349   6.1571   H         1 RES1   0.0000
    70 H21      5.1573   2.4271   9.0486   H         1 RES1   0.0000
    71 H22      5.8354   0.5825   7.8272   H         1 RES1   0.0000
    72 H23      6.8479   0.8738   5.7707   H         1 RES1   0.0000
    73 H24      4.6023   4.0776  10.0956   H         1 RES1   0.0000
    74 H25      4.8889   5.6310  10.2202   H         1 RES1   0.0000
    75 H26      6.0688   4.6601  10.2202   H         1 RES1   0.0000
@<TRIPOS>BOND
     1     1     2    1
     2     2     3    2
     3     3     4    1
     4     4     5    2
     5     5     6    1
     6     6     2    1
     7     7     1    1
     8     8     6    1
     9     9     8   ar
    10    10     9   ar
    11    11    10   ar
    12    12     7   ar
    13    13     1    1
    14    14    12    1
    15    15    14    2
    16    16    15    1
    17    17    13    1
    18    18    16    1
    19    19    18   ar
    20    20    19   ar
    21    21    20   ar
    22    22    21   ar
    23    23    18   ar
    24    24    20    1
    25    25    24    1
    26    26     3    1
    27    27     4    1
    28    28     5    1
    29    29     9    1
    30    30    10    1
    31    31    11    1
    32    32    19    1
    33    33    21    1
    34    34    22    1
    35    35    23    1
    36    36    25    1
    37    37    25    1
    38    38    25    1
    39    39     1    1
    40    40    39    2
    41    41    40    1
    42    42    41    2
    43    43    39    1
    44    44     1    1
    45    45    43    1
    46    46    45   ar
    47    47    46   ar
    48    48    47   ar
    49    49    44   ar
    50    50     1    1
    51    51    49    1
    52    52    51    2
    53    53    52    1
    54    54    50    1
    55    55    53    1
    56    56    55   ar
    57    57    56   ar
    58    58    57   ar
    59    59    58   ar
    60    60    55   ar
    61    61    57    1
    62    62    61    1
    63    63    40    1
    64    64    41    1
    65    65    42    1
    66    66    46    1
    67    67    47    1
    68    68    48    1
    69    69    56    1
    70    70    58    1
    71    71    59    1
    72    72    60    1
    73    73    62    1
    74    74    62    1
    75    75    62    1
    76     7     8   ar
    77    11    12   ar
    78    13    14    1
    79    16    17    2
    80    22    23   ar
    81    42    43    1
    82    44    45   ar
    83    48    49   ar
    84    50    51    1
    85    53    54    2
    86    59    60   ar
@<TRIPOS>SUBSTRUCTURE
     1 RES1        1 GROUP             0 ****  ****    0  
@<TRIPOS>CRYSIN
   13.1100   19.4171   12.7012   90.0000   78.9023   90.0000    14     1
