@<TRIPOS>MOLECULE
BEJQOA
    81    91     2     0     0
SMALL
NO_CHARGES
****
Generated from the CSD

@<TRIPOS>ATOM
     1 Fe1      6.4252   3.5903   6.4824   Fe        1 RES1   0.0000
     2 O1       3.0597   9.5216  12.2717   O.3       1 RES1   0.0000
     3 N1       6.4007   2.2075   5.0760   N.2       1 RES1   0.0000
     4 N2       4.5554   3.4995   6.1303   N.ar      1 RES1   0.0000
     5 N3       5.7801   4.9581   7.7325   N.2       1 RES1   0.0000
     6 N4       5.1260   1.8553   4.7018   N.pl3     1 RES1   0.0000
     7 N5       4.0440   6.1196   8.5469   N.2       1 RES1   0.0000
     8 N6       6.2889   5.8035   8.6644   N.2       1 RES1   0.0000
     9 C1       7.1949   1.4522   4.3339   C.2       1 RES1   0.0000
    10 H1       8.1244   1.4836   4.3627   H         1 RES1   0.0000
    11 C2       6.4637   0.6057   3.5041   C.2       1 RES1   0.0000
    12 H2       6.8032  -0.0169   2.9029   H         1 RES1   0.0000
    13 C3       5.1581   0.8741   3.7500   C.2       1 RES1   0.0000
    14 H3       4.4245   0.4680   3.3480   H         1 RES1   0.0000
    15 C4       4.0825   2.5660   5.2941   C.ar      1 RES1   0.0000
    16 C5       2.7345   2.3687   5.0742   C.ar      1 RES1   0.0000
    17 H4       2.4279   1.7119   4.4915   H         1 RES1   0.0000
    18 C6       1.8633   3.1887   5.7554   C.ar      1 RES1   0.0000
    19 H5       0.9473   3.0828   5.6366   H         1 RES1   0.0000
    20 C7       2.3323   4.1678   6.6154   C.ar      1 RES1   0.0000
    21 H6       1.7405   4.7273   7.0644   H         1 RES1   0.0000
    22 C8       3.6816   4.2962   6.7918   C.ar      1 RES1   0.0000
    23 C9       4.4423   5.1628   7.6965   C.2       1 RES1   0.0000
    24 C10      5.2121   6.4633   9.1283   C.2       1 RES1   0.0000
    25 C11      5.2956   7.4435  10.2355   C.ar      1 RES1   0.0000
    26 C12      4.1314   8.0587  10.6804   C.ar      1 RES1   0.0000
    27 H7       3.3230   7.8957  10.2492   H         1 RES1   0.0000
    28 C13      4.1776   8.9137  11.7695   C.ar      1 RES1   0.0000
    29 C14      5.3521   9.1482  12.4281   C.ar      1 RES1   0.0000
    30 H8       5.3665   9.6994  13.1761   H         1 RES1   0.0000
    31 C15      6.5125   8.5637  11.9751   C.ar      1 RES1   0.0000
    32 H9       7.3190   8.7459  12.4021   H         1 RES1   0.0000
    33 C16      6.4881   7.7023  10.8837   C.ar      1 RES1   0.0000
    34 H10      7.2740   7.3011  10.5901   H         1 RES1   0.0000
    35 C17      1.8389   9.4165  11.5646   C.3       1 RES1   0.0000
    36 H11      1.9494   9.7704  10.6804   H         1 RES1   0.0000
    37 H12      1.1586   9.9132  12.0264   H         1 RES1   0.0000
    38 H13      1.5794   8.4936  11.5114   H         1 RES1   0.0000
    39 O1B      9.7906   9.5216   0.6931   O.3       1 RES1   0.0000
    40 N1B      6.4496   2.2075   7.8889   N.2       1 RES1   0.0000
    41 N2B      8.2949   3.4995   6.8346   N.ar      1 RES1   0.0000
    42 N3B      7.0702   4.9581   5.2324   N.2       1 RES1   0.0000
    43 N4B      7.7243   1.8553   8.2630   N.pl3     1 RES1   0.0000
    44 N5B      8.8063   6.1196   4.4179   N.2       1 RES1   0.0000
    45 N6B      6.5614   5.8035   4.3004   N.2       1 RES1   0.0000
    46 C1B      5.6554   1.4522   8.6310   C.2       1 RES1   0.0000
    47 H1B      4.7259   1.4836   8.6021   H         1 RES1   0.0000
    48 C2B      6.3866   0.6057   9.4607   C.2       1 RES1   0.0000
    49 H2B      6.0471  -0.0169  10.0619   H         1 RES1   0.0000
    50 C3B      7.6922   0.8741   9.2149   C.2       1 RES1   0.0000
    51 H3B      8.4258   0.4680   9.6168   H         1 RES1   0.0000
    52 C4B      8.7678   2.5660   7.6708   C.ar      1 RES1   0.0000
    53 C5B     10.1158   2.3687   7.8907   C.ar      1 RES1   0.0000
    54 H4B     10.4224   1.7119   8.4734   H         1 RES1   0.0000
    55 C6B     10.9870   3.1887   7.2095   C.ar      1 RES1   0.0000
    56 H5B     11.9030   3.0828   7.3282   H         1 RES1   0.0000
    57 C7B     10.5180   4.1678   6.3494   C.ar      1 RES1   0.0000
    58 H6B     11.1098   4.7273   5.9004   H         1 RES1   0.0000
    59 C8B      9.1687   4.2962   6.1731   C.ar      1 RES1   0.0000
    60 C9B      8.4080   5.1628   5.2684   C.2       1 RES1   0.0000
    61 C10B     7.6382   6.4633   3.8366   C.2       1 RES1   0.0000
    62 C11B     7.5547   7.4435   2.7294   C.ar      1 RES1   0.0000
    63 C12B     8.7189   8.0587   2.2844   C.ar      1 RES1   0.0000
    64 H7B      9.5273   7.8957   2.7157   H         1 RES1   0.0000
    65 C13B     8.6727   8.9137   1.1954   C.ar      1 RES1   0.0000
    66 C14B     7.4982   9.1482   0.5367   C.ar      1 RES1   0.0000
    67 H8B      7.4838   9.6994  -0.2112   H         1 RES1   0.0000
    68 C15B     6.3378   8.5637   0.9897   C.ar      1 RES1   0.0000
    69 H9B      5.5313   8.7459   0.5627   H         1 RES1   0.0000
    70 C16B     6.3622   7.7023   2.0811   C.ar      1 RES1   0.0000
    71 H10B     5.5763   7.3011   2.3747   H         1 RES1   0.0000
    72 C17B    11.0114   9.4165   1.4002   C.3       1 RES1   0.0000
    73 H11B    10.9009   9.7704   2.2845   H         1 RES1   0.0000
    74 H12B    11.6917   9.9132   0.9384   H         1 RES1   0.0000
    75 H13B    11.2709   8.4936   1.4535   H         1 RES1   0.0000
    76 O2       8.6804   4.8944   9.8956   O.3       2 RES2   0.0000
    77 H14      7.9528   5.0958   9.5756   H         2 RES2   0.0000
    78 C18      8.4863   4.1296  11.0512   C.3       2 RES2   0.0000
    79 H15      7.8064   3.4721  10.8892   H         2 RES2   0.0000
    80 H16      8.2129   4.7024  11.7715   H         2 RES2   0.0000
    81 H17      9.3073   3.6906  11.2856   H         2 RES2   0.0000
@<TRIPOS>BOND
     1     1     3    1
     2     2    28    1
     3     3     6    1
     4     4     1    1
     5     5     1    1
     6     6    13    1
     7     7    23    2
     8     8     5    1
     9     9     3    2
    10    10     9    1
    11    11     9    1
    12    12    11    1
    13    13    11    2
    14    14    13    1
    15    15     4   ar
    16    16    15   ar
    17    17    16    1
    18    18    16   ar
    19    19    18    1
    20    20    18   ar
    21    21    20    1
    22    22     4   ar
    23    23     5    1
    24    24     7    1
    25    25    24    1
    26    26    25   ar
    27    27    26    1
    28    28    26   ar
    29    29    28   ar
    30    30    29    1
    31    31    29   ar
    32    32    31    1
    33    33    25   ar
    34    34    33    1
    35    35     2    1
    36    36    35    1
    37    37    35    1
    38    38    35    1
    39    39    65    1
    40    40     1    1
    41    41     1    1
    42    42     1    1
    43    43    40    1
    44    44    60    2
    45    45    42    1
    46    46    40    2
    47    47    46    1
    48    48    46    1
    49    49    48    1
    50    50    43    1
    51    51    50    1
    52    52    41   ar
    53    53    52   ar
    54    54    53    1
    55    55    53   ar
    56    56    55    1
    57    57    55   ar
    58    58    57    1
    59    59    41   ar
    60    60    42    1
    61    61    44    1
    62    62    61    1
    63    63    62   ar
    64    64    63    1
    65    65    63   ar
    66    66    65   ar
    67    67    66    1
    68    68    66   ar
    69    69    68    1
    70    70    62   ar
    71    71    70    1
    72    72    39    1
    73    73    72    1
    74    74    72    1
    75    75    72    1
    76     6    15    1
    77     8    24    2
    78    20    22   ar
    79    22    23    1
    80    31    33   ar
    81    43    52    1
    82    45    61    2
    83    48    50    2
    84    57    59   ar
    85    59    60    1
    86    68    70   ar
    87    76    77    1
    88    78    76    1
    89    79    78    1
    90    80    78    1
    91    81    78    1
@<TRIPOS>SUBSTRUCTURE
     1 RES1        1 GROUP             0 ****  ****    0  
     2 RES2       76 GROUP             0 ****  ****    0  
@<TRIPOS>CRYSIN
   12.8503   10.6078   25.9297   90.0000   90.0000   90.0000    60     1
