@<TRIPOS>MOLECULE
BEJQUG
    75    86     1     0     0
SMALL
NO_CHARGES
****
Generated from the CSD

@<TRIPOS>ATOM
     1 Fe1      9.2785   2.6295   0.2596   Fe        1 RES1   0.0000
     2 N1       7.6338   2.2227  -0.7385   N.2       1 RES1   0.0000
     3 C1       6.5066   2.7439  -1.1973   C.2       1 RES1   0.0000
     4 C2       5.7775   1.7587  -1.8575   C.2       1 RES1   0.0000
     5 C3       6.5002   0.6357  -1.7903   C.2       1 RES1   0.0000
     6 N2       7.6374   0.9111  -1.0966   N.pl3     1 RES1   0.0000
     7 N3       9.5428   0.8052  -0.1857   N.ar      1 RES1   0.0000
     8 C4       8.6575   0.1271  -0.9511   C.ar      1 RES1   0.0000
     9 C5       8.7791  -1.2078  -1.3204   C.ar      1 RES1   0.0000
    10 C6       9.8928  -1.8858  -0.8616   C.ar      1 RES1   0.0000
    11 C7      10.7953  -1.1866  -0.0783   C.ar      1 RES1   0.0000
    12 C8      10.6289   0.1483   0.2685   C.ar      1 RES1   0.0000
    13 N4      10.9198   2.1761   1.2297   N.2       1 RES1   0.0000
    14 C9      11.3018   0.8963   1.0406   C.2       1 RES1   0.0000
    15 N5      12.4295   0.5509   1.6896   N.2       1 RES1   0.0000
    16 C10     12.6922   1.7375   2.2939   C.2       1 RES1   0.0000
    17 N6      11.8425   2.7545   2.0701   N.2       1 RES1   0.0000
    18 C11     13.8897   1.9070   3.1443   C.ar      1 RES1   0.0000
    19 C12     14.1735   3.1359   3.6590   C.ar      1 RES1   0.0000
    20 C13     15.2764   3.3054   4.4423   C.ar      1 RES1   0.0000
    21 C14     16.0846   2.2460   4.7220   C.ar      1 RES1   0.0000
    22 C15     15.7875   1.0171   4.2073   C.ar      1 RES1   0.0000
    23 C16     14.6979   0.8475   3.4240   C.ar      1 RES1   0.0000
    24 O1      15.5735   4.5555   4.9570   O.3       1 RES1   0.0000
    25 C17     14.7701   5.7209   4.6996   C.3       1 RES1   0.0000
    26 H1       6.2341   3.6254  -1.0966   H         1 RES1   0.0000
    27 H2       4.9539   1.8646  -2.2715   H         1 RES1   0.0000
    28 H3       6.2341  -0.1907  -2.1596   H         1 RES1   0.0000
    29 H4       8.1454  -1.6315  -1.8463   H         1 RES1   0.0000
    30 H5      10.0187  -2.7757  -1.0854   H         1 RES1   0.0000
    31 H6      11.5463  -1.6103   0.2462   H         1 RES1   0.0000
    32 H7      13.6250   3.8563   3.4688   H         1 RES1   0.0000
    33 H8      16.8276   2.3731   5.2591   H         1 RES1   0.0000
    34 H9      16.3494   0.2966   4.3975   H         1 RES1   0.0000
    35 H10     14.4901   0.0212   3.0771   H         1 RES1   0.0000
    36 H11     13.8824   5.5090   4.9234   H         1 RES1   0.0000
    37 H12     14.7124   5.7209   3.8045   H         1 RES1   0.0000
    38 H13     15.1331   6.3566   5.1472   H         1 RES1   0.0000
    39 N7      10.1045   3.1402  -1.4658   N.2       1 RES1   0.0000
    40 C18     10.6867   2.6592  -2.5624   C.2       1 RES1   0.0000
    41 C19     11.0339   3.7038  -3.4016   C.2       1 RES1   0.0000
    42 C20     10.6418   4.8522  -2.7974   C.2       1 RES1   0.0000
    43 N8      10.0801   4.4920  -1.6113   N.pl3     1 RES1   0.0000
    44 N9       9.0991   4.5344   0.3021   N.ar      1 RES1   0.0000
    45 C21      9.4795   5.2336  -0.7945   C.ar      1 RES1   0.0000
    46 C22      9.3959   6.6108  -0.8728   C.ar      1 RES1   0.0000
    47 C23      8.8843   7.2465   0.2350   C.ar      1 RES1   0.0000
    48 C24      8.4710   6.5685   1.3651   C.ar      1 RES1   0.0000
    49 C25      8.5936   5.1912   1.3763   C.ar      1 RES1   0.0000
    50 N10      8.3593   2.8054   1.9806   N.2       1 RES1   0.0000
    51 C26      8.1287   4.0894   2.3274   C.2       1 RES1   0.0000
    52 N11      7.4953   4.2377   3.4911   N.2       1 RES1   0.0000
    53 C27      7.3714   2.9452   3.8492   C.2       1 RES1   0.0000
    54 N12      7.8579   2.0341   2.9988   N.2       1 RES1   0.0000
    55 C28      6.6249   2.5003   5.0465   C.ar      1 RES1   0.0000
    56 C29      6.2063   3.4114   5.9640   C.ar      1 RES1   0.0000
    57 C30      5.5209   2.9876   7.0718   C.ar      1 RES1   0.0000
    58 C31      5.2651   1.6739   7.2508   C.ar      1 RES1   0.0000
    59 C32      5.6814   0.7628   6.3221   C.ar      1 RES1   0.0000
    60 C33      6.3558   1.1866   5.2255   C.ar      1 RES1   0.0000
    61 O2       5.1022   3.8987   7.9894   O.3       1 RES1   0.0000
    62 C34      5.5183   5.2548   7.8103   C.3       1 RES1   0.0000
    63 H14     10.8519   1.7629  -2.7526   H         1 RES1   0.0000
    64 H15     11.4530   3.6444  -4.2297   H         1 RES1   0.0000
    65 H16     10.7658   5.6997  -3.1555   H         1 RES1   0.0000
    66 H17      9.6610   7.0558  -1.6337   H         1 RES1   0.0000
    67 H18      8.8017   8.1788   0.2238   H         1 RES1   0.0000
    68 H19      8.1343   7.0134   2.1036   H         1 RES1   0.0000
    69 H20      6.3938   4.3013   5.8410   H         1 RES1   0.0000
    70 H21      4.7972   1.3984   8.0005   H         1 RES1   0.0000
    71 H22      5.4939  -0.1483   6.4452   H         1 RES1   0.0000
    72 H23      6.6496   0.5509   4.5989   H         1 RES1   0.0000
    73 H24      5.1968   5.5726   6.9935   H         1 RES1   0.0000
    74 H25      6.4429   5.2972   7.8215   H         1 RES1   0.0000
    75 H26      5.1721   5.7845   8.5041   H         1 RES1   0.0000
@<TRIPOS>BOND
     1     1     2    1
     2     2     3    2
     3     3     4    1
     4     4     5    2
     5     5     6    1
     6     6     2    1
     7     7     1    1
     8     8     6    1
     9     9     8   ar
    10    10     9   ar
    11    11    10   ar
    12    12     7   ar
    13    13     1    1
    14    14    12    1
    15    15    14    2
    16    16    15    1
    17    17    13    1
    18    18    16    1
    19    19    18   ar
    20    20    19   ar
    21    21    20   ar
    22    22    21   ar
    23    23    18   ar
    24    24    20    1
    25    25    24    1
    26    26     3    1
    27    27     4    1
    28    28     5    1
    29    29     9    1
    30    30    10    1
    31    31    11    1
    32    32    19    1
    33    33    21    1
    34    34    22    1
    35    35    23    1
    36    36    25    1
    37    37    25    1
    38    38    25    1
    39    39     1    1
    40    40    39    2
    41    41    40    1
    42    42    41    2
    43    43    39    1
    44    44     1    1
    45    45    43    1
    46    46    45   ar
    47    47    46   ar
    48    48    47   ar
    49    49    44   ar
    50    50     1    1
    51    51    49    1
    52    52    51    2
    53    53    52    1
    54    54    50    1
    55    55    53    1
    56    56    55   ar
    57    57    56   ar
    58    58    57   ar
    59    59    58   ar
    60    60    55   ar
    61    61    57    1
    62    62    61    1
    63    63    40    1
    64    64    41    1
    65    65    42    1
    66    66    46    1
    67    67    47    1
    68    68    48    1
    69    69    56    1
    70    70    58    1
    71    71    59    1
    72    72    60    1
    73    73    62    1
    74    74    62    1
    75    75    62    1
    76     7     8   ar
    77    11    12   ar
    78    13    14    1
    79    16    17    2
    80    22    23   ar
    81    42    43    1
    82    44    45   ar
    83    48    49   ar
    84    50    51    1
    85    53    54    2
    86    59    60   ar
@<TRIPOS>SUBSTRUCTURE
     1 RES1        1 GROUP             0 ****  ****    0  
@<TRIPOS>CRYSIN
   13.3647   21.1886   11.4423   90.0000   77.9356   90.0000    14     1
