@<TRIPOS>MOLECULE
BEJRAN
    77    87     2     0     0
SMALL
NO_CHARGES
****
Generated from the CSD

@<TRIPOS>ATOM
     1 Fe1      6.5645   8.1765   6.2893   Fe        1 RES1   0.0000
     2 N1       7.3482   9.6006   4.8981   N.2       1 RES1   0.0000
     3 C1       7.0502  10.3728   3.8717   C.2       1 RES1   0.0000
     4 C2       8.2016  11.0661   3.4843   C.2       1 RES1   0.0000
     5 C3       9.2020  10.6791   4.3220   C.2       1 RES1   0.0000
     6 N2       8.6979   9.7700   5.2050   N.pl3     1 RES1   0.0000
     7 N3       8.6677   8.1519   6.7303   N.ar      1 RES1   0.0000
     8 C4       9.4961   8.9998   6.0830   C.ar      1 RES1   0.0000
     9 C5      10.8523   9.0067   6.3471   C.ar      1 RES1   0.0000
    10 C6      11.2725   8.1016   7.2956   C.ar      1 RES1   0.0000
    11 C7      10.4887   7.2438   7.9597   C.ar      1 RES1   0.0000
    12 C8       9.1430   7.2861   7.6528   C.ar      1 RES1   0.0000
    13 N4       6.6997   6.7701   7.8767   N.2       1 RES1   0.0000
    14 C9       7.9706   6.6066   8.3295   C.2       1 RES1   0.0000
    15 N5       8.1005   5.7290   9.3308   N.2       1 RES1   0.0000
    16 C10      6.8021   5.3548   9.4691   C.2       1 RES1   0.0000
    17 N6       6.0012   5.9861   8.5987   N.2       1 RES1   0.0000
    18 C11      6.3938   4.4221  10.5509   C.ar      1 RES1   0.0000
    19 C12      7.3338   3.5554  11.1194   C.ar      1 RES1   0.0000
    20 C13      6.9491   2.6759  12.1383   C.ar      1 RES1   0.0000
    21 C14      5.6231   2.6641  12.5886   C.ar      1 RES1   0.0000
    22 C15      4.6831   3.5308  12.0201   C.ar      1 RES1   0.0000
    23 C16      5.0678   4.4103  11.0012   C.ar      1 RES1   0.0000
    24 O1       7.8642   1.8319  12.6918   O.3       1 RES1   0.0000
    25 C17      7.5622   1.2803  13.9546   C.3       1 RES1   0.0000
    26 H1       6.2192  10.4545   3.4616   H         1 RES1   0.0000
    27 H2       8.2804  11.6777   2.7899   H         1 RES1   0.0000
    28 H3      10.0751  10.9952   4.2767   H         1 RES1   0.0000
    29 H4      11.4248   9.5898   5.9019   H         1 RES1   0.0000
    30 H5      12.1731   8.0465   7.5220   H         1 RES1   0.0000
    31 H6      10.8445   6.6598   8.5911   H         1 RES1   0.0000
    32 H7       8.2148   3.5633  10.8201   H         1 RES1   0.0000
    33 H8       5.3684   2.0801  13.2679   H         1 RES1   0.0000
    34 H9       3.8021   3.5229  12.3194   H         1 RES1   0.0000
    35 H10      4.4428   4.9855  10.6238   H         1 RES1   0.0000
    36 H11      6.7745   0.7879  13.8918   H         1 RES1   0.0000
    37 H12      7.4441   1.9698  14.5735   H         1 RES1   0.0000
    38 H13      8.2449   0.7288  14.2289   H         1 RES1   0.0000
    39 N1C      5.7807   9.6006   7.6805   N.2       1 RES1   0.0000
    40 C1C      6.0787  10.3728   8.7069   C.2       1 RES1   0.0000
    41 C2C      4.9273  11.0661   9.0943   C.2       1 RES1   0.0000
    42 C3C      3.9269  10.6791   8.2566   C.2       1 RES1   0.0000
    43 N2C      4.4310   9.7700   7.3735   N.pl3     1 RES1   0.0000
    44 N3C      4.4612   8.1519   5.8483   N.ar      1 RES1   0.0000
    45 C4C      3.6328   8.9998   6.4956   C.ar      1 RES1   0.0000
    46 C5C      2.2766   9.0067   6.2314   C.ar      1 RES1   0.0000
    47 C6C      1.8564   8.1016   5.2830   C.ar      1 RES1   0.0000
    48 C7C      2.6402   7.2438   4.6188   C.ar      1 RES1   0.0000
    49 C8C      3.9859   7.2861   4.9258   C.ar      1 RES1   0.0000
    50 N4C      6.4292   6.7701   4.7019   N.2       1 RES1   0.0000
    51 C9C      5.1583   6.6066   4.2490   C.2       1 RES1   0.0000
    52 N5C      5.0284   5.7290   3.2478   N.2       1 RES1   0.0000
    53 C10C     6.3268   5.3548   3.1094   C.2       1 RES1   0.0000
    54 N6C      7.1277   5.9861   3.9799   N.2       1 RES1   0.0000
    55 C11C     6.7351   4.4221   2.0277   C.ar      1 RES1   0.0000
    56 C12C     5.7951   3.5554   1.4591   C.ar      1 RES1   0.0000
    57 C13C     6.1798   2.6759   0.4402   C.ar      1 RES1   0.0000
    58 C14C     7.5058   2.6641  -0.0101   C.ar      1 RES1   0.0000
    59 C15C     8.4458   3.5308   0.5585   C.ar      1 RES1   0.0000
    60 C16C     8.0611   4.4103   1.5774   C.ar      1 RES1   0.0000
    61 O1C      5.2647   1.8319  -0.1132   O.3       1 RES1   0.0000
    62 C17C     5.5667   1.2803  -1.3761   C.3       1 RES1   0.0000
    63 H1C      6.9097  10.4545   9.1169   H         1 RES1   0.0000
    64 H2C      4.8485  11.6777   9.7886   H         1 RES1   0.0000
    65 H3C      3.0538  10.9952   8.3018   H         1 RES1   0.0000
    66 H4C      1.7041   9.5898   6.6767   H         1 RES1   0.0000
    67 H5C      0.9558   8.0465   5.0566   H         1 RES1   0.0000
    68 H6C      2.2844   6.6598   3.9874   H         1 RES1   0.0000
    69 H7C      4.9141   3.5633   1.7585   H         1 RES1   0.0000
    70 H8C      7.7605   2.0801  -0.6893   H         1 RES1   0.0000
    71 H9C      9.3268   3.5229   0.2591   H         1 RES1   0.0000
    72 H10C     8.6861   4.9855   1.9547   H         1 RES1   0.0000
    73 H11C     6.3544   0.7879  -1.3132   H         1 RES1   0.0000
    74 H12C     5.6848   1.9698  -1.9950   H         1 RES1   0.0000
    75 H13C     4.8840   0.7288  -1.6503   H         1 RES1   0.0000
    76 C18      4.2406  -0.2659   2.6113   C.2       2 RES2   0.0000
    77 O2       4.2656   0.5220   1.4566   O.3       2 RES2   0.0000
@<TRIPOS>BOND
     1     1     2    1
     2     2     3    2
     3     3     4    1
     4     4     5    2
     5     5     6    1
     6     6     2    1
     7     7     1    1
     8     8     6    1
     9     9     8   ar
    10    10     9   ar
    11    11    10   ar
    12    12     7   ar
    13    13     1    1
    14    14    12    1
    15    15    14    2
    16    16    15    1
    17    17    13    1
    18    18    16    1
    19    19    18   ar
    20    20    19   ar
    21    21    20   ar
    22    22    21   ar
    23    23    18   ar
    24    24    20    1
    25    25    24    1
    26    26     3    1
    27    27     4    1
    28    28     5    1
    29    29     9    1
    30    30    10    1
    31    31    11    1
    32    32    19    1
    33    33    21    1
    34    34    22    1
    35    35    23    1
    36    36    25    1
    37    37    25    1
    38    38    25    1
    39    39     1    1
    40    40    39    2
    41    41    40    1
    42    42    41    2
    43    43    39    1
    44    44     1    1
    45    45    43    1
    46    46    45   ar
    47    47    46   ar
    48    48    47   ar
    49    49    44   ar
    50    50     1    1
    51    51    49    1
    52    52    51    2
    53    53    52    1
    54    54    50    1
    55    55    53    1
    56    56    55   ar
    57    57    56   ar
    58    58    57   ar
    59    59    58   ar
    60    60    55   ar
    61    61    57    1
    62    62    61    1
    63    63    40    1
    64    64    41    1
    65    65    42    1
    66    66    46    1
    67    67    47    1
    68    68    48    1
    69    69    56    1
    70    70    58    1
    71    71    59    1
    72    72    60    1
    73    73    62    1
    74    74    62    1
    75    75    62    1
    76     7     8   ar
    77    11    12   ar
    78    13    14    1
    79    16    17    2
    80    22    23   ar
    81    42    43    1
    82    44    45   ar
    83    48    49   ar
    84    50    51    1
    85    53    54    2
    86    59    60   ar
    87    76    77    1
@<TRIPOS>SUBSTRUCTURE
     1 RES1        1 GROUP             0 ****  ****    0  
     2 RES2       76 GROUP             0 ****  ****    0  
@<TRIPOS>CRYSIN
   13.1289    9.8488   25.1571   90.0000   90.0000   90.0000    60     1
