@<TRIPOS>MOLECULE
BEJRER
    77    87     2     0     0
SMALL
NO_CHARGES
****
Generated from the CSD

@<TRIPOS>ATOM
     1 Fe1      6.5063   8.3093   6.1720   Fe        1 RES1   0.0000
     2 N1       7.1243   9.6549   4.8586   N.2       1 RES1   0.0000
     3 C1       6.7014  10.3829   3.8291   C.2       1 RES1   0.0000
     4 C2       7.7255  11.1762   3.3353   C.2       1 RES1   0.0000
     5 C3       8.7821  10.8850   4.1254   C.2       1 RES1   0.0000
     6 N2       8.3020   9.9612   5.0067   N.pl3     1 RES1   0.0000
     7 N3       8.3709   8.2973   6.5744   N.ar      1 RES1   0.0000
     8 C4       9.2037   9.1609   5.9325   C.ar      1 RES1   0.0000
     9 C5      10.5675   9.1739   6.2066   C.ar      1 RES1   0.0000
    10 C6      11.0775   8.3043   7.1398   C.ar      1 RES1   0.0000
    11 C7      10.2265   7.4478   7.7644   C.ar      1 RES1   0.0000
    12 C8       8.8615   7.4267   7.4977   C.ar      1 RES1   0.0000
    13 N4       6.5960   6.9939   7.6355   N.2       1 RES1   0.0000
    14 C9       7.8452   6.7951   8.1347   C.2       1 RES1   0.0000
    15 N5       7.9168   5.8974   9.1346   N.2       1 RES1   0.0000
    16 C10      6.6156   5.5509   9.2234   C.2       1 RES1   0.0000
    17 N6       5.8166   6.1846   8.3495   N.2       1 RES1   0.0000
    18 C11      6.1419   4.5950  10.2579   C.ar      1 RES1   0.0000
    19 C12      7.0658   3.7917  10.9417   C.ar      1 RES1   0.0000
    20 C13      6.6234   2.8920  11.9169   C.ar      1 RES1   0.0000
    21 C14      5.2571   2.7915  12.2107   C.ar      1 RES1   0.0000
    22 C15      4.3332   3.5949  11.5268   C.ar      1 RES1   0.0000
    23 C16      4.7756   4.4976  10.5517   C.ar      1 RES1   0.0000
    24 O1       7.5212   2.1087  12.5835   O.3       1 RES1   0.0000
    25 C17      7.0268   1.3154  13.6401   C.3       1 RES1   0.0000
    26 H1       5.8465  10.3729   3.4613   H         1 RES1   0.0000
    27 H2       7.6813  11.7686   2.6194   H         1 RES1   0.0000
    28 H3       9.6293  11.2766   4.0365   H         1 RES1   0.0000
    29 H4      11.1387   9.7603   5.7671   H         1 RES1   0.0000
    30 H5      11.9884   8.3043   7.3299   H         1 RES1   0.0000
    31 H6      10.5401   6.8483   8.4013   H         1 RES1   0.0000
    32 H7       7.9767   3.8559  10.7467   H         1 RES1   0.0000
    33 H8       4.9578   2.1991  12.8575   H         1 RES1   0.0000
    34 H9       3.4223   3.5346  11.7194   H         1 RES1   0.0000
    35 H10      4.1640   5.0308  10.0974   H         1 RES1   0.0000
    36 H11      6.3761   0.7330  13.3068   H         1 RES1   0.0000
    37 H12      6.6494   1.8577  14.2894   H         1 RES1   0.0000
    38 H13      7.7294   0.8334  14.0129   H         1 RES1   0.0000
    39 N1C      5.8882   9.6549   7.4854   N.2       1 RES1   0.0000
    40 C1C      6.3111  10.3829   8.5149   C.2       1 RES1   0.0000
    41 C2C      5.2870  11.1762   9.0087   C.2       1 RES1   0.0000
    42 C3C      4.2304  10.8850   8.2186   C.2       1 RES1   0.0000
    43 N2C      4.7105   9.9612   7.3373   N.pl3     1 RES1   0.0000
    44 N3C      4.6416   8.2973   5.7696   N.ar      1 RES1   0.0000
    45 C4C      3.8088   9.1609   6.4115   C.ar      1 RES1   0.0000
    46 C5C      2.4450   9.1739   6.1374   C.ar      1 RES1   0.0000
    47 C6C      1.9350   8.3043   5.2042   C.ar      1 RES1   0.0000
    48 C7C      2.7860   7.4478   4.5796   C.ar      1 RES1   0.0000
    49 C8C      4.1510   7.4267   4.8463   C.ar      1 RES1   0.0000
    50 N4C      6.4165   6.9939   4.7085   N.2       1 RES1   0.0000
    51 C9C      5.1673   6.7951   4.2093   C.2       1 RES1   0.0000
    52 N5C      5.0957   5.8974   3.2094   N.2       1 RES1   0.0000
    53 C10C     6.3969   5.5509   3.1206   C.2       1 RES1   0.0000
    54 N6C      7.1959   6.1846   3.9945   N.2       1 RES1   0.0000
    55 C11C     6.8706   4.5950   2.0861   C.ar      1 RES1   0.0000
    56 C12C     5.9467   3.7917   1.4023   C.ar      1 RES1   0.0000
    57 C13C     6.3891   2.8920   0.4271   C.ar      1 RES1   0.0000
    58 C14C     7.7555   2.7915   0.1333   C.ar      1 RES1   0.0000
    59 C15C     8.6793   3.5949   0.8172   C.ar      1 RES1   0.0000
    60 C16C     8.2369   4.4976   1.7923   C.ar      1 RES1   0.0000
    61 O1C      5.4913   2.1087  -0.2395   O.3       1 RES1   0.0000
    62 C17C     5.9858   1.3154  -1.2961   C.3       1 RES1   0.0000
    63 H1C      7.1660  10.3729   8.8827   H         1 RES1   0.0000
    64 H2C      5.3312  11.7686   9.7246   H         1 RES1   0.0000
    65 H3C      3.3833  11.2766   8.3075   H         1 RES1   0.0000
    66 H4C      1.8738   9.7603   6.5769   H         1 RES1   0.0000
    67 H5C      1.0241   8.3043   5.0141   H         1 RES1   0.0000
    68 H6C      2.4724   6.8483   3.9427   H         1 RES1   0.0000
    69 H7C      5.0358   3.8559   1.5973   H         1 RES1   0.0000
    70 H8C      8.0547   2.1991  -0.5135   H         1 RES1   0.0000
    71 H9C      9.5902   3.5346   0.6246   H         1 RES1   0.0000
    72 H10C     8.8485   5.0308   2.2466   H         1 RES1   0.0000
    73 H11C     6.6364   0.7330  -0.9628   H         1 RES1   0.0000
    74 H12C     6.3631   1.8577  -1.9454   H         1 RES1   0.0000
    75 H13C     5.2831   0.8334  -1.6689   H         1 RES1   0.0000
    76 C18      4.4503  -0.3314   2.2713   C.2       2 RES2   0.0000
    77 O2       3.8257   0.6326   1.5307   O.3       2 RES2   0.0000
@<TRIPOS>BOND
     1     1     2    1
     2     2     3    2
     3     3     4    1
     4     4     5    2
     5     5     6    1
     6     6     2    1
     7     7     1    1
     8     8     6    1
     9     9     8   ar
    10    10     9   ar
    11    11    10   ar
    12    12     7   ar
    13    13     1    1
    14    14    12    1
    15    15    14    2
    16    16    15    1
    17    17    13    1
    18    18    16    1
    19    19    18   ar
    20    20    19   ar
    21    21    20   ar
    22    22    21   ar
    23    23    18   ar
    24    24    20    1
    25    25    24    1
    26    26     3    1
    27    27     4    1
    28    28     5    1
    29    29     9    1
    30    30    10    1
    31    31    11    1
    32    32    19    1
    33    33    21    1
    34    34    22    1
    35    35    23    1
    36    36    25    1
    37    37    25    1
    38    38    25    1
    39    39     1    1
    40    40    39    2
    41    41    40    1
    42    42    41    2
    43    43    39    1
    44    44     1    1
    45    45    43    1
    46    46    45   ar
    47    47    46   ar
    48    48    47   ar
    49    49    44   ar
    50    50     1    1
    51    51    49    1
    52    52    51    2
    53    53    52    1
    54    54    50    1
    55    55    53    1
    56    56    55   ar
    57    57    56   ar
    58    58    57   ar
    59    59    58   ar
    60    60    55   ar
    61    61    57    1
    62    62    61    1
    63    63    40    1
    64    64    41    1
    65    65    42    1
    66    66    46    1
    67    67    47    1
    68    68    48    1
    69    69    56    1
    70    70    58    1
    71    71    59    1
    72    72    60    1
    73    73    62    1
    74    74    62    1
    75    75    62    1
    76     7     8   ar
    77    11    12   ar
    78    13    14    1
    79    16    17    2
    80    22    23   ar
    81    42    43    1
    82    44    45   ar
    83    48    49   ar
    84    50    51    1
    85    53    54    2
    86    59    60   ar
    87    76    77    1
@<TRIPOS>SUBSTRUCTURE
     1 RES1        1 GROUP             0 ****  ****    0  
     2 RES2       76 GROUP             0 ****  ****    0  
@<TRIPOS>CRYSIN
   13.0125   10.0415   24.6880   90.0000   90.0000   90.0000    60     1
