@<TRIPOS>MOLECULE
BEMPEO
    85    92     5     0     0
SMALL
USER_CHARGES
****
Generated from the CSD

@<TRIPOS>ATOM
     1 Fe1     -0.4902   8.2914   8.7130   Fe        1 RES1   0.0000
     2 O1       1.1448   8.5730   7.5907   O.co2     1 RES1   0.0000
     3 O2       2.9844   9.8511   7.4862   O.co2     1 RES1  -1.0000
     4 O3       0.4622   9.6089   9.8701   O.co2     1 RES1   0.0000
     5 O4       2.2597  10.9564   9.9293   O.co2     1 RES1   0.0000
     6 O5      -1.1898   6.7473   7.6256   O.co2     1 RES1   0.0000
     7 O6      -1.3450   4.5326   7.6291   O.co2     1 RES1  -1.0000
     8 C1       1.9659   9.4661   8.0334   C.2       1 RES1   0.0000
     9 C2       1.5525  10.0872   9.3961   C.2       1 RES1   0.0000
    10 C3      -0.9372   5.5784   8.0996   C.2       1 RES1   0.0000
    11 O1B     -2.1252   8.5730   9.8352   O.co2     1 RES1   0.0000
    12 C1B     -2.9463   9.4661   9.3926   C.2       1 RES1   0.0000
    13 O2B     -3.9648   9.8511   9.9398   O.co2     1 RES1   0.0000
    14 C2B     -2.5329  10.0872   8.0299   C.2       1 RES1   0.0000
    15 O3B     -1.4425   9.6089   7.5559   O.co2     1 RES1   0.0000
    16 C3B     -0.0432   5.5784   9.3264   C.2       1 RES1   0.0000
    17 O5B      0.2094   6.7473   9.8004   O.co2     1 RES1   0.0000
    18 O6B      0.3647   4.5326   9.7969   O.co2     1 RES1   0.0000
    19 O4B     -3.2400  10.9564   7.4966   O.co2     1 RES1  -1.0000
    20 S1       2.9805   6.4560  -1.7154   S.3       2 RES2   0.0000
    21 S2       0.5825   5.0085  -2.5790   S.3       2 RES2   0.0000
    22 S3       4.4758   6.0083  -4.2230   S.3       2 RES2   0.0000
    23 S4       1.5659   4.3703  -5.2598   S.3       2 RES2   0.0000
    24 S5       1.6194   7.0938   1.0905   S.3       2 RES2   1.0000
    25 S6      -0.8235   5.6759   0.2753   S.3       2 RES2   0.0000
    26 S7       0.6740   7.7485   3.8048   S.3       2 RES2   0.0000
    27 S8      -2.2775   6.1115   2.7780   S.3       2 RES2   0.0000
    28 C4       1.3700   5.9039  -1.3209   C.2       2 RES2   0.0000
    29 C5       1.9179   5.0863  -3.6873   C.2       2 RES2   0.0000
    30 C6       3.0711   4.6834  -6.2280   C.3       2 RES2   0.0000
    31 H1       3.6877   3.9472  -6.0921   H         2 RES2   0.0000
    32 H2       2.8387   4.7052  -7.1690   H         2 RES2   0.0000
    33 C7       3.7764   5.9912  -5.8621   C.3       2 RES2   0.0000
    34 H3       3.1399   6.7195  -5.9353   H         2 RES2   0.0000
    35 H4       4.4850   6.1539  -6.5034   H         2 RES2   0.0000
    36 C8       3.0360   5.7412  -3.2865   C.2       2 RES2   0.0000
    37 C9       0.7917   6.1758  -0.1290   C.2       2 RES2   0.0000
    38 C10     -0.7956   6.3643   1.8785   C.2       2 RES2   0.0000
    39 C11     -1.7793   6.5985   4.4715   C.3       2 RES2   0.0000
    40 H5      -2.5748   6.7096   5.0152   H         2 RES2   0.0000
    41 H6      -1.2499   5.8860   4.8618   H         2 RES2   0.0000
    42 C12     -0.9823   7.8765   4.5029   C.3       2 RES2   0.0000
    43 H7      -0.9078   8.1722   5.4230   H         2 RES2   0.0000
    44 H8      -1.4702   8.5591   4.0149   H         2 RES2   0.0000
    45 C13      0.3317   7.0073   2.2619   C.2       2 RES2   0.0000
    46 S9      -0.2354   1.7452  -0.6510   S.3       3 RES3   0.0000
    47 S10     -2.5863   0.2113  -1.5140   S.3       3 RES3   0.0000
    48 S11      1.2993   1.3524  -3.1109   S.3       3 RES3   0.0000
    49 S12     -1.5233  -0.4229  -4.2038   S.3       3 RES3   0.0000
    50 S13     -1.6494   2.3641   2.1448   S.3       3 RES3   0.0000
    51 S14     -4.0348   0.8664   1.3115   S.3       3 RES3   0.0000
    52 S15     -2.7758   3.1796   4.7751   S.3       3 RES3   0.0000
    53 S16     -5.5815   1.4792   3.7480   S.3       3 RES3   0.0000
    54 C14     -1.8472   1.1808  -0.2893   C.2       3 RES3   0.0000
    55 C15     -1.2503   0.3374  -2.6313   C.2       3 RES3   0.0000
    56 C16      0.0450  -0.2064  -5.0152   C.3       3 RES3   0.0000
    57 H9       0.5984  -0.9665  -4.7782   H         3 RES3   0.0000
    58 H10     -0.1159  -0.2620  -5.9701   H         3 RES3   0.0000
    59 C17      0.8096   0.9486  -4.7921   C.3       3 RES3   0.0000
    60 H11      0.3108   1.7047  -5.1407   H         3 RES3   0.0000
    61 H12      1.6187   0.8732  -5.3219   H         3 RES3   0.0000
    62 C18     -0.1856   1.0359  -2.2305   C.2       3 RES3   0.0000
    63 C19     -2.4533   1.4507   0.8852   C.2       3 RES3   0.0000
    64 C20     -4.1184   1.6868   2.8335   C.2       3 RES3   0.0000
    65 C21     -5.0133   1.7345   5.4369   C.3       3 RES3   0.0000
    66 H13     -5.7343   2.2087   5.8795   H         3 RES3   0.0000
    67 H14     -4.9925   0.8514   5.8342   H         3 RES3   0.0000
    68 C22     -3.9272   2.3139   5.8412   C.3       3 RES3   0.0000
    69 H15     -3.4108   1.6332   6.2977   H         3 RES3   0.0000
    70 H16     -4.1985   2.9529   6.5208   H         3 RES3   0.0000
    71 C23     -3.0235   2.3794   3.2273   C.2       3 RES3   0.0000
    72 O7      -0.4902   1.9686   8.7130   O.3       4 RES4   1.0000
    73 H17      0.2587   1.4070   8.3226   H         4 RES4   0.0000
    74 H17B    -1.2390   1.4070   9.1033   H         4 RES4   0.0000
    75 N1       4.6433   7.3327   8.7130   N.ar      5 RES5   0.0000
    76 C24      3.7639   6.4774   9.3612   C.ar      5 RES5   0.0000
    77 H18      3.0910   6.9239   9.8247   H         5 RES5   0.0000
    78 C25      3.6790   5.0962   9.4658   C.ar      5 RES5   0.0000
    79 H19      3.0432   4.6576   9.9816   H         5 RES5   0.0000
    80 C26      4.6433   4.4393   8.7130   C.ar      5 RES5   0.0000
    81 H20      4.6433   3.5086   8.7130   H         5 RES5   0.0000
    82 C25B     5.6076   5.0962   7.9602   C.ar      5 RES5   0.0000
    83 C24B     5.5227   6.4774   8.0647   C.ar      5 RES5   0.0000
    84 H18B     6.1956   6.9239   7.6012   H         5 RES5   0.0000
    85 H19B     6.2434   4.6576   7.4444   H         5 RES5   0.0000
@<TRIPOS>BOND
     1     1     2    1
     2     2     8   un
     3     3     8   un
     4     4     1    1
     5     5     9   un
     6     6     1    1
     7     7    10   un
     8     8     9   un
     9     9     4   un
    10    10     6   un
    11    11     1    1
    12    12    11   un
    13    13    12   un
    14    14    12   un
    15    15     1    1
    16    16    10   un
    17    17     1    1
    18    18    16   un
    19    19    14   un
    20    14    15   un
    21    16    17   un
    22    20    28    1
    23    21    28    1
    24    22    33    1
    25    23    29    1
    26    24    37    1
    27    25    37    1
    28    26    42    1
    29    27    38    1
    30    28    37    2
    31    29    21    1
    32    30    23    1
    33    31    30    1
    34    32    30    1
    35    33    30    1
    36    34    33    1
    37    35    33    1
    38    36    20    1
    39    38    25    1
    40    39    27    1
    41    40    39    1
    42    41    39    1
    43    42    39    1
    44    43    42    1
    45    44    42    1
    46    45    24    1
    47    22    36    1
    48    26    45    1
    49    29    36    2
    50    38    45    2
    51    46    54    1
    52    47    54    1
    53    48    59    1
    54    49    55    1
    55    50    63    1
    56    51    63    1
    57    52    68    1
    58    53    64    1
    59    54    63    2
    60    55    47    1
    61    56    49    1
    62    57    56    1
    63    58    56    1
    64    59    56    1
    65    60    59    1
    66    61    59    1
    67    62    46    1
    68    64    51    1
    69    65    53    1
    70    66    65    1
    71    67    65    1
    72    68    65    1
    73    69    68    1
    74    70    68    1
    75    71    50    1
    76    48    62    1
    77    52    71    1
    78    55    62    2
    79    64    71    2
    80    72    73    1
    81    74    72    1
    82    75    76   ar
    83    76    77    1
    84    78    76   ar
    85    79    78    1
    86    80    78   ar
    87    81    80    1
    88    82    80   ar
    89    83    75   ar
    90    84    83    1
    91    85    82    1
    92    82    83   ar
@<TRIPOS>SUBSTRUCTURE
     1 RES1        1 GROUP             0 ****  ****    0  
     2 RES2       20 GROUP             0 ****  ****    0  
     3 RES3       46 GROUP             0 ****  ****    0  
     4 RES4       72 GROUP             0 ****  ****    0  
     5 RES5       75 GROUP             0 ****  ****    0  
@<TRIPOS>CRYSIN
   10.2670   19.8450   34.9070   90.0000   93.2200   90.0000    15     1
