@<TRIPOS>MOLECULE
BEQBAE
    77    78     3     0     0
SMALL
USER_CHARGES
****
Generated from the CSD

@<TRIPOS>ATOM
     1 Fe1      0.0000   0.0000   0.0000   Fe        1 RES1   1.0000
     2 S1       1.7732  -0.8052   2.6104   S.o2      1 RES1   0.0000
     3 O1       1.1991  -1.0106   1.2222   O.3       1 RES1   0.0000
     4 O2       0.6385  -0.8578   3.5576   O.3       1 RES1  -1.0000
     5 O3       2.7275  -1.8649   2.8680   O.2       1 RES1   0.0000
     6 O4       2.4098   0.5167   2.6351   O.2       1 RES1   0.0000
     7 N1      -1.3746   0.2090   1.6019   N.3       1 RES1   0.0000
     8 H1      -0.9335  -0.1204   2.2527   H         1 RES1   0.0000
     9 N2       0.9945   1.7983   0.4082   N.3       1 RES1   0.0000
    10 H2       1.5313   1.6167   1.0364   H         1 RES1   0.0000
    11 C1      -2.4474  -0.7786   1.2943   C.3       1 RES1   0.0000
    12 H3      -3.0462  -0.4181   0.5932   H         1 RES1   0.0000
    13 H4      -2.9877  -0.9525   2.1054   H         1 RES1   0.0000
    14 C2       1.8056   2.0719  -0.8124   C.3       1 RES1   0.0000
    15 H5       2.5083   2.7379  -0.6056   H         1 RES1   0.0000
    16 H6       1.2260   2.4437  -1.5237   H         1 RES1   0.0000
    17 C3       0.1013   2.9178   0.8447   C.3       1 RES1   0.0000
    18 H7      -0.5867   3.0705   0.1353   H         1 RES1   0.0000
    19 C4      -0.6181   2.5156   2.1454   C.3       1 RES1   0.0000
    20 H8      -0.9161   3.3503   2.5868   H         1 RES1   0.0000
    21 H9       0.0574   2.1019   2.7392   H         1 RES1   0.0000
    22 C5      -1.8311   1.5641   2.0991   C.3       1 RES1   0.0000
    23 C6       0.8815   4.2143   1.0510   C.3       1 RES1   0.0000
    24 H10      1.3343   4.4594   0.2170   H         1 RES1   0.0000
    25 H11      1.5475   4.0859   1.7585   H         1 RES1   0.0000
    26 H12      0.2639   4.9298   1.3098   H         1 RES1   0.0000
    27 C7      -2.3425   1.4014   3.5407   C.3       1 RES1   0.0000
    28 H13     -2.6376   2.2711   3.8828   H         1 RES1   0.0000
    29 H14     -1.6208   1.0557   4.1064   H         1 RES1   0.0000
    30 H15     -3.0952   0.7738   3.5515   H         1 RES1   0.0000
    31 C8      -2.9560   2.1316   1.2305   C.3       1 RES1   0.0000
    32 H16     -2.6723   2.1392   0.2925   H         1 RES1   0.0000
    33 H17     -3.1605   3.0461   1.5174   H         1 RES1   0.0000
    34 H18     -3.7556   1.5729   1.3255   H         1 RES1   0.0000
    35 N1B      1.3746  -0.2090  -1.6019   N.3       1 RES1   0.0000
    36 H1B      0.9335   0.1204  -2.2527   H         1 RES1   0.0000
    37 N2B     -0.9945  -1.7983  -0.4082   N.3       1 RES1   0.0000
    38 H2B     -1.5313  -1.6167  -1.0364   H         1 RES1   0.0000
    39 C1B      2.4474   0.7786  -1.2943   C.3       1 RES1   0.0000
    40 H3B      3.0462   0.4181  -0.5932   H         1 RES1   0.0000
    41 H4B      2.9877   0.9525  -2.1054   H         1 RES1   0.0000
    42 C2B     -1.8056  -2.0719   0.8124   C.3       1 RES1   0.0000
    43 H5B     -2.5083  -2.7379   0.6056   H         1 RES1   0.0000
    44 H6B     -1.2260  -2.4437   1.5237   H         1 RES1   0.0000
    45 C3B     -0.1013  -2.9178  -0.8447   C.3       1 RES1   0.0000
    46 H7B      0.5867  -3.0705  -0.1353   H         1 RES1   0.0000
    47 C4B      0.6181  -2.5156  -2.1454   C.3       1 RES1   0.0000
    48 H8B      0.9161  -3.3503  -2.5868   H         1 RES1   0.0000
    49 H9B     -0.0574  -2.1019  -2.7392   H         1 RES1   0.0000
    50 C5B      1.8311  -1.5641  -2.0991   C.3       1 RES1   0.0000
    51 C6B     -0.8815  -4.2143  -1.0510   C.3       1 RES1   0.0000
    52 H10B    -1.3343  -4.4594  -0.2170   H         1 RES1   0.0000
    53 H11B    -1.5475  -4.0859  -1.7585   H         1 RES1   0.0000
    54 H12B    -0.2639  -4.9298  -1.3098   H         1 RES1   0.0000
    55 C7B      2.3425  -1.4014  -3.5407   C.3       1 RES1   0.0000
    56 H13B     2.6376  -2.2711  -3.8828   H         1 RES1   0.0000
    57 H14B     1.6208  -1.0557  -4.1064   H         1 RES1   0.0000
    58 H15B     3.0952  -0.7738  -3.5515   H         1 RES1   0.0000
    59 C8B      2.9560  -2.1316  -1.2305   C.3       1 RES1   0.0000
    60 H16B     2.6723  -2.1392  -0.2925   H         1 RES1   0.0000
    61 H17B     3.1605  -3.0461  -1.5174   H         1 RES1   0.0000
    62 H18B     3.7556  -1.5729  -1.3255   H         1 RES1   0.0000
    63 S1B     -1.7732   0.8052  -2.6104   S.o2      1 RES1   0.0000
    64 O1B     -1.1991   1.0106  -1.2222   O.3       1 RES1   0.0000
    65 O2B     -0.6385   0.8578  -3.5576   O.3       1 RES1  -1.0000
    66 O3B     -2.7275   1.8649  -2.8680   O.2       1 RES1   0.0000
    67 O4B     -2.4098  -0.5167  -2.6351   O.2       1 RES1   0.0000
    68 O5       2.5587   2.3805   4.6608   O.3       2 RES2   0.0000
    69 H19      2.4931   1.8380   4.0287   H         2 RES2   0.0000
    70 H20      2.9553   3.0625   4.3633   H         2 RES2   0.0000
    71 O6       1.1628  -0.6482   6.1496   O.3       3 RES3   0.0000
    72 H21      2.2078   0.0000   6.2890   H         3 RES3   1.0000
    73 H22      0.9344  -0.8802   5.3155   H         3 RES3   0.0000
    74 H23      1.2925  -1.4186   6.5531   H         3 RES3   0.0000
    75 O6B      3.2529   0.6482   6.4284   O.3       3 RES3   0.0000
    76 H22B     3.4812   0.8802   7.2625   H         3 RES3   0.0000
    77 H23B     3.1232   1.4186   6.0249   H         3 RES3   0.0000
@<TRIPOS>BOND
     1     1     3    1
     2     2     3    1
     3     4     2    1
     4     5     2    2
     5     6     2    2
     6     7     1    1
     7     8     7    1
     8     9     1    1
     9    10     9    1
    10    11     7    1
    11    12    11    1
    12    13    11    1
    13    14     9    1
    14    15    14    1
    15    16    14    1
    16    17     9    1
    17    18    17    1
    18    19    17    1
    19    20    19    1
    20    21    19    1
    21    22     7    1
    22    23    17    1
    23    24    23    1
    24    25    23    1
    25    26    23    1
    26    27    22    1
    27    28    27    1
    28    29    27    1
    29    30    27    1
    30    31    22    1
    31    32    31    1
    32    33    31    1
    33    34    31    1
    34    35     1    1
    35    36    35    1
    36    37     1    1
    37    38    37    1
    38    39    14    1
    39    40    39    1
    40    41    39    1
    41    42    11    1
    42    43    42    1
    43    44    42    1
    44    45    37    1
    45    46    45    1
    46    47    45    1
    47    48    47    1
    48    49    47    1
    49    50    35    1
    50    51    45    1
    51    52    51    1
    52    53    51    1
    53    54    51    1
    54    55    50    1
    55    56    55    1
    56    57    55    1
    57    58    55    1
    58    59    50    1
    59    60    59    1
    60    61    59    1
    61    62    59    1
    62    63    64    1
    63    64     1    1
    64    65    63    1
    65    66    63    2
    66    67    63    2
    67    19    22    1
    68    35    39    1
    69    37    42    1
    70    47    50    1
    71    68    69    1
    72    70    68    1
    73    71    72    1
    74    72    75    1
    75    73    71    1
    76    74    71    1
    77    75    76    1
    78    77    75    1
@<TRIPOS>SUBSTRUCTURE
     1 RES1        1 GROUP             0 ****  ****    0  
     2 RES2       68 GROUP             0 ****  ****    0  
     3 RES3       71 GROUP             0 ****  ****    0  
@<TRIPOS>CRYSIN
    8.1297   12.9437   13.1149   90.0000  106.4510   90.0000    14     1
