@<TRIPOS>MOLECULE
BERTAT
   104   112     2     0     0
SMALL
NO_CHARGES
****
Generated from the CSD

@<TRIPOS>ATOM
     1 Fe1      0.0000   0.0000   0.0000   Fe        1 RES1   0.0000
     2 O1      -0.7775  -1.0565  -2.5661   O.3       1 RES1   0.0000
     3 O2       1.5343   2.3803   0.5105   O.3       1 RES1   0.0000
     4 N1       0.0063  -0.1548  -1.8802   N.2       1 RES1   0.0000
     5 N2       0.9052   1.5987  -0.4233   N.2       1 RES1   0.0000
     6 C1       0.5355   0.8194  -2.5491   C.2       1 RES1   0.0000
     7 C2       1.1765   1.8127  -1.6741   C.2       1 RES1   0.0000
     8 C3       0.4439   0.9545  -4.0263   C.3       1 RES1   0.0000
     9 C4       2.0712   2.8929  -2.1733   C.3       1 RES1   0.0000
    10 B1      -0.9077  -2.4170  -1.9073   B         1 RES1   0.0000
    11 C5      -2.0039  -3.2320  -2.7721   C.ar      1 RES1   0.0000
    12 C6      -2.6931  -2.7094  -3.8441   C.ar      1 RES1   0.0000
    13 C7      -3.6191  -3.4668  -4.5583   C.ar      1 RES1   0.0000
    14 C8      -3.8561  -4.7629  -4.2187   C.ar      1 RES1   0.0000
    15 C9      -3.2072  -5.3010  -3.1468   C.ar      1 RES1   0.0000
    16 C10     -2.2840  -4.5461  -2.4405   C.ar      1 RES1   0.0000
    17 C11      0.5201  -3.1746  -1.9039   C.ar      1 RES1   0.0000
    18 C12      0.9956  -3.9357  -0.8535   C.ar      1 RES1   0.0000
    19 C13      2.1823  -4.6422  -0.9248   C.ar      1 RES1   0.0000
    20 C14      2.9261  -4.6249  -2.0703   C.ar      1 RES1   0.0000
    21 C15      2.4937  -3.8848  -3.1253   C.ar      1 RES1   0.0000
    22 C16      1.3156  -3.1721  -3.0506   C.ar      1 RES1   0.0000
    23 N3       1.8305  -0.8367   0.1834   N.2       1 RES1   0.0000
    24 N4       3.8568  -1.5456  -0.3317   N.pl3     1 RES1   0.0000
    25 C17      2.4423  -1.3473   1.2961   C.2       1 RES1   0.0000
    26 C18      3.6758  -1.7909   0.9950   C.2       1 RES1   0.0000
    27 C19      2.7378  -0.9921  -0.7686   C.2       1 RES1   0.0000
    28 C20      5.0498  -1.8640  -1.1116   C.3       1 RES1   0.0000
    29 H1       1.0855   1.5541  -4.4259   H         1 RES1   0.0000
    30 H2       0.9035   0.3169  -4.3353   H         1 RES1   0.0000
    31 H3      -0.2098   1.3149  -4.1769   H         1 RES1   0.0000
    32 H4       2.2902   3.4030  -1.5847   H         1 RES1   0.0000
    33 H5       2.6786   2.5952  -2.6261   H         1 RES1   0.0000
    34 H6       1.6100   3.4593  -2.8525   H         1 RES1   0.0000
    35 H7      -2.5974  -1.7679  -4.0637   H         1 RES1   0.0000
    36 H8      -4.0357  -3.0815  -5.1730   H         1 RES1   0.0000
    37 H9      -4.4510  -5.3068  -4.6976   H         1 RES1   0.0000
    38 H10     -3.3584  -6.1090  -2.9317   H         1 RES1   0.0000
    39 H11     -1.8527  -4.9517  -1.7319   H         1 RES1   0.0000
    40 H12      0.5089  -3.9028  -0.0679   H         1 RES1   0.0000
    41 H13      2.3819  -5.1617  -0.2377   H         1 RES1   0.0000
    42 H14      3.6588  -5.1849  -2.1054   H         1 RES1   0.0000
    43 H15      2.9826  -3.8577  -3.8712   H         1 RES1   0.0000
    44 H16      1.1148  -2.6236  -3.7467   H         1 RES1   0.0000
    45 H17      2.0567  -1.3417   2.1054   H         1 RES1   0.0000
    46 H18      4.3057  -2.2459   1.4376   H         1 RES1   0.0000
    47 H19      2.6751  -0.8079  -1.6187   H         1 RES1   0.0000
    48 H20      5.2567  -2.7747  -1.0753   H         1 RES1   0.0000
    49 H21      5.6748  -1.2741  -0.8263   H         1 RES1   0.0000
    50 H22      4.9468  -1.7127  -1.9356   H         1 RES1   0.0000
    51 N1A     -0.0063   0.1548   1.8802   N.2       1 RES1   0.0000
    52 N2A     -0.9052  -1.5987   0.4233   N.2       1 RES1   0.0000
    53 N3A     -1.8305   0.8367  -0.1834   N.2       1 RES1   0.0000
    54 B1A      0.9077   2.4170   1.9073   B         1 RES1   0.0000
    55 O2A     -1.5343  -2.3803  -0.5105   O.3       1 RES1   0.0000
    56 O1A      0.7775   1.0565   2.5661   O.3       1 RES1   0.0000
    57 C1A     -0.5355  -0.8194   2.5491   C.2       1 RES1   0.0000
    58 C2A     -1.1765  -1.8127   1.6741   C.2       1 RES1   0.0000
    59 C17A    -2.4423   1.3473  -1.2961   C.2       1 RES1   0.0000
    60 C19A    -2.7378   0.9921   0.7686   C.2       1 RES1   0.0000
    61 C5A      2.0039   3.2320   2.7721   C.ar      1 RES1   0.0000
    62 C11A    -0.5201   3.1746   1.9039   C.ar      1 RES1   0.0000
    63 C3A     -0.4439  -0.9545   4.0263   C.3       1 RES1   0.0000
    64 C4A     -2.0712  -2.8929   2.1733   C.3       1 RES1   0.0000
    65 C18A    -3.6758   1.7909  -0.9950   C.2       1 RES1   0.0000
    66 H17A    -2.0567   1.3417  -2.1054   H         1 RES1   0.0000
    67 N4A     -3.8568   1.5456   0.3317   N.pl3     1 RES1   0.0000
    68 H19A    -2.6751   0.8079   1.6187   H         1 RES1   0.0000
    69 C6A      2.6931   2.7094   3.8441   C.ar      1 RES1   0.0000
    70 C10A     2.2840   4.5461   2.4405   C.ar      1 RES1   0.0000
    71 C12A    -0.9956   3.9357   0.8535   C.ar      1 RES1   0.0000
    72 C16A    -1.3156   3.1721   3.0506   C.ar      1 RES1   0.0000
    73 H1A     -1.0855  -1.5541   4.4259   H         1 RES1   0.0000
    74 H2A     -0.9035  -0.3169   4.3353   H         1 RES1   0.0000
    75 H3A      0.2098  -1.3149   4.1769   H         1 RES1   0.0000
    76 H4A     -2.2902  -3.4030   1.5847   H         1 RES1   0.0000
    77 H5A     -2.6786  -2.5952   2.6261   H         1 RES1   0.0000
    78 H6A     -1.6100  -3.4593   2.8525   H         1 RES1   0.0000
    79 H18A    -4.3057   2.2459  -1.4376   H         1 RES1   0.0000
    80 C20A    -5.0498   1.8640   1.1116   C.3       1 RES1   0.0000
    81 C7A      3.6191   3.4668   4.5583   C.ar      1 RES1   0.0000
    82 H7A      2.5974   1.7679   4.0637   H         1 RES1   0.0000
    83 C9A      3.2072   5.3010   3.1468   C.ar      1 RES1   0.0000
    84 H11A     1.8527   4.9517   1.7319   H         1 RES1   0.0000
    85 C13A    -2.1823   4.6422   0.9248   C.ar      1 RES1   0.0000
    86 H12A    -0.5089   3.9028   0.0679   H         1 RES1   0.0000
    87 C15A    -2.4937   3.8848   3.1253   C.ar      1 RES1   0.0000
    88 H16A    -1.1148   2.6236   3.7467   H         1 RES1   0.0000
    89 H20A    -5.2567   2.7747   1.0753   H         1 RES1   0.0000
    90 H21A    -5.6748   1.2741   0.8263   H         1 RES1   0.0000
    91 H22A    -4.9468   1.7127   1.9356   H         1 RES1   0.0000
    92 C8A      3.8561   4.7629   4.2187   C.ar      1 RES1   0.0000
    93 H8A      4.0357   3.0815   5.1730   H         1 RES1   0.0000
    94 H10A     3.3584   6.1090   2.9317   H         1 RES1   0.0000
    95 C14A    -2.9261   4.6249   2.0703   C.ar      1 RES1   0.0000
    96 H13A    -2.3819   5.1617   0.2377   H         1 RES1   0.0000
    97 H15A    -2.9826   3.8577   3.8712   H         1 RES1   0.0000
    98 H9A      4.4510   5.3068   4.6976   H         1 RES1   0.0000
    99 H14A    -3.6588   5.1849   2.1054   H         1 RES1   0.0000
   100 C21      7.1825   9.0068   5.5895   C.3       2 RES2   0.0000
   101 Cl1      6.7896   7.5210   4.7836   Cl        2 RES2   0.0000
   102 Cl2      7.6403  10.2553   4.5085   Cl        2 RES2   0.0000
   103 H23      8.1625   8.4588   5.7616   H         2 RES2   0.0000
   104 H24      6.5399   9.2908   6.0446   H         2 RES2   0.0000
@<TRIPOS>BOND
     1     1     4    1
     2     2     4    1
     3     3     5    1
     4     4     6    2
     5     5     1    1
     6     6     7    1
     7     7     5    2
     8     8     6    1
     9     9     7    1
    10    10     2    1
    11    11    10    1
    12    12    11   ar
    13    13    12   ar
    14    14    13   ar
    15    15    14   ar
    16    16    11   ar
    17    17    10    1
    18    18    17   ar
    19    19    18   ar
    20    20    19   ar
    21    21    20   ar
    22    22    17   ar
    23    23     1    1
    24    24    26    1
    25    25    23    1
    26    26    25    2
    27    27    23    1
    28    28    24    1
    29    29     8    1
    30    30     8    1
    31    31     8    1
    32    32     9    1
    33    33     9    1
    34    34     9    1
    35    35    12    1
    36    36    13    1
    37    37    14    1
    38    38    15    1
    39    39    16    1
    40    40    18    1
    41    41    19    1
    42    42    20    1
    43    43    21    1
    44    44    22    1
    45    45    25    1
    46    46    26    1
    47    47    27    1
    48    48    28    1
    49    49    28    1
    50    50    28    1
    51    51     1    1
    52    52     1    1
    53    53     1    1
    54    54     3    1
    55    55    10    1
    56    56    51    1
    57    57    51    2
    58    58    52    2
    59    59    53    1
    60    60    53    1
    61    61    54    1
    62    62    54    1
    63    63    57    1
    64    64    58    1
    65    65    59    2
    66    66    59    1
    67    67    60    2
    68    68    60    1
    69    69    61   ar
    70    70    61   ar
    71    71    62   ar
    72    72    62   ar
    73    73    63    1
    74    74    63    1
    75    75    63    1
    76    76    64    1
    77    77    64    1
    78    78    64    1
    79    79    65    1
    80    80    67    1
    81    81    69   ar
    82    82    69    1
    83    83    70   ar
    84    84    70    1
    85    85    71   ar
    86    86    71    1
    87    87    72   ar
    88    88    72    1
    89    89    80    1
    90    90    80    1
    91    91    80    1
    92    92    81   ar
    93    93    81    1
    94    94    83    1
    95    95    85   ar
    96    96    85    1
    97    97    87    1
    98    98    92    1
    99    99    95    1
   100    15    16   ar
   101    21    22   ar
   102    24    27    2
   103    52    55    1
   104    54    56    1
   105    57    58    1
   106    65    67    1
   107    83    92   ar
   108    87    95   ar
   109   100   101    1
   110   102   100    1
   111   103   100    1
   112   104   100    1
@<TRIPOS>SUBSTRUCTURE
     1 RES1        1 GROUP             0 ****  ****    0  
     2 RES2      100 GROUP             0 ****  ****    0  
@<TRIPOS>CRYSIN
    9.8230   10.4870   13.1250   69.3500   64.9300   79.0000     2     1
