@<TRIPOS>MOLECULE
BETRAW
    86    91     2     0     0
SMALL
NO_CHARGES
****
Generated from the CSD

@<TRIPOS>ATOM
     1 C1       6.1044   4.0944   4.3640   C.2       1 RES1   0.0000
     2 C2       6.8562   5.3180   3.8540   C.3       1 RES1   0.0000
     3 C3       4.7600   4.1968   4.5581   C.2       1 RES1   0.0000
     4 H1       4.3462   5.0112   4.3859   H         1 RES1   0.0000
     5 C4       3.9680   3.1137   5.0087   C.2       1 RES1   0.0000
     6 C5       2.5378   3.2824   5.3027   C.ar      1 RES1   0.0000
     7 C6       1.9633   4.5206   5.5849   C.ar      1 RES1   0.0000
     8 H2       2.5001   5.2796   5.6245   H         1 RES1   0.0000
     9 C7       0.6077   4.6331   5.8036   C.ar      1 RES1   0.0000
    10 H3       0.2376   5.4626   6.0032   H         1 RES1   0.0000
    11 C8      -0.2019   3.5181   5.7284   C.ar      1 RES1   0.0000
    12 H4      -1.1201   3.6002   5.8515   H         1 RES1   0.0000
    13 C9       0.3519   2.2787   5.4687   C.ar      1 RES1   0.0000
    14 H5      -0.1945   1.5258   5.4345   H         1 RES1   0.0000
    15 C10      1.7039   2.1526   5.2622   C.ar      1 RES1   0.0000
    16 H6       2.0694   1.3130   5.0954   H         1 RES1   0.0000
    17 C11      7.1726  -0.3468   6.7975   C.2       1 RES1   0.0000
    18 C12      8.1915  -0.3429   7.9214   C.3       1 RES1   0.0000
    19 C13      6.6215  -1.5300   6.3997   C.2       1 RES1   0.0000
    20 H7       6.8846  -2.3123   6.8304   H         1 RES1   0.0000
    21 C14      5.6675  -1.6155   5.3608   C.2       1 RES1   0.0000
    22 C15      4.9675  -2.8830   5.0558   C.ar      1 RES1   0.0000
    23 C16      4.9113  -3.9476   5.9485   C.ar      1 RES1   0.0000
    24 H8       5.3371  -3.8848   6.7743   H         1 RES1   0.0000
    25 C17      4.2248  -5.1040   5.6149   C.ar      1 RES1   0.0000
    26 H9       4.1867  -5.8116   6.2165   H         1 RES1   0.0000
    27 C18      3.5995  -5.2066   4.3927   C.ar      1 RES1   0.0000
    28 H10      3.1375  -5.9832   4.1712   H         1 RES1   0.0000
    29 C19      3.6575  -4.1618   3.4958   C.ar      1 RES1   0.0000
    30 H11      3.2396  -4.2334   2.6687   H         1 RES1   0.0000
    31 C20      4.3395  -3.0045   3.8308   C.ar      1 RES1   0.0000
    32 H12      4.3767  -2.3004   3.2238   H         1 RES1   0.0000
    33 C21      6.4019   1.5534   1.6648   C.2       1 RES1   0.0000
    34 C22      5.6938   2.1343   0.4471   C.3       1 RES1   0.0000
    35 C23      7.7254   1.2750   1.5900   C.2       1 RES1   0.0000
    36 H13      8.1746   1.4478   0.7943   H         1 RES1   0.0000
    37 C24      8.4530   0.7272   2.6824   C.2       1 RES1   0.0000
    38 C25      9.8809   0.3782   2.5429   C.ar      1 RES1   0.0000
    39 C26     10.4449  -0.5432   3.4330   C.ar      1 RES1   0.0000
    40 H14      9.9105  -0.9620   4.0687   H         1 RES1   0.0000
    41 C27     11.7898  -0.8275   3.3673   C.ar      1 RES1   0.0000
    42 H15     12.1611  -1.4577   3.9415   H         1 RES1   0.0000
    43 C28     12.5956  -0.1726   2.4404   C.ar      1 RES1   0.0000
    44 H16     13.5119  -0.3289   2.4308   H         1 RES1   0.0000
    45 C29     12.0409   0.6983   1.5463   C.ar      1 RES1   0.0000
    46 H17     12.5766   1.1119   0.9105   H         1 RES1   0.0000
    47 C30     10.6884   0.9643   1.5845   C.ar      1 RES1   0.0000
    48 H18     10.3152   1.5425   0.9611   H         1 RES1   0.0000
    49 O1       6.8575   3.0814   4.5216   O.2       1 RES1   0.0000
    50 O2       4.4521   1.9494   5.1686   O.2       1 RES1   0.0000
    51 O3       6.9629   0.8249   6.3323   O.2       1 RES1   0.0000
    52 O4       5.3508  -0.6116   4.6516   O.2       1 RES1   0.0000
    53 O5       5.5989   1.4069   2.6542   O.2       1 RES1   0.0000
    54 O6       7.9193   0.5154   3.8056   O.2       1 RES1   0.0000
    55 F1       7.2893   5.1012   2.6161   F         1 RES1   0.0000
    56 F2       7.9305   5.5828   4.5536   F         1 RES1   0.0000
    57 F3       6.1390   6.3985   3.7994   F         1 RES1   0.0000
    58 F4       9.4140  -0.1862   7.4572   F         1 RES1   0.0000
    59 F5       7.9832   0.6640   8.7710   F         1 RES1   0.0000
    60 F6       8.1709  -1.4512   8.6546   F         1 RES1   0.0000
    61 F7       5.2720   3.3680   0.7169   F         1 RES1   0.0000
    62 F8       6.4587   2.2270  -0.6237   F         1 RES1   0.0000
    63 F9       4.6356   1.4213   0.1121   F         1 RES1   0.0000
    64 Fe1      6.1874   1.1965   4.5469   Fe        1 RES1   0.0000
    65 C31      8.4851   9.5907   1.6857   C.2       2 RES2   0.0000
    66 C32      7.1143   9.7580   2.3379   C.3       2 RES2   0.0000
    67 C33      9.1449   8.3567   1.7992   C.2       2 RES2   0.0000
    68 H19      8.7197   7.6490   2.2257   H         2 RES2   0.0000
    69 C34     10.4005   8.1787   1.2920   C.2       2 RES2   0.0000
    70 C35     11.2002   6.9514   1.3972   C.ar      2 RES2   0.0000
    71 C36     10.7055   5.8324   2.0535   C.ar      2 RES2   0.0000
    72 H20      9.8489   5.8527   2.4144   H         2 RES2   0.0000
    73 C37     11.4743   4.6854   2.1765   C.ar      2 RES2   0.0000
    74 H21     11.1297   3.9373   2.6085   H         2 RES2   0.0000
    75 C38     12.7460   4.6579   1.6611   C.ar      2 RES2   0.0000
    76 H22     13.2665   3.8930   1.7527   H         2 RES2   0.0000
    77 C39     13.2523   5.7524   1.0103   C.ar      2 RES2   0.0000
    78 H23     14.1141   5.7279   0.6617   H         2 RES2   0.0000
    79 C40     12.4865   6.8940   0.8723   C.ar      2 RES2   0.0000
    80 H24     12.8347   7.6306   0.4238   H         2 RES2   0.0000
    81 O7       8.9476  10.5788   1.0920   O.2       2 RES2   0.0000
    82 O8      11.0096   9.1664   0.6612   O.3       2 RES2   0.0000
    83 F10      6.1726   9.1210   1.6939   F         2 RES2   0.0000
    84 F11      7.0641   9.2583   3.5478   F         2 RES2   0.0000
    85 F12      6.7413  10.9905   2.4500   F         2 RES2   0.0000
    86 H25     10.4604   9.8692   0.7246   H         2 RES2   0.0000
@<TRIPOS>BOND
     1     1     2    1
     2     2    55    1
     3     3     1   un
     4     4     3    1
     5     5     3   un
     6     6     5    1
     7     7     6   ar
     8     8     7    1
     9     9     7   ar
    10    10     9    1
    11    11     9   ar
    12    12    11    1
    13    13    11   ar
    14    14    13    1
    15    15     6   ar
    16    16    15    1
    17    17    18    1
    18    18    58    1
    19    19    17   un
    20    20    19    1
    21    21    19   un
    22    22    21    1
    23    23    22   ar
    24    24    23    1
    25    25    23   ar
    26    26    25    1
    27    27    25   ar
    28    28    27    1
    29    29    27   ar
    30    30    29    1
    31    31    22   ar
    32    32    31    1
    33    33    34    1
    34    34    61    1
    35    35    33   un
    36    36    35    1
    37    37    35   un
    38    38    37    1
    39    39    38   ar
    40    40    39    1
    41    41    39   ar
    42    42    41    1
    43    43    41   ar
    44    44    43    1
    45    45    43   ar
    46    46    45    1
    47    47    38   ar
    48    48    47    1
    49    49     1   un
    50    50     5   un
    51    51    17   un
    52    52    21   un
    53    53    33   un
    54    54    37   un
    55    56     2    1
    56    57     2    1
    57    59    18    1
    58    60    18    1
    59    62    34    1
    60    63    34    1
    61    64    49    1
    62    13    15   ar
    63    29    31   ar
    64    45    47   ar
    65    50    64    1
    66    51    64    1
    67    52    64    1
    68    53    64    1
    69    54    64    1
    70    65    66    1
    71    66    83    1
    72    67    65    1
    73    68    67    1
    74    69    67    2
    75    70    69    1
    76    71    70   ar
    77    72    71    1
    78    73    71   ar
    79    74    73    1
    80    75    73   ar
    81    76    75    1
    82    77    75   ar
    83    78    77    1
    84    79    70   ar
    85    80    79    1
    86    81    65    2
    87    82    69    1
    88    84    66    1
    89    85    66    1
    90    86    82    1
    91    77    79   ar
@<TRIPOS>SUBSTRUCTURE
     1 RES1        1 GROUP             0 ****  ****    0  
     2 RES2       65 GROUP             0 ****  ****    0  
@<TRIPOS>CRYSIN
   10.3560   13.3161   14.6620  108.5360   99.0020   92.7050     2     1
