@<TRIPOS>MOLECULE
BICSEL
    93    96     6     0     0
SMALL
USER_CHARGES
****
Generated from the CSD

@<TRIPOS>ATOM
     1 Fe1      5.9907  -0.0106   1.4193   Fe        1 RES1  -3.0000
     2 O1       4.3187  -0.5263   0.3765   O.3       1 RES1   0.0000
     3 O2       4.7441   1.3638   2.1427   O.3       1 RES1   0.0000
     4 O3       7.0498  -1.3309   0.3279   O.3       1 RES1   0.0000
     5 O4       6.7402   1.2804   0.0783   O.3       1 RES1   0.0000
     6 O5       5.6472  -1.3521   2.9085   O.3       1 RES1   0.0000
     7 O6       7.4312   0.5580   2.7329   O.3       1 RES1   0.0000
     8 C1       3.3400   0.3712   0.5478   C.ar      1 RES1   0.0000
     9 C2       2.1210   0.3630  -0.1227   C.ar      1 RES1   0.0000
    10 C3       1.1600   1.3192   0.1460   C.ar      1 RES1   0.0000
    11 C4       1.3699   2.2930   1.0915   C.ar      1 RES1   0.0000
    12 C5       2.5798   2.3306   1.7789   C.ar      1 RES1   0.0000
    13 C6       3.5587   1.3920   1.5187   C.ar      1 RES1   0.0000
    14 C7       7.6965  -0.7271  -0.6811   C.ar      1 RES1   0.0000
    15 C8       8.4572  -1.4120  -1.6372   C.ar      1 RES1   0.0000
    16 C9       9.1244  -0.7248  -2.6271   C.ar      1 RES1   0.0000
    17 C10      9.0429   0.6731  -2.6885   C.ar      1 RES1   0.0000
    18 C11      8.2521   1.3568  -1.7853   C.ar      1 RES1   0.0000
    19 C12      7.5537   0.6778  -0.7996   C.ar      1 RES1   0.0000
    20 C13      6.5224  -1.2334   3.9238   C.ar      1 RES1   0.0000
    21 C14      6.5319  -2.0874   5.0195   C.ar      1 RES1   0.0000
    22 C15      7.4714  -1.8971   6.0242   C.ar      1 RES1   0.0000
    23 C16      8.3785  -0.8998   5.9396   C.ar      1 RES1   0.0000
    24 C17      8.3929  -0.0493   4.8460   C.ar      1 RES1   0.0000
    25 C18      7.4737  -0.2114   3.8244   C.ar      1 RES1   0.0000
    26 H1       1.9533  -0.3054  -0.7826   H         1 RES1   0.0000
    27 H2       0.3208   1.3509  -0.3384   H         1 RES1   0.0000
    28 H3       0.6862   2.9485   1.2691   H         1 RES1   0.0000
    29 H4       2.7677   3.0307   2.4325   H         1 RES1   0.0000
    30 H5       8.5027  -2.3729  -1.6076   H         1 RES1   0.0000
    31 H6       9.6772  -1.1982  -3.2786   H         1 RES1   0.0000
    32 H7       9.5438   1.1512  -3.3421   H         1 RES1   0.0000
    33 H8       8.1533   2.3024  -1.8403   H         1 RES1   0.0000
    34 H9       5.8735  -2.7840   5.1189   H         1 RES1   0.0000
    35 H10      7.4825  -2.5491   6.7476   H         1 RES1   0.0000
    36 H11      8.9945  -0.7401   6.6842   H         1 RES1   0.0000
    37 H12      9.0667   0.6578   4.7804   H         1 RES1   0.0000
    38 N1       8.7095   2.7652   1.6435   N.4       2 RES2   1.0000
    39 C19      9.0154   3.9341   2.5087   C.3       2 RES2   0.0000
    40 C20      9.8738   3.5112   3.6699   C.3       2 RES2   0.0000
    41 C21     11.1293   2.8275   3.2215   C.3       2 RES2   0.0000
    42 C22     10.8092   1.6587   2.3098   C.3       2 RES2   0.0000
    43 C23      9.9446   2.1215   1.1549   C.3       2 RES2   0.0000
    44 H13      8.2477   2.1849   2.0941   H         2 RES2   0.0000
    45 H14      8.2350   3.0307   0.9730   H         2 RES2   0.0000
    46 H15      9.4643   4.5931   2.0095   H         2 RES2   0.0000
    47 H16      8.1855   4.3111   2.8344   H         2 RES2   0.0000
    48 H17     10.0700   4.2877   4.2093   H         2 RES2   0.0000
    49 H18      9.3615   2.9133   4.2305   H         2 RES2   0.0000
    50 H19     11.6888   3.4419   2.7498   H         2 RES2   0.0000
    51 H20     11.6448   2.5139   3.9766   H         2 RES2   0.0000
    52 H21     11.6229   1.2452   1.9883   H         2 RES2   0.0000
    53 H22     10.3441   0.9867   2.8133   H         2 RES2   0.0000
    54 H23     10.4243   2.7371   0.6346   H         2 RES2   0.0000
    55 H24      9.7219   1.3627   0.5923   H         2 RES2   0.0000
    56 N2       3.1599  -1.7550   3.8497   N.4       3 RES3   1.0000
    57 C24      2.2635  -2.2390   2.7646   C.3       3 RES3   0.0000
    58 C25      0.8357  -2.2484   3.2173   C.3       3 RES3   0.0000
    59 C26      0.4014  -0.8892   3.7101   C.3       3 RES3   0.0000
    60 C27      1.3217  -0.4276   4.8079   C.3       3 RES3   0.0000
    61 C28      2.7611  -0.4241   4.3701   C.3       3 RES3   0.0000
    62 H25      3.9795  -1.7151   3.5536   H         3 RES3   0.0000
    63 H26      3.1347  -2.3259   4.5055   H         3 RES3   0.0000
    64 H27      2.3531  -1.6681   2.0095   H         3 RES3   0.0000
    65 H28      2.5385  -3.1247   2.4960   H         3 RES3   0.0000
    66 H29      0.2910  -2.5256   2.4748   H         3 RES3   0.0000
    67 H30      0.7192  -2.9133   3.9132   H         3 RES3   0.0000
    68 H31      0.3980  -0.2819   3.0036   H         3 RES3   0.0000
    69 H32     -0.5035  -0.9633   4.0613   H         3 RES3   0.0000
    70 H33      1.2293  -1.0102   5.5631   H         3 RES3   0.0000
    71 H34      1.0717   0.4581   5.0766   H         3 RES3   0.0000
    72 H35      3.3192  -0.1880   5.0977   H         3 RES3   0.0000
    73 H36      2.8797   0.2232   3.6805   H         3 RES3   0.0000
    74 N3       9.0063  -3.1846   1.3030   N.4       4 RES4   1.0000
    75 C29     10.0159  -2.0792   1.3601   C.3       4 RES4   0.0000
    76 C30     11.2854  -2.5632   1.9989   C.3       4 RES4   0.0000
    77 C31     11.0590  -3.1541   3.3527   C.3       4 RES4   0.0000
    78 C32     10.0257  -4.2583   3.2617   C.3       4 RES4   0.0000
    79 C33      8.7438  -3.7661   2.6356   C.3       4 RES4   0.0000
    80 H37      9.2965  -3.8060   0.7615   H         4 RES4   0.0000
    81 H38      8.2629  -2.8780   0.9730   H         4 RES4   0.0000
    82 H39     10.1969  -1.7503   0.4865   H         4 RES4   0.0000
    83 H40      9.6438  -1.3509   1.8826   H         4 RES4   0.0000
    84 H41     11.6946  -3.2187   1.4384   H         4 RES4   0.0000
    85 H42     11.9009  -1.8208   2.0941   H         4 RES4   0.0000
    86 H43     11.8645  -3.4771   3.7228   H         4 RES4   0.0000
    87 H44     10.7080  -2.4786   3.9555   H         4 RES4   0.0000
    88 H45     10.3956  -4.9690   2.6652   H         4 RES4   0.0000
    89 H46      9.8757  -4.6753   4.1036   H         4 RES4   0.0000
    90 H47      8.1263  -4.4991   2.5806   H         4 RES4   0.0000
    91 H48      8.3719  -3.1130   3.2152   H         4 RES4   0.0000
    92 O7       5.3237   2.1614   4.7191   O.3       5 RES5   0.0000
    93 O8      -5.6685   5.8735  10.5762   O.3       6 RES6   0.0000
@<TRIPOS>BOND
     1     1     2    1
     2     2     8    1
     3     3     1    1
     4     4     1    1
     5     5     1    1
     6     6     1    1
     7     7     1    1
     8     8     9   ar
     9     9    10   ar
    10    10    11   ar
    11    11    12   ar
    12    12    13   ar
    13    13     3    1
    14    14     4    1
    15    15    14   ar
    16    16    15   ar
    17    17    16   ar
    18    18    17   ar
    19    19     5    1
    20    20     6    1
    21    21    20   ar
    22    22    21   ar
    23    23    22   ar
    24    24    23   ar
    25    25     7    1
    26    26     9    1
    27    27    10    1
    28    28    11    1
    29    29    12    1
    30    30    15    1
    31    31    16    1
    32    32    17    1
    33    33    18    1
    34    34    21    1
    35    35    22    1
    36    36    23    1
    37    37    24    1
    38     8    13   ar
    39    14    19   ar
    40    18    19   ar
    41    20    25   ar
    42    24    25   ar
    43    38    39    1
    44    39    40    1
    45    40    41    1
    46    41    42    1
    47    42    43    1
    48    43    38    1
    49    44    38    1
    50    45    38    1
    51    46    39    1
    52    47    39    1
    53    48    40    1
    54    49    40    1
    55    50    41    1
    56    51    41    1
    57    52    42    1
    58    53    42    1
    59    54    43    1
    60    55    43    1
    61    56    57    1
    62    57    58    1
    63    58    59    1
    64    59    60    1
    65    60    61    1
    66    61    56    1
    67    62    56    1
    68    63    56    1
    69    64    57    1
    70    65    57    1
    71    66    58    1
    72    67    58    1
    73    68    59    1
    74    69    59    1
    75    70    60    1
    76    71    60    1
    77    72    61    1
    78    73    61    1
    79    74    75    1
    80    75    76    1
    81    76    77    1
    82    77    78    1
    83    78    79    1
    84    79    74    1
    85    80    74    1
    86    81    74    1
    87    82    75    1
    88    83    75    1
    89    84    76    1
    90    85    76    1
    91    86    77    1
    92    87    77    1
    93    88    78    1
    94    89    78    1
    95    90    79    1
    96    91    79    1
@<TRIPOS>SUBSTRUCTURE
     1 RES1        1 GROUP             0 ****  ****    0  
     2 RES2       38 GROUP             0 ****  ****    0  
     3 RES3       56 GROUP             0 ****  ****    0  
     4 RES4       74 GROUP             0 ****  ****    0  
     5 RES5       92 GROUP             0 ****  ****    0  
     6 RES6       93 GROUP             0 ****  ****    0  
@<TRIPOS>CRYSIN
   27.8870   11.7470   23.9990   90.0000  118.1900   90.0000    15     1
