@<TRIPOS>MOLECULE
BINZUW01
   148   162     3     0     0
SMALL
USER_CHARGES
****
Generated from the CSD

@<TRIPOS>ATOM
     1 Fe1     -8.5337  -5.2463  -3.3513   Fe        1 RES1   2.0000
     2 N1      -9.1243  -6.0368  -1.5470   N.pl3     1 RES1   0.0000
     3 H1      -9.7797  -6.6549  -1.6743   H         1 RES1   0.0000
     4 H2      -8.4206  -6.4436  -1.1371   H         1 RES1   0.0000
     5 N2      -8.1330  -4.3427  -5.0529   N.ar      1 RES1   0.0000
     6 N3     -10.4422  -4.7849  -3.8565   N.pl3     1 RES1   0.0000
     7 H3     -10.8732  -5.5298  -4.1531   H         1 RES1   0.0000
     8 H4     -10.8881  -4.4703  -3.1269   H         1 RES1   0.0000
     9 N4      -6.6952  -5.7672  -3.0019   N.ar      1 RES1   0.0000
    10 N5      -8.5186  -3.5658  -2.3197   N.ar      1 RES1   0.0000
    11 N6      -8.6450  -7.0566  -4.2436   N.pl3     1 RES1   0.0000
    12 H5      -9.3576  -7.5182  -3.9166   H         1 RES1   0.0000
    13 H6      -8.7604  -6.9517  -5.1402   H         1 RES1   0.0000
    14 C1      -7.4138  -7.7995  -3.9879   C.ar      1 RES1   0.0000
    15 C2      -9.6153  -4.9533  -0.7304   C.ar      1 RES1   0.0000
    16 C3      -4.1626  -6.8701  -2.4702   C.ar      1 RES1   0.0000
    17 H7      -3.2992  -7.2236  -2.2950   H         1 RES1   0.0000
    18 C4      -5.7348  -5.0664  -2.4380   C.ar      1 RES1   0.0000
    19 H8      -5.9178  -4.1638  -2.2044   H         1 RES1   0.0000
    20 C5      -6.4024  -7.0769  -3.3320   C.ar      1 RES1   0.0000
    21 C6      -4.4531  -5.5757  -2.1590   C.ar      1 RES1   0.0000
    22 H9      -3.7942  -5.0210  -1.7583   H         1 RES1   0.0000
    23 C7      -5.1588  -7.6783  -3.0516   C.ar      1 RES1   0.0000
    24 C8     -10.3784  -5.1220   0.3959   C.ar      1 RES1   0.0000
    25 H10    -10.6320  -5.9926   0.6784   H         1 RES1   0.0000
    26 C9      -9.2297  -3.6636  -1.1394   C.ar      1 RES1   0.0000
    27 C10     -8.1019  -2.3518  -2.6820   C.ar      1 RES1   0.0000
    28 H11     -7.6129  -2.2616  -3.4917   H         1 RES1   0.0000
    29 C11     -9.5673  -2.5373  -0.3564   C.ar      1 RES1   0.0000
    30 C12     -9.1986  -3.6069  -5.5408   C.ar      1 RES1   0.0000
    31 C13    -10.3584  -2.7563   0.8020   C.ar      1 RES1   0.0000
    32 H12    -10.5945  -2.0226   1.3573   H         1 RES1   0.0000
    33 C14    -10.7754  -3.9988   1.1204   C.ar      1 RES1   0.0000
    34 H13    -11.3593  -4.1124   1.8616   H         1 RES1   0.0000
    35 C15     -4.9915  -9.0417  -3.3992   C.ar      1 RES1   0.0000
    36 H14     -4.1727  -9.4800  -3.2011   H         1 RES1   0.0000
    37 C16    -11.5192  -3.0486  -5.2837   C.ar      1 RES1   0.0000
    38 H15    -12.3492  -3.1499  -4.8313   H         1 RES1   0.0000
    39 C17     -7.8239  -2.7023  -7.2966   C.ar      1 RES1   0.0000
    40 H16     -7.6948  -2.1230  -8.0381   H         1 RES1   0.0000
    41 C18     -7.2146  -9.1055  -4.3312   C.ar      1 RES1   0.0000
    42 H17     -7.8950  -9.5907  -4.7831   H         1 RES1   0.0000
    43 C19     -9.0833  -2.7525  -6.6466   C.ar      1 RES1   0.0000
    44 C20    -10.4285  -3.7743  -4.8995   C.ar      1 RES1   0.0000
    45 C21     -9.0808  -1.2900  -0.7742   C.ar      1 RES1   0.0000
    46 H18     -9.2568  -0.5106  -0.2604   H         1 RES1   0.0000
    47 C22    -10.2157  -2.0157  -7.0176   C.ar      1 RES1   0.0000
    48 H19    -10.1599  -1.4081  -7.7460   H         1 RES1   0.0000
    49 C23     -6.8190  -3.4683  -6.8657   C.ar      1 RES1   0.0000
    50 H20     -5.9908  -3.4758  -7.3299   H         1 RES1   0.0000
    51 C24    -11.3999  -2.1576  -6.3471   C.ar      1 RES1   0.0000
    52 H21    -12.1515  -1.6409  -6.6123   H         1 RES1   0.0000
    53 C25     -8.3536  -1.2041  -1.9195   C.ar      1 RES1   0.0000
    54 H22     -8.0153  -0.3631  -2.2038   H         1 RES1   0.0000
    55 C26     -5.9903  -9.7290  -4.0113   C.ar      1 RES1   0.0000
    56 H23     -5.8621 -10.6449  -4.2277   H         1 RES1   0.0000
    57 C27     -6.9955  -4.2677  -5.7160   C.ar      1 RES1   0.0000
    58 H24     -6.2574  -4.7776  -5.4043   H         1 RES1   0.0000
    59 C28     -0.5355  -7.2868  -4.3707   C.ar      2 RES2   0.0000
    60 C29     -1.8162  -7.4586  -8.0621   C.ar      2 RES2   0.0000
    61 H25     -0.9887  -7.4433  -8.5277   H         2 RES2   0.0000
    62 C30     -1.8142  -7.7506  -6.7050   C.ar      2 RES2   0.0000
    63 C31     -0.6723 -12.0302  -6.3895   C.ar      2 RES2   0.0000
    64 H26     -0.4490 -12.6293  -7.0919   H         2 RES2   0.0000
    65 C32      2.2893  -6.0535  -7.6399   C.ar      2 RES2   0.0000
    66 H27      2.3767  -5.1680  -7.9720   H         2 RES2   0.0000
    67 C33     -1.5893 -11.6424  -4.2260   C.ar      2 RES2   0.0000
    68 H28     -1.9962 -11.9667  -3.4314   H         2 RES2   0.0000
    69 C34     -0.0200  -7.0362  -1.9998   C.ar      2 RES2   0.0000
    70 H29      0.3664  -7.4048  -1.2137   H         2 RES2   0.0000
    71 C35     -1.3149 -10.2763  -4.3750   C.ar      2 RES2   0.0000
    72 H30     -1.5583  -9.6858  -3.6728   H         2 RES2   0.0000
    73 C36     -0.6674  -5.8063  -1.9282   C.ar      2 RES2   0.0000
    74 H31     -0.7261  -5.3262  -1.1111   H         2 RES2   0.0000
    75 C37     -1.1569  -6.0250  -4.2801   C.ar      2 RES2   0.0000
    76 H32     -1.5435  -5.6490  -5.0623   H         2 RES2   0.0000
    77 C38      0.0727  -7.7282  -3.1845   C.ar      2 RES2   0.0000
    78 H33      0.5683  -8.5385  -3.2006   H         2 RES2   0.0000
    79 C39      0.9016  -7.7578  -6.5239   C.ar      2 RES2   0.0000
    80 C40     -0.6994  -9.7449  -5.5057   C.ar      2 RES2   0.0000
    81 C41     -0.4052 -10.6747  -6.5151   C.ar      2 RES2   0.0000
    82 H34     -0.0054 -10.3626  -7.3183   H         2 RES2   0.0000
    83 C42     -4.2029  -7.2107  -8.1293   C.ar      2 RES2   0.0000
    84 H35     -4.9946  -6.9937  -8.6074   H         2 RES2   0.0000
    85 C43      1.0985  -6.4589  -7.0366   C.ar      2 RES2   0.0000
    86 H36      0.3890  -5.8318  -6.9690   H         2 RES2   0.0000
    87 C44     -1.2200  -5.3112  -3.0925   C.ar      2 RES2   0.0000
    88 H37     -1.6537  -4.4658  -3.0792   H         2 RES2   0.0000
    89 C45     -2.9779  -7.1890  -8.7603   C.ar      2 RES2   0.0000
    90 H38     -2.9307  -6.9864  -9.6879   H         2 RES2   0.0000
    91 C46     -4.2614  -7.5486  -6.8073   C.ar      2 RES2   0.0000
    92 H39     -5.1006  -7.6048  -6.3653   H         2 RES2   0.0000
    93 C47     -3.1010  -7.8070  -6.1178   C.ar      2 RES2   0.0000
    94 H40     -3.1650  -8.0360  -5.1984   H         2 RES2   0.0000
    95 C48      3.3458  -6.9452  -7.7524   C.ar      2 RES2   0.0000
    96 H41      4.1619  -6.6778  -8.1587   H         2 RES2   0.0000
    97 C49      1.9985  -8.6138  -6.6626   C.ar      2 RES2   0.0000
    98 H42      1.9294  -9.5012  -6.3312   H         2 RES2   0.0000
    99 C50     -1.2668 -12.5019  -5.2369   C.ar      2 RES2   0.0000
   100 H43     -1.4513 -13.4294  -5.1456   H         2 RES2   0.0000
   101 C51      3.1918  -8.2158  -7.2703   C.ar      2 RES2   0.0000
   102 H44      3.9074  -8.8365  -7.3495   H         2 RES2   0.0000
   103 B1      -0.5219  -8.1456  -5.7862   B         2 RES2  -1.0000
   104 C52     -3.6059  -4.1074  -5.5218   C.ar      3 RES3   0.0000
   105 H45     -3.9020  -4.9739  -5.2666   H         3 RES3   0.0000
   106 C53     -3.3749  -1.1240  -2.3446   C.ar      3 RES3   0.0000
   107 C54     -3.6957  -3.0595  -4.6380   C.ar      3 RES3   0.0000
   108 H46     -4.0664  -3.2326  -3.7816   H         3 RES3   0.0000
   109 C55     -4.9891   0.1345  -4.1238   C.ar      3 RES3   0.0000
   110 C56     -3.2734  -1.7478  -4.9155   C.ar      3 RES3   0.0000
   111 C57     -2.5834   2.0150  -4.1589   C.ar      3 RES3   0.0000
   112 H47     -3.4765   2.3182  -4.0441   H         3 RES3   0.0000
   113 C58     -2.3421   0.6526  -4.1077   C.ar      3 RES3   0.0000
   114 C59     -4.4784  -1.4258  -1.5470   C.ar      3 RES3   0.0000
   115 H48     -5.3389  -1.2021  -1.8814   H         3 RES3   0.0000
   116 C60     -4.4095  -2.0310  -0.2965   C.ar      3 RES3   0.0000
   117 H49     -5.1993  -2.1972   0.2028   H         3 RES3   0.0000
   118 C61     -2.7759  -1.5990  -6.2186   C.ar      3 RES3   0.0000
   119 H50     -2.4977  -0.7350  -6.4991   H         3 RES3   0.0000
   120 C62     -5.7823  -0.1766  -5.2165   C.ar      3 RES3   0.0000
   121 H51     -5.4749  -0.8416  -5.8209   H         3 RES3   0.0000
   122 C63     -7.4758   1.3994  -4.5898   C.ar      3 RES3   0.0000
   123 H52     -8.3067   1.8328  -4.7498   H         3 RES3   0.0000
   124 C64     -3.0907  -3.8945  -6.7678   C.ar      3 RES3   0.0000
   125 H53     -3.0278  -4.6141  -7.3852   H         3 RES3   0.0000
   126 C65     -1.5878   2.9631  -4.3677   C.ar      3 RES3   0.0000
   127 H54     -1.8113   3.8860  -4.3901   H         3 RES3   0.0000
   128 C66     -5.5377   1.0798  -3.2634   C.ar      3 RES3   0.0000
   129 H55     -5.0524   1.2930  -2.4750   H         3 RES3   0.0000
   130 C67     -2.6691  -2.6547  -7.1257   C.ar      3 RES3   0.0000
   131 H56     -2.3020  -2.5063  -7.9890   H         3 RES3   0.0000
   132 C68     -6.7316   1.7267  -3.4737   C.ar      3 RES3   0.0000
   133 H57     -7.0383   2.3867  -2.8627   H         3 RES3   0.0000
   134 C69     -0.2993   2.5766  -4.5387   C.ar      3 RES3   0.0000
   135 H58      0.3858   3.2239  -4.6605   H         3 RES3   0.0000
   136 C70     -2.1687  -1.4866  -1.7836   C.ar      3 RES3   0.0000
   137 H59     -1.3739  -1.3143  -2.2746   H         3 RES3   0.0000
   138 C71     -7.0122   0.4374  -5.4765   C.ar      3 RES3   0.0000
   139 H60     -7.5211   0.2005  -6.2430   H         3 RES3   0.0000
   140 C72     -3.1865  -2.3834   0.2016   C.ar      3 RES3   0.0000
   141 H61     -3.1189  -2.8209   1.0426   H         3 RES3   0.0000
   142 C73     -1.0035   0.3053  -4.3137   C.ar      3 RES3   0.0000
   143 H62     -0.7740  -0.6167  -4.3021   H         3 RES3   0.0000
   144 C74      0.0056   1.2207  -4.5343   C.ar      3 RES3   0.0000
   145 H63      0.8971   0.9277  -4.6810   H         3 RES3   0.0000
   146 C75     -2.0555  -2.0975  -0.5259   C.ar      3 RES3   0.0000
   147 H64     -1.1981  -2.3135  -0.1771   H         3 RES3   0.0000
   148 B2      -3.4986  -0.5182  -3.8769   B         3 RES3  -1.0000
@<TRIPOS>BOND
     1     1     2    1
     2     2     3    1
     3     4     2    1
     4     5     1    1
     5     6     1    1
     6     7     6    1
     7     8     6    1
     8     9     1    1
     9    10     1    1
    10    11     1    1
    11    12    11    1
    12    13    11    1
    13    14    11    1
    14    15     2    1
    15    16    17    1
    16    18     9   ar
    17    19    18    1
    18    20     9   ar
    19    21    16   ar
    20    22    21    1
    21    23    16   ar
    22    24    15   ar
    23    25    24    1
    24    26    10   ar
    25    27    10   ar
    26    28    27    1
    27    29    26   ar
    28    30     5   ar
    29    31    29   ar
    30    32    31    1
    31    33    24   ar
    32    34    33    1
    33    35    23   ar
    34    36    35    1
    35    37    38    1
    36    39    40    1
    37    41    14   ar
    38    42    41    1
    39    43    30   ar
    40    44     6    1
    41    45    29   ar
    42    46    45    1
    43    47    43   ar
    44    48    47    1
    45    49    39   ar
    46    50    49    1
    47    51    37   ar
    48    52    51    1
    49    53    27   ar
    50    54    53    1
    51    55    35   ar
    52    56    55    1
    53    57     5   ar
    54    58    57    1
    55    14    20   ar
    56    15    26   ar
    57    18    21   ar
    58    20    23   ar
    59    30    44   ar
    60    31    33   ar
    61    37    44   ar
    62    39    43   ar
    63    41    55   ar
    64    45    53   ar
    65    47    51   ar
    66    49    57   ar
    67    59    75   ar
    68    60    61    1
    69    62    60   ar
    70    63    64    1
    71    65    66    1
    72    67    68    1
    73    69    70    1
    74    71    67   ar
    75    72    71    1
    76    73    69   ar
    77    74    73    1
    78    75    76    1
    79    77    59   ar
    80    78    77    1
    81    79    85   ar
    82    80    71   ar
    83    81    63   ar
    84    82    81    1
    85    83    84    1
    86    85    65   ar
    87    86    85    1
    88    87    73   ar
    89    88    87    1
    90    89    60   ar
    91    90    89    1
    92    91    83   ar
    93    92    91    1
    94    93    62   ar
    95    94    93    1
    96    95    65   ar
    97    96    95    1
    98    97    79   ar
    99    98    97    1
   100    99    63   ar
   101   100    99    1
   102   101    95   ar
   103   102   101    1
   104   103    59    1
   105    62   103    1
   106    67    99   ar
   107    69    77   ar
   108    75    87   ar
   109    79   103    1
   110    80    81   ar
   111    80   103    1
   112    83    89   ar
   113    91    93   ar
   114    97   101   ar
   115   104   105    1
   116   106   114   ar
   117   107   104   ar
   118   108   107    1
   119   109   120   ar
   120   110   107   ar
   121   111   112    1
   122   113   111   ar
   123   114   115    1
   124   116   114   ar
   125   117   116    1
   126   118   110   ar
   127   119   118    1
   128   120   121    1
   129   122   123    1
   130   124   104   ar
   131   125   124    1
   132   126   111   ar
   133   127   126    1
   134   128   109   ar
   135   129   128    1
   136   130   118   ar
   137   131   130    1
   138   132   122   ar
   139   133   132    1
   140   134   126   ar
   141   135   134    1
   142   136   106   ar
   143   137   136    1
   144   138   120   ar
   145   139   138    1
   146   140   116   ar
   147   141   140    1
   148   142   113   ar
   149   143   142    1
   150   144   134   ar
   151   145   144    1
   152   146   136   ar
   153   147   146    1
   154   148   106    1
   155   109   148    1
   156   110   148    1
   157   113   148    1
   158   122   138   ar
   159   124   130   ar
   160   128   132   ar
   161   140   146   ar
   162   142   144   ar
@<TRIPOS>SUBSTRUCTURE
     1 RES1        1 GROUP             0 ****  ****    0  
     2 RES2       59 GROUP             0 ****  ****    0  
     3 RES3      104 GROUP             0 ****  ****    0  
@<TRIPOS>CRYSIN
   12.2941   33.9568   19.0280   90.0000  129.8520   90.0000    14     1
