@<TRIPOS>MOLECULE
BIPWUV
    87    92     3     0     0
SMALL
USER_CHARGES
****
Generated from the CSD

@<TRIPOS>ATOM
     1 Fe1      8.4705   0.9712  11.7036   Fe        1 RES1   0.0000
     2 S1      10.3830   1.8561  10.8732   S.3       1 RES1  -1.0000
     3 S2       9.6861  -0.0599  13.3122   S.3       1 RES1   0.0000
     4 C1       8.7305  -1.9216  10.8587   C.2       1 RES1   0.0000
     5 C2       8.6049  -0.2855   9.1584   C.3       1 RES1   0.0000
     6 H1       8.2528  -1.0264   8.6399   H         1 RES1   0.0000
     7 H2       9.5124  -0.1093   8.8654   H         1 RES1   0.0000
     8 C3       7.7573   0.9222   8.9707   C.ar      1 RES1   0.0000
     9 C4       7.2477   1.2888   7.7379   C.ar      1 RES1   0.0000
    10 H3       7.4984   0.8309   6.9675   H         1 RES1   0.0000
    11 C5       7.9468  -3.6309  12.4668   C.ar      1 RES1   0.0000
    12 H4       7.7316  -4.1429  11.7196   H         1 RES1   0.0000
    13 C6       8.5257  -2.3692  12.2907   C.ar      1 RES1   0.0000
    14 C7       6.3525   2.3537   7.6671   C.ar      1 RES1   0.0000
    15 H5       5.9910   2.6174   6.8523   H         1 RES1   0.0000
    16 C8       6.5890   2.6367  10.0159   C.ar      1 RES1   0.0000
    17 H6       6.3658   3.0997  10.7912   H         1 RES1   0.0000
    18 C9       8.8718  -1.6155  13.4133   C.ar      1 RES1   0.0000
    19 C10      7.9948  -3.3698  14.8272   C.ar      1 RES1   0.0000
    20 H7       7.7942  -3.6940  15.6766   H         1 RES1   0.0000
    21 C11      8.5883  -2.1531  14.6840   C.ar      1 RES1   0.0000
    22 H8       8.8119  -1.6643  15.4428   H         1 RES1   0.0000
    23 C12      7.6904  -4.1248  13.7096   C.ar      1 RES1   0.0000
    24 H9       7.3123  -4.9686  13.8067   H         1 RES1   0.0000
    25 C13      6.0141   2.9994   8.8111   C.ar      1 RES1   0.0000
    26 H10      5.3914   3.6901   8.7847   H         1 RES1   0.0000
    27 N1       8.5846  -0.6097  10.5822   N.am      1 RES1   0.0000
    28 N2       7.4729   1.6168  10.0736   N.ar      1 RES1   0.0000
    29 C14      9.9814   3.5409  10.5641   C.ar      1 RES1   0.0000
    30 C15      8.5565   3.8354  12.6874   C.2       1 RES1   0.0000
    31 C16      6.5133   1.1409  13.7458   C.ar      1 RES1   0.0000
    32 C17      9.0582   5.6786  11.1451   C.ar      1 RES1   0.0000
    33 H11      8.5631   6.1995  11.7360   H         1 RES1   0.0000
    34 C18      5.8895  -0.4952  12.2232   C.ar      1 RES1   0.0000
    35 H12      6.0539  -0.9698  11.4414   H         1 RES1   0.0000
    36 C19      9.1994   4.3178  11.4282   C.ar      1 RES1   0.0000
    37 C20      7.4918   2.2316  14.0338   C.3       1 RES1   0.0000
    38 H13      7.0290   3.0097  14.3811   H         1 RES1   0.0000
    39 H14      8.1363   1.9357  14.6955   H         1 RES1   0.0000
    40 C21     10.5751   4.1660   9.4629   C.ar      1 RES1   0.0000
    41 H15     11.1189   3.6721   8.8950   H         1 RES1   0.0000
    42 C22     10.3640   5.5049   9.2078   C.ar      1 RES1   0.0000
    43 H16     10.7419   5.8895   8.4506   H         1 RES1   0.0000
    44 C23      5.4314   0.8437  14.5194   C.ar      1 RES1   0.0000
    45 H17      5.3022   1.2991  15.3210   H         1 RES1   0.0000
    46 C24      4.7601  -0.7666  12.9409   C.ar      1 RES1   0.0000
    47 H18      4.1451  -1.3891  12.6265   H         1 RES1   0.0000
    48 C25      4.5366  -0.1080  14.1375   C.ar      1 RES1   0.0000
    49 H19      3.7974  -0.3100  14.6643   H         1 RES1   0.0000
    50 C26      9.6001   6.2869  10.0554   C.ar      1 RES1   0.0000
    51 H20      9.4637   7.1911   9.8892   H         1 RES1   0.0000
    52 N3       8.1720   2.5647  12.7845   N.am      1 RES1   0.0000
    53 N4       6.7705   0.4360  12.6166   N.ar      1 RES1   0.0000
    54 O1       8.9316  -2.7911   9.9863   O.2       1 RES1   0.0000
    55 O2       8.3210   4.6908  13.5779   O.2       1 RES1   0.0000
    56 N5      -2.8482   3.9268  14.0799   N.4       2 RES2   1.0000
    57 C27     -3.9155   4.9146  13.6404   C.3       2 RES2   0.0000
    58 H21     -4.3345   4.5750  12.8339   H         2 RES2   0.0000
    59 H22     -4.5982   4.9557  14.3285   H         2 RES2   0.0000
    60 C28     -1.7528   3.8290  13.0413   C.3       2 RES2   0.0000
    61 H23     -1.2413   4.6535  13.0611   H         2 RES2   0.0000
    62 H24     -1.1538   3.1113  13.3014   H         2 RES2   0.0000
    63 C29     -3.5896   2.6084  14.2445   C.3       2 RES2   0.0000
    64 H25     -3.9294   2.3370  13.3771   H         2 RES2   0.0000
    65 H26     -4.3532   2.7563  14.8223   H         2 RES2   0.0000
    66 C30     -2.1836   4.3769  15.3572   C.3       2 RES2   0.0000
    67 H27     -1.8136   5.2618  15.2124   H         2 RES2   0.0000
    68 H28     -1.4417   3.7789  15.5416   H         2 RES2   0.0000
    69 C31     -2.7661   1.4624  14.8190   C.3       2 RES2   0.0000
    70 H29     -1.9854   1.3274  14.2775   H         2 RES2   0.0000
    71 H30     -3.2948   0.6611  14.8256   H         2 RES2   0.0000
    72 H31     -2.5014   1.6772  15.7161   H         2 RES2   0.0000
    73 C32     -3.0689   4.4258  16.5868   C.3       2 RES2   0.0000
    74 H32     -3.8119   5.0097  16.4205   H         2 RES2   0.0000
    75 H33     -2.5613   4.7564  17.3324   H         2 RES2   0.0000
    76 H34     -3.3908   3.5435  16.7843   H         2 RES2   0.0000
    77 C33     -2.1898   3.5821  11.6175   C.3       2 RES2   0.0000
    78 H35     -2.7709   2.8181  11.5895   H         2 RES2   0.0000
    79 H36     -1.4203   3.4187  11.0694   H         2 RES2   0.0000
    80 H37     -2.6590   4.3525  11.2900   H         2 RES2   0.0000
    81 C34     -3.4261   6.3127  13.3705   C.3       2 RES2   0.0000
    82 H38     -2.9239   6.6265  14.1260   H         2 RES2   0.0000
    83 H39     -4.1764   6.8915  13.2224   H         2 RES2   0.0000
    84 H40     -2.8655   6.3101  12.5919   H         2 RES2   0.0000
    85 O3       9.5985   5.3390  15.9432   O.3       3 RES3   0.0000
    86 H41      9.1319   5.7107  15.1432   H         3 RES3   0.0000
    87 H42      9.1849   4.9647  16.7728   H         3 RES3   0.0000
@<TRIPOS>BOND
     1     1     2    1
     2     2    29    1
     3     3     1    1
     4     4    13    1
     5     5     6    1
     6     7     5    1
     7     8     5    1
     8     9     8   ar
     9    10     9    1
    10    11    12    1
    11    13    11   ar
    12    14     9   ar
    13    15    14    1
    14    16    17    1
    15    18     3    1
    16    19    20    1
    17    21    18   ar
    18    22    21    1
    19    23    11   ar
    20    24    23    1
    21    25    14   ar
    22    26    25    1
    23    27     1    1
    24    28     1    1
    25    29    36   ar
    26    30    36    1
    27    31    37    1
    28    32    33    1
    29    34    35    1
    30    36    32   ar
    31    37    38    1
    32    39    37    1
    33    40    29   ar
    34    41    40    1
    35    42    40   ar
    36    43    42    1
    37    44    31   ar
    38    45    44    1
    39    46    34   ar
    40    47    46    1
    41    48    44   ar
    42    49    48    1
    43    50    32   ar
    44    51    50    1
    45    52     1    1
    46    53     1    1
    47    54     4    2
    48    55    30    2
    49     4    27   am
    50     5    27    1
    51     8    28   ar
    52    13    18   ar
    53    16    25   ar
    54    16    28   ar
    55    19    21   ar
    56    19    23   ar
    57    30    52   am
    58    31    53   ar
    59    34    53   ar
    60    37    52    1
    61    42    50   ar
    62    46    48   ar
    63    56    57    1
    64    57    58    1
    65    59    57    1
    66    60    56    1
    67    61    60    1
    68    62    60    1
    69    63    56    1
    70    64    63    1
    71    65    63    1
    72    66    56    1
    73    67    66    1
    74    68    66    1
    75    69    63    1
    76    70    69    1
    77    71    69    1
    78    72    69    1
    79    73    66    1
    80    74    73    1
    81    75    73    1
    82    76    73    1
    83    77    60    1
    84    78    77    1
    85    79    77    1
    86    80    77    1
    87    81    57    1
    88    82    81    1
    89    83    81    1
    90    84    81    1
    91    85    86    1
    92    87    85    1
@<TRIPOS>SUBSTRUCTURE
     1 RES1        1 GROUP             0 ****  ****    0  
     2 RES2       56 GROUP             0 ****  ****    0  
     3 RES3       85 GROUP             0 ****  ****    0  
@<TRIPOS>CRYSIN
   15.8790   12.8620   16.8920   90.0000  102.9850   90.0000    14     1
