@<TRIPOS>MOLECULE
BISWEF11
    90    98     1     0     0
SMALL
NO_CHARGES
****
Generated from the CSD

@<TRIPOS>ATOM
     1 Fe1      8.8743   0.6754   2.0627   Fe        1 RES1   0.0000
     2 H1       7.6768  -0.8069  -0.1005   H         1 RES1   0.0000
     3 P1      10.9699   1.2714   2.1592   P.3       1 RES1   0.0000
     4 H2       6.5889   0.9704   0.1507   H         1 RES1   0.0000
     5 P2       9.0975  -0.1523   4.0472   P.3       1 RES1   0.0000
     6 P3       8.2785   2.6643   2.8325   P.3       1 RES1   0.0000
     7 C1      12.2780   0.0674   1.6693   C.ar      1 RES1   0.0000
     8 C2       9.4569   1.1655   5.2914   C.3       1 RES1   0.0000
     9 H3       8.6177   1.5495   5.5898   H         1 RES1   0.0000
    10 H4       9.8846   0.7589   6.0612   H         1 RES1   0.0000
    11 C3      11.5019   1.7528   3.8725   C.3       1 RES1   0.0000
    12 H5      11.8904   0.9776   4.3074   H         1 RES1   0.0000
    13 H6      12.1943   2.4290   3.8050   H         1 RES1   0.0000
    14 C4       7.6943  -1.0490   4.8323   C.ar      1 RES1   0.0000
    15 C5       6.7759  -1.7446   4.0551   C.ar      1 RES1   0.0000
    16 H7       6.8660  -1.7575   3.1303   H         1 RES1   0.0000
    17 C6       7.1294   3.8437   0.6063   C.ar      1 RES1   0.0000
    18 H8       6.7837   2.9931   0.4612   H         1 RES1   0.0000
    19 C7      11.6511  -3.3493   3.5392   C.ar      1 RES1   0.0000
    20 H9      11.8066  -3.9781   2.8711   H         1 RES1   0.0000
    21 C8      10.3617   2.2993   4.7616   C.3       1 RES1   0.0000
    22 C9       8.1253   6.3923   1.0251   C.ar      1 RES1   0.0000
    23 H10      8.4580   7.2487   1.1702   H         1 RES1   0.0000
    24 C10     11.9826  -0.8887   0.6951   C.ar      1 RES1   0.0000
    25 H11     11.1286  -0.9240   0.3287   H         1 RES1   0.0000
    26 C11     10.7435   3.0541   0.0167   C.ar      1 RES1   0.0000
    27 H12      9.9469   2.6039  -0.1495   H         1 RES1   0.0000
    28 C12      7.9685   4.0725   1.6941   C.ar      1 RES1   0.0000
    29 C13      7.5520  -1.0613   6.2158   C.ar      1 RES1   0.0000
    30 H13      8.1695  -0.6076   6.7428   H         1 RES1   0.0000
    31 C14      6.4545   4.0194   4.5241   C.ar      1 RES1   0.0000
    32 H14      7.0187   4.7508   4.4183   H         1 RES1   0.0000
    33 C15     12.9523  -1.7855   0.2697   C.ar      1 RES1   0.0000
    34 H15     12.7435  -2.4208  -0.3773   H         1 RES1   0.0000
    35 C16     11.1860  -1.4729   5.5089   C.ar      1 RES1   0.0000
    36 H16     11.0369  -0.8510   6.1845   H         1 RES1   0.0000
    37 C17     11.5056   2.7120   1.1306   C.ar      1 RES1   0.0000
    38 C18      6.7480   2.8284   3.8658   C.ar      1 RES1   0.0000
    39 C19      5.3360   4.1328   5.3348   C.ar      1 RES1   0.0000
    40 H17      5.1612   4.9295   5.7815   H         1 RES1   0.0000
    41 C20     13.5681   0.1073   2.1942   C.ar      1 RES1   0.0000
    42 H18     13.7827   0.7422   2.8379   H         1 RES1   0.0000
    43 C21     10.9931   2.9857   5.9813   C.3       1 RES1   0.0000
    44 H19     10.2998   3.2926   6.5704   H         1 RES1   0.0000
    45 H20     11.5210   3.7326   5.6912   H         1 RES1   0.0000
    46 H21     11.5532   2.3592   6.4465   H         1 RES1   0.0000
    47 C22     12.6990   3.4035   1.3785   C.ar      1 RES1   0.0000
    48 H22     13.2221   3.1843   2.1159   H         1 RES1   0.0000
    49 C23      6.8043   4.8754  -0.2630   C.ar      1 RES1   0.0000
    50 H23      6.2489   4.7118  -0.9911   H         1 RES1   0.0000
    51 C24      9.5480   3.3636   3.9864   C.3       1 RES1   0.0000
    52 H24     10.1627   3.9128   3.4756   H         1 RES1   0.0000
    53 H25      9.1017   3.9397   4.6264   H         1 RES1   0.0000
    54 C25     14.5314  -0.7855   1.7704   C.ar      1 RES1   0.0000
    55 H26     15.3876  -0.7489   2.1311   H         1 RES1   0.0000
    56 C26      5.7240  -2.4208   4.6581   C.ar      1 RES1   0.0000
    57 H27      5.1067  -2.8785   4.1349   H         1 RES1   0.0000
    58 C27     12.3199   4.7416  -0.6030   C.ar      1 RES1   0.0000
    59 H28     12.5899   5.4183  -1.1801   H         1 RES1   0.0000
    60 C28     10.4368  -1.4045   4.3348   C.ar      1 RES1   0.0000
    61 C29      5.5905  -2.4157   6.0399   C.ar      1 RES1   0.0000
    62 H29      4.8839  -2.8684   6.4405   H         1 RES1   0.0000
    63 C30      4.7436   1.8744   4.8088   C.ar      1 RES1   0.0000
    64 H30      4.1659   1.1522   4.9044   H         1 RES1   0.0000
    65 C31     13.0958   4.4208   0.5125   C.ar      1 RES1   0.0000
    66 H31     13.8827   4.8888   0.6780   H         1 RES1   0.0000
    67 C32      8.4572   5.3636   1.8927   C.ar      1 RES1   0.0000
    68 H32      9.0137   5.5374   2.6168   H         1 RES1   0.0000
    69 C33      5.8658   1.7600   4.0015   C.ar      1 RES1   0.0000
    70 H33      6.0294   0.9652   3.5476   H         1 RES1   0.0000
    71 C34      4.4815   3.0541   5.4721   C.ar      1 RES1   0.0000
    72 H34      3.7284   3.1248   6.0132   H         1 RES1   0.0000
    73 C35      7.3049   6.1481  -0.0502   C.ar      1 RES1   0.0000
    74 H35      7.0859   6.8376  -0.6341   H         1 RES1   0.0000
    75 C36     12.3741  -3.3953   4.6966   C.ar      1 RES1   0.0000
    76 H36     13.0160  -4.0569   4.8208   H         1 RES1   0.0000
    77 C37     11.1560   4.0572  -0.8459   C.ar      1 RES1   0.0000
    78 H37     10.6436   4.2669  -1.5919   H         1 RES1   0.0000
    79 C38     12.1454  -2.4505   5.6848   C.ar      1 RES1   0.0000
    80 H38     12.6428  -2.4753   6.4713   H         1 RES1   0.0000
    81 C39     14.2264  -1.7395   0.8023   C.ar      1 RES1   0.0000
    82 H39     14.8753  -2.3414   0.5166   H         1 RES1   0.0000
    83 C40     10.6790  -2.3636   3.3533   C.ar      1 RES1   0.0000
    84 H40     10.1874  -2.3463   2.5636   H         1 RES1   0.0000
    85 C41      6.5081  -1.7365   6.8221   C.ar      1 RES1   0.0000
    86 H41      6.4236  -1.7348   7.7475   H         1 RES1   0.0000
    87 B1       7.5085   0.1879   0.5226   B         1 RES1   0.0000
    88 H42      9.1753  -0.6639   1.6582   H         1 RES1   0.0000
    89 H43      8.6662   0.1021   0.4690   H         1 RES1   0.0000
    90 H44      7.3792   0.0204   1.6917   H         1 RES1   0.0000
@<TRIPOS>BOND
     1     1     3    1
     2     2    87    1
     3     3     7    1
     4     4    87    1
     5     5     1    1
     6     6     1    1
     7     7    24   ar
     8     8     5    1
     9     9     8    1
    10    10     8    1
    11    11     3    1
    12    12    11    1
    13    13    11    1
    14    14     5    1
    15    15    14   ar
    16    16    15    1
    17    17    18    1
    18    19    20    1
    19    21     8    1
    20    22    23    1
    21    24    25    1
    22    26    27    1
    23    28     6    1
    24    29    14   ar
    25    30    29    1
    26    31    32    1
    27    33    24   ar
    28    34    33    1
    29    35    36    1
    30    37     3    1
    31    38     6    1
    32    39    31   ar
    33    40    39    1
    34    41     7   ar
    35    42    41    1
    36    43    21    1
    37    44    43    1
    38    45    43    1
    39    46    43    1
    40    47    37   ar
    41    48    47    1
    42    49    17   ar
    43    50    49    1
    44    51     6    1
    45    52    51    1
    46    53    51    1
    47    54    41   ar
    48    55    54    1
    49    56    15   ar
    50    57    56    1
    51    58    59    1
    52    60     5    1
    53    61    56   ar
    54    62    61    1
    55    63    64    1
    56    65    47   ar
    57    66    65    1
    58    67    22   ar
    59    68    67    1
    60    69    38   ar
    61    70    69    1
    62    71    39   ar
    63    72    71    1
    64    73    22   ar
    65    74    73    1
    66    75    19   ar
    67    76    75    1
    68    77    26   ar
    69    78    77    1
    70    79    35   ar
    71    80    79    1
    72    81    33   ar
    73    82    81    1
    74    83    19   ar
    75    84    83    1
    76    85    29   ar
    77    86    85    1
    78    87    89    1
    79    88     1    1
    80    89     1    1
    81    90     1    1
    82    11    21    1
    83    17    28   ar
    84    21    51    1
    85    26    37   ar
    86    28    67   ar
    87    31    38   ar
    88    35    60   ar
    89    49    73   ar
    90    54    81   ar
    91    58    65   ar
    92    58    77   ar
    93    60    83   ar
    94    61    85   ar
    95    63    69   ar
    96    63    71   ar
    97    75    79   ar
    98    87    90    1
@<TRIPOS>SUBSTRUCTURE
     1 RES1        1 GROUP             0 ****  ****    0  
@<TRIPOS>CRYSIN
   20.5263   10.2145   16.7496   90.0000   90.0000   90.0000    33     1
