@<TRIPOS>MOLECULE
BISWEF10
    51    59     1     0     0
SMALL
NO_CHARGES
****
Generated from the CSD

@<TRIPOS>ATOM
     1 Fe1     -1.3709  -2.2392   0.6411   Fe        1 RES1   0.0000
     2 P1       0.7156  -2.1680   1.2536   P.3       1 RES1   0.0000
     3 P2      -1.1317  -0.2477  -0.1639   P.3       1 RES1   0.0000
     4 P3      -1.9971  -1.4793   2.6414   P.3       1 RES1   0.0000
     5 C1       0.7822   1.6235   3.0183   C.3       1 RES1   0.0000
     6 C2       0.1165   0.4326   2.3065   C.3       1 RES1   0.0000
     7 C3       1.2440  -0.4597   1.7678   C.3       1 RES1   0.0000
     8 C4      -0.7676   0.9822   1.1604   C.3       1 RES1   0.0000
     9 C5      -0.7260  -0.3444   3.3338   C.3       1 RES1   0.0000
    10 C6       1.2503  -3.2215   2.6844   C.ar      1 RES1   0.0000
    11 C7       2.4152  -2.9704   3.4085   C.ar      1 RES1   0.0000
    12 C8       2.7980  -3.8339   4.4358   C.ar      1 RES1   0.0000
    13 C9       2.0137  -4.9467   4.7390   C.ar      1 RES1   0.0000
    14 C10      0.8467  -5.1961   4.0149   C.ar      1 RES1   0.0000
    15 C11      0.4660  -4.3343   2.9876   C.ar      1 RES1   0.0000
    16 C12      2.0283  -2.6566   0.0574   C.ar      1 RES1   0.0000
    17 C13      3.3139  -2.1188   0.1290   C.ar      1 RES1   0.0000
    18 C14      4.3021  -2.5497  -0.7579   C.ar      1 RES1   0.0000
    19 C15      4.0025  -3.5183  -1.7166   C.ar      1 RES1   0.0000
    20 C16      2.7190  -4.0561  -1.7883   C.ar      1 RES1   0.0000
    21 C17      1.7308  -3.6252  -0.9013   C.ar      1 RES1   0.0000
    22 C18      0.2143   0.0509  -1.3960   C.ar      1 RES1   0.0000
    23 C19      0.9965   1.2061  -1.4103   C.ar      1 RES1   0.0000
    24 C20      1.9617   1.3826  -2.3997   C.ar      1 RES1   0.0000
    25 C21      2.1489   0.4020  -3.3758   C.ar      1 RES1   0.0000
    26 C22      1.3688  -0.7532  -3.3614   C.ar      1 RES1   0.0000
    27 C23      0.4015  -0.9296  -2.3720   C.ar      1 RES1   0.0000
    28 C24     -2.5359   0.5378  -1.0549   C.ar      1 RES1   0.0000
    29 C25     -2.6857   1.9237  -1.0211   C.ar      1 RES1   0.0000
    30 C26     -3.7425   2.5276  -1.7043   C.ar      1 RES1   0.0000
    31 C27     -4.6474   1.7456  -2.4222   C.ar      1 RES1   0.0000
    32 C28     -4.4976   0.3596  -2.4560   C.ar      1 RES1   0.0000
    33 C29     -3.4408  -0.2443  -1.7729   C.ar      1 RES1   0.0000
    34 C30     -2.3216  -2.6209   4.0487   C.ar      1 RES1   0.0000
    35 C31     -1.7828  -2.4275   5.3207   C.ar      1 RES1   0.0000
    36 C32     -2.0969  -3.3114   6.3531   C.ar      1 RES1   0.0000
    37 C33     -2.9478  -4.3903   6.1134   C.ar      1 RES1   0.0000
    38 C34     -3.4866  -4.5837   4.8414   C.ar      1 RES1   0.0000
    39 C35     -3.1745  -3.6998   3.8090   C.ar      1 RES1   0.0000
    40 C36     -3.5407  -0.4597   2.8002   C.ar      1 RES1   0.0000
    41 C37     -3.7965   0.2494   3.9739   C.ar      1 RES1   0.0000
    42 C38     -4.9262   1.0619   4.0661   C.ar      1 RES1   0.0000
    43 C39     -5.8020   1.1654   2.9845   C.ar      1 RES1   0.0000
    44 C40     -5.5461   0.4563   1.8098   C.ar      1 RES1   0.0000
    45 C41     -4.4165  -0.3562   1.7176   C.ar      1 RES1   0.0000
    46 B1      -2.7398  -3.8356   0.1659   B         1 RES1   0.0000
    47 H1      -2.8063  -2.5175   0.0512   H         1 RES1   0.0000
    48 H2      -1.6122  -3.8695   0.5223   H         1 RES1   0.0000
    49 H3      -2.4901  -4.5141  -0.6698   H         1 RES1   0.0000
    50 H4      -3.5448  -3.9713   0.8706   H         1 RES1   0.0000
    51 H5      -0.9673  -2.6837  -0.6391   H         1 RES1   0.0000
@<TRIPOS>BOND
     1     1     2    1
     2     2     7    1
     3     3     1    1
     4     4     1    1
     5     5     6    1
     6     6     7    1
     7     8     3    1
     8     9     4    1
     9    10     2    1
    10    11    10   ar
    11    12    11   ar
    12    13    12   ar
    13    14    13   ar
    14    15    10   ar
    15    16     2    1
    16    17    16   ar
    17    18    17   ar
    18    19    18   ar
    19    20    19   ar
    20    21    16   ar
    21    22     3    1
    22    23    22   ar
    23    24    23   ar
    24    25    24   ar
    25    26    25   ar
    26    27    22   ar
    27    28     3    1
    28    29    28   ar
    29    30    29   ar
    30    31    30   ar
    31    32    31   ar
    32    33    28   ar
    33    34     4    1
    34    35    34   ar
    35    36    35   ar
    36    37    36   ar
    37    38    37   ar
    38    39    34   ar
    39    40     4    1
    40    41    40   ar
    41    42    41   ar
    42    43    42   ar
    43    44    43   ar
    44    45    40   ar
    45    46    47    1
    46    47     1    1
    47    48     1    1
    48    49    46    1
    49    50    46    1
    50    51     1    1
    51     6     8    1
    52     6     9    1
    53    14    15   ar
    54    20    21   ar
    55    26    27   ar
    56    32    33   ar
    57    38    39   ar
    58    44    45   ar
    59    46    48    1
@<TRIPOS>SUBSTRUCTURE
     1 RES1        1 GROUP             0 ****  ****    0  
@<TRIPOS>CRYSIN
   20.8030   16.9640   10.2420   90.0000   90.0000   90.0000    33     4
