@<TRIPOS>MOLECULE
BOCKIQ
   139   149     5     0     0
SMALL
USER_CHARGES
****
Generated from the CSD

@<TRIPOS>ATOM
     1 Fe1      8.2724   4.6996   7.4288   Fe        1 RES1   2.0000
     2 C1       7.4682   5.5121  10.2345   C.ar      1 RES1   0.0000
     3 H1       6.8471   4.7945  10.2276   H         1 RES1   0.0000
     4 C2       7.4896   6.3808  11.3050   C.ar      1 RES1   0.0000
     5 H2       6.8858   6.2316  12.0241   H         1 RES1   0.0000
     6 C3       9.1667   7.5603  10.3439   C.ar      1 RES1   0.0000
     7 H3       9.7806   8.2851  10.3416   H         1 RES1   0.0000
     8 C4       9.1739   6.6934   9.3014   C.ar      1 RES1   0.0000
     9 C5      10.0439   6.7361   8.1146   C.2       1 RES1   0.0000
    10 C6      11.5178   7.0274   6.5694   C.2       1 RES1   0.0000
    11 C7      12.7069   7.4875   5.8340   C.ar      1 RES1   0.0000
    12 C8      12.5281   8.0186   4.5727   C.ar      1 RES1   0.0000
    13 H4      11.6509   8.1128   4.2213   H         1 RES1   0.0000
    14 C9      13.6184   8.4201   3.8164   C.ar      1 RES1   0.0000
    15 H5      13.4954   8.8375   2.9717   H         1 RES1   0.0000
    16 C10     14.8977   8.1998   4.3168   C.ar      1 RES1   0.0000
    17 H6      15.6561   8.4077   3.7838   H         1 RES1   0.0000
    18 C11     15.0680   7.6829   5.5711   C.ar      1 RES1   0.0000
    19 H7      15.9452   7.5799   5.9224   H         1 RES1   0.0000
    20 C12     13.9819   7.3152   6.3250   C.ar      1 RES1   0.0000
    21 H8      14.1107   6.9386   7.1884   H         1 RES1   0.0000
    22 C13     11.9142   8.3384   8.6917   C.ar      1 RES1   0.0000
    23 C14     12.4780   7.8801   9.8436   C.ar      1 RES1   0.0000
    24 H9      12.3993   6.9652  10.0879   H         1 RES1   0.0000
    25 C15     13.1777   8.7771  10.6697   C.ar      1 RES1   0.0000
    26 H10     13.5755   8.4716  11.4772   H         1 RES1   0.0000
    27 C16     13.2836  10.0952  10.3044   C.ar      1 RES1   0.0000
    28 C17     12.6797  10.5162   9.1478   C.ar      1 RES1   0.0000
    29 H11     12.7470  11.4346   8.9104   H         1 RES1   0.0000
    30 C18     11.9886   9.6813   8.3287   C.ar      1 RES1   0.0000
    31 H12     11.5722  10.0029   7.5374   H         1 RES1   0.0000
    32 C19     14.1522  11.0189  11.1747   C.3       1 RES1   0.0000
    33 H13     14.2595  10.6210  12.0660   H         1 RES1   0.0000
    34 H14     13.7172  11.8929  11.2585   H         1 RES1   0.0000
    35 H15     15.0322  11.1291  10.7581   H         1 RES1   0.0000
    36 C20      9.9094   2.8973   9.0966   C.ar      1 RES1   0.0000
    37 H16      9.7048   3.4657   9.8296   H         1 RES1   0.0000
    38 C21     10.6263   1.7195   9.3153   C.ar      1 RES1   0.0000
    39 H17     10.8982   1.5046  10.2020   H         1 RES1   0.0000
    40 C22     10.5562   1.2364   7.0930   C.ar      1 RES1   0.0000
    41 H18     10.7680   0.6679   6.3623   H         1 RES1   0.0000
    42 C23      9.8579   2.3999   6.8463   C.ar      1 RES1   0.0000
    43 C24      9.2798   2.8547   5.6013   C.2       1 RES1   0.0000
    44 C25      8.4985   3.2934   3.6442   C.2       1 RES1   0.0000
    45 C26      8.2924   3.2170   2.1735   C.ar      1 RES1   0.0000
    46 C27      6.9702   3.0803   1.6941   C.ar      1 RES1   0.0000
    47 H19      6.2318   3.0998   2.2922   H         1 RES1   0.0000
    48 C28      6.7742   2.9151   0.3211   C.ar      1 RES1   0.0000
    49 H20      5.9084   2.8280  -0.0605   H         1 RES1   0.0000
    50 C29      7.9590   2.8849  -0.4724   C.ar      1 RES1   0.0000
    51 H21      7.8460   2.7072  -1.3986   H         1 RES1   0.0000
    52 C30      9.2054   3.0803  -0.0465   C.ar      1 RES1   0.0000
    53 H22      9.9394   3.1193  -0.6493   H         1 RES1   0.0000
    54 C31      9.3756   3.2188   1.2962   C.ar      1 RES1   0.0000
    55 H23     10.2528   3.3201   1.6453   H         1 RES1   0.0000
    56 C32     10.0868   1.3430   3.7443   C.ar      1 RES1   0.0000
    57 C33      9.3928   0.3730   3.0531   C.ar      1 RES1   0.0000
    58 H24      8.4427   0.3748   3.0369   H         1 RES1   0.0000
    59 C34     10.1183  -0.6182   2.3690   C.ar      1 RES1   0.0000
    60 H25      9.6561  -1.2968   1.8919   H         1 RES1   0.0000
    61 C35     11.5221  -0.6111   2.3899   C.ar      1 RES1   0.0000
    62 C36     12.1446   0.3766   3.1392   C.ar      1 RES1   0.0000
    63 H26     13.0933   0.3606   3.2067   H         1 RES1   0.0000
    64 C37     11.4649   1.3731   3.7908   C.ar      1 RES1   0.0000
    65 H27     11.9271   2.0606   4.2562   H         1 RES1   0.0000
    66 C38     12.2791  -1.6218   1.5778   C.3       1 RES1   0.0000
    67 H28     11.6895  -2.3750   1.3637   H         1 RES1   0.0000
    68 H29     13.0489  -1.9434   2.0897   H         1 RES1   0.0000
    69 H30     12.5910  -1.2062   0.7470   H         1 RES1   0.0000
    70 C39      6.8801   6.9990   6.1714   C.ar      1 RES1   0.0000
    71 H31      7.7329   7.3845   6.0132   H         1 RES1   0.0000
    72 C40      5.7496   7.6367   5.7316   C.ar      1 RES1   0.0000
    73 H32      5.8526   8.4574   5.2639   H         1 RES1   0.0000
    74 C41      4.4331   5.9918   6.5484   C.ar      1 RES1   0.0000
    75 H33      3.5745   5.6098   6.6950   H         1 RES1   0.0000
    76 C42      5.5164   5.3203   6.9859   C.ar      1 RES1   0.0000
    77 C43      5.5836   4.0164   7.6259   C.2       1 RES1   0.0000
    78 C44      5.4062   2.0322   8.4636   C.2       1 RES1   0.0000
    79 C45      4.8810   0.7319   8.9360   C.ar      1 RES1   0.0000
    80 C46      3.7577   0.6395   9.7901   C.ar      1 RES1   0.0000
    81 H34      3.2926   1.4211  10.0600   H         1 RES1   0.0000
    82 C47      3.3442  -0.6217  10.2299   C.ar      1 RES1   0.0000
    83 H35      2.5886  -0.7035  10.8000   H         1 RES1   0.0000
    84 C48      4.0382  -1.7533   9.8296   C.ar      1 RES1   0.0000
    85 H36      3.7505  -2.6060  10.1368   H         1 RES1   0.0000
    86 C49      5.1329  -1.6734   8.9989   C.ar      1 RES1   0.0000
    87 H37      5.5979  -2.4585   8.7359   H         1 RES1   0.0000
    88 C50      5.5521  -0.4139   8.5474   C.ar      1 RES1   0.0000
    89 H38      6.3034  -0.3464   7.9680   H         1 RES1   0.0000
    90 C51      3.2225   3.1673   7.7795   C.ar      1 RES1   0.0000
    91 C52      2.4441   3.8317   8.7126   C.ar      1 RES1   0.0000
    92 H39      2.8390   4.2083   9.4899   H         1 RES1   0.0000
    93 C53      1.0918   3.9383   8.4962   C.ar      1 RES1   0.0000
    94 H40      0.5495   4.3806   9.1408   H         1 RES1   0.0000
    95 C54      0.4994   3.4089   7.3466   C.ar      1 RES1   0.0000
    96 C55      1.3036   2.7516   6.4530   C.ar      1 RES1   0.0000
    97 H41      0.9130   2.3715   5.6734   H         1 RES1   0.0000
    98 C56      2.6816   2.6220   6.6532   C.ar      1 RES1   0.0000
    99 H42      3.2268   2.1672   6.0225   H         1 RES1   0.0000
   100 C57     -0.9917   3.5137   7.1116   C.3       1 RES1   0.0000
   101 H43     -1.4381   3.7482   7.9517   H         1 RES1   0.0000
   102 H44     -1.3337   2.6539   6.7904   H         1 RES1   0.0000
   103 H45     -1.1691   4.2083   6.4437   H         1 RES1   0.0000
   104 N1       8.3024   5.6649   9.2036   N.ar      1 RES1   0.0000
   105 N2       8.3282   7.4289  11.3748   N.ar      1 RES1   0.0000
   106 N3       9.7091   5.9758   7.1046   N.2       1 RES1   0.0000
   107 N4      11.2073   7.4129   7.8446   N.pl3     1 RES1   0.0000
   108 N5      10.6492   6.1374   6.0946   N.2       1 RES1   0.0000
   109 N6       6.7899   5.8372   6.8230   N.ar      1 RES1   0.0000
   110 N7       4.5090   7.1713   5.9201   N.ar      1 RES1   0.0000
   111 N8       6.7956   3.5510   7.9075   N.2       1 RES1   0.0000
   112 N9       4.6678   3.0838   7.9773   N.pl3     1 RES1   0.0000
   113 N10      6.6912   2.3022   8.4357   N.2       1 RES1   0.0000
   114 N11      9.5102   3.2313   7.8772   N.ar      1 RES1   0.0000
   115 N12     10.9454   0.8811   8.3217   N.ar      1 RES1   0.0000
   116 N13      8.4784   3.8885   5.6828   N.2       1 RES1   0.0000
   117 N14      9.3270   2.4390   4.3307   N.pl3     1 RES1   0.0000
   118 N15      7.9776   4.1852   4.4471   N.2       1 RES1   0.0000
   119 C58      4.2657   4.9188   3.0508   C.3       2 RES2   0.0000
   120 H46      4.1984   4.2616   2.3131   H         2 RES2   0.0000
   121 H47      4.8395   4.5245   3.7536   H         2 RES2   0.0000
   122 Cl1      2.7331   5.1835   3.6838   Cl        2 RES2   0.0000
   123 Cl2      5.0584   6.4252   2.4248   Cl        2 RES2   0.0000
   124 O1       9.9795  13.2679  15.4938   O.3       3 RES3   0.0000
   125 H48     10.0854  12.8771  16.2291   H         3 RES3   0.0000
   126 C59      8.6845  13.0174  15.0121   C.3       3 RES3   0.0000
   127 H49      8.3010  13.8452  14.6560   H         3 RES3   0.0000
   128 H50      8.1221  12.6852  15.7451   H         3 RES3   0.0000
   129 H51      8.7246  12.3424  14.3023   H         3 RES3   0.0000
   130 B1       8.6115  10.0064   6.8323   B         4 RES4  -1.0000
   131 F1       7.4281  10.1219   6.1389   F         4 RES4   0.0000
   132 F2       9.4887   9.1981   6.1202   F         4 RES4   0.0000
   133 F3       8.3525   9.4042   8.0564   F         4 RES4   0.0000
   134 F4       9.1696  11.2552   7.0278   F         4 RES4   0.0000
   135 B2       4.5447   4.2687  11.8077   B         5 RES5  -1.0000
   136 F5       5.2688   3.3894  11.0327   F         5 RES5   0.0000
   137 F6       3.2154   3.8672  11.8914   F         5 RES5   0.0000
   138 F7       5.1028   4.3450  13.0736   F         5 RES5   0.0000
   139 F8       4.5705   5.5406  11.2422   F         5 RES5   0.0000
@<TRIPOS>BOND
     1     1   104    1
     2     2     3    1
     3     4     2   ar
     4     5     4    1
     5     6     7    1
     6     8     6   ar
     7     9     8    1
     8    10    11    1
     9    11    12   ar
    10    12    13    1
    11    14    12   ar
    12    15    14    1
    13    16    14   ar
    14    17    16    1
    15    18    16   ar
    16    19    18    1
    17    20    11   ar
    18    21    20    1
    19    22    23   ar
    20    23    24    1
    21    25    23   ar
    22    26    25    1
    23    27    25   ar
    24    28    27   ar
    25    29    28    1
    26    30    22   ar
    27    31    30    1
    28    32    27    1
    29    33    32    1
    30    34    32    1
    31    35    32    1
    32    36    37    1
    33    38    36   ar
    34    39    38    1
    35    40    41    1
    36    42    40   ar
    37    43    42    1
    38    44    45    1
    39    45    46   ar
    40    46    47    1
    41    48    46   ar
    42    49    48    1
    43    50    48   ar
    44    51    50    1
    45    52    50   ar
    46    53    52    1
    47    54    45   ar
    48    55    54    1
    49    56    57   ar
    50    57    58    1
    51    59    57   ar
    52    60    59    1
    53    61    59   ar
    54    62    61   ar
    55    63    62    1
    56    64    56   ar
    57    65    64    1
    58    66    61    1
    59    67    66    1
    60    68    66    1
    61    69    66    1
    62    70    71    1
    63    72    70   ar
    64    73    72    1
    65    74    75    1
    66    76    74   ar
    67    77    76    1
    68    78    79    1
    69    79    80   ar
    70    80    81    1
    71    82    80   ar
    72    83    82    1
    73    84    82   ar
    74    85    84    1
    75    86    84   ar
    76    87    86    1
    77    88    79   ar
    78    89    88    1
    79    90    91   ar
    80    91    92    1
    81    93    91   ar
    82    94    93    1
    83    95    93   ar
    84    96    95   ar
    85    97    96    1
    86    98    90   ar
    87    99    98    1
    88   100    95    1
    89   101   100    1
    90   102   100    1
    91   103   100    1
    92   104     2   ar
    93   105     4   ar
    94   106     1    1
    95   107     9    1
    96   108    10    2
    97   109     1    1
    98   110    72   ar
    99   111     1    1
   100   112    77    1
   101   113    78    2
   102   114     1    1
   103   115    38   ar
   104   116     1    1
   105   117    43    1
   106   118    44    2
   107     6   105   ar
   108     8   104   ar
   109     9   106    2
   110    10   107    1
   111    18    20   ar
   112    22   107    1
   113    28    30   ar
   114    36   114   ar
   115    40   115   ar
   116    42   114   ar
   117    43   116    2
   118    44   117    1
   119    52    54   ar
   120    56   117    1
   121    62    64   ar
   122    70   109   ar
   123    74   110   ar
   124    76   109   ar
   125    77   111    2
   126    78   112    1
   127    86    88   ar
   128    90   112    1
   129    96    98   ar
   130   106   108    1
   131   111   113    1
   132   116   118    1
   133   119   120    1
   134   121   119    1
   135   122   119    1
   136   123   119    1
   137   124   125    1
   138   126   124    1
   139   127   126    1
   140   128   126    1
   141   129   126    1
   142   130   131    1
   143   132   130    1
   144   133   130    1
   145   134   130    1
   146   135   136    1
   147   137   135    1
   148   138   135    1
   149   139   135    1
@<TRIPOS>SUBSTRUCTURE
     1 RES1        1 GROUP             0 ****  ****    0  
     2 RES2      119 GROUP             0 ****  ****    0  
     3 RES3      124 GROUP             0 ****  ****    0  
     4 RES4      130 GROUP             0 ****  ****    0  
     5 RES5      135 GROUP             0 ****  ****    0  
@<TRIPOS>CRYSIN
   14.3096   17.7639   23.2709   90.0000   90.0000   90.0000    19     1
