@<TRIPOS>MOLECULE
BOCKOX
    90    98     4     0     0
SMALL
USER_CHARGES
****
Generated from the CSD

@<TRIPOS>ATOM
     1 Fe1      9.5573   3.8995  13.1348   Fe        1 RES1   1.0000
     2 F1       6.7612   8.7608  16.3052   F         1 RES1   0.0000
     3 F2       7.3463   0.6630   8.0256   F         1 RES1   0.0000
     4 O1      10.0014   3.0405  14.7327   O.3       1 RES1   0.0000
     5 O2      11.3376   3.9098  12.5630   O.3       1 RES1   0.0000
     6 N1       8.9731   4.6619  11.3733   N.ar      1 RES1   0.0000
     7 N2       9.3673   2.2225  12.1461   N.2       1 RES1   0.0000
     8 N3       9.6584   5.6542  13.9823   N.2       1 RES1   0.0000
     9 N4       7.6864   3.9871  13.8124   N.ar      1 RES1   0.0000
    10 C1       7.3950   5.1683  14.4861   C.ar      1 RES1   0.0000
    11 C2       8.1321   4.0082   9.1590   C.ar      1 RES1   0.0000
    12 C3       8.7361   2.3510  10.8704   C.ar      1 RES1   0.0000
    13 C4       8.4369   6.1213  14.5387   C.ar      1 RES1   0.0000
    14 C5       8.1519   5.4011   8.7552   C.ar      1 RES1   0.0000
    15 C6       8.9612   5.9208  11.0100   C.ar      1 RES1   0.0000
    16 H1       9.2097   6.5784  11.6497   H         1 RES1   0.0000
    17 C7      12.2535   4.8250  12.8247   C.ar      1 RES1   0.0000
    18 C8      12.0077   6.0303  13.5410   C.ar      1 RES1   0.0000
    19 C9       8.5958   6.3527   9.7006   C.ar      1 RES1   0.0000
    20 C10      5.9478   6.6433  15.7359   C.ar      1 RES1   0.0000
    21 H2       5.1256   6.8376  16.1709   H         1 RES1   0.0000
    22 C11      6.1505   5.4056  15.1096   C.ar      1 RES1   0.0000
    23 C12      6.7856   3.0277  13.7883   C.ar      1 RES1   0.0000
    24 H3       6.9981   2.2188  13.3377   H         1 RES1   0.0000
    25 C13      8.5970   3.6904  10.4477   C.ar      1 RES1   0.0000
    26 C14      7.7079   2.9459   8.3298   C.ar      1 RES1   0.0000
    27 H4       7.3693   3.1162   7.4588   H         1 RES1   0.0000
    28 C15      7.7962   1.6671   8.8085   C.ar      1 RES1   0.0000
    29 C16      9.9322   1.1059  12.4835   C.2       1 RES1   0.0000
    30 H5       9.9212   0.3929  11.8561   H         1 RES1   0.0000
    31 C17     10.7429   6.3768  14.0927   C.2       1 RES1   0.0000
    32 H6      10.6814   7.1922  14.5762   H         1 RES1   0.0000
    33 C18      8.6707   7.7198   9.3583   C.ar      1 RES1   0.0000
    34 H7       8.9656   8.3560   9.9986   H         1 RES1   0.0000
    35 C19     10.5427   1.8342  14.8080   C.ar      1 RES1   0.0000
    36 C20      8.2114   7.3488  15.1213   C.ar      1 RES1   0.0000
    37 H8       8.8826   8.0209  15.1240   H         1 RES1   0.0000
    38 C21      5.1591   4.3411  15.0735   C.ar      1 RES1   0.0000
    39 C22      5.5066   3.1466  14.4080   C.ar      1 RES1   0.0000
    40 C23     10.5725   0.8827  13.7476   C.ar      1 RES1   0.0000
    41 C24      8.3127   1.3215  10.0568   C.ar      1 RES1   0.0000
    42 H9       8.3708   0.4147  10.3350   H         1 RES1   0.0000
    43 C25     13.0605   6.9788  13.6867   C.ar      1 RES1   0.0000
    44 H10     12.8878   7.7986  14.1340   H         1 RES1   0.0000
    45 C26      7.7985   5.8424   7.4638   C.ar      1 RES1   0.0000
    46 H11      7.5030   5.2183   6.8114   H         1 RES1   0.0000
    47 C27      6.9661   7.5722  15.7072   C.ar      1 RES1   0.0000
    48 C28      7.8837   7.1844   7.1502   C.ar      1 RES1   0.0000
    49 H12      7.6464   7.4768   6.2780   H         1 RES1   0.0000
    50 C29      3.8895   4.4383  15.6675   C.ar      1 RES1   0.0000
    51 H13      3.6446   5.2255  16.1393   H         1 RES1   0.0000
    52 C30      8.3150   8.1242   8.0986   C.ar      1 RES1   0.0000
    53 H14      8.3620   9.0446   7.8667   H         1 RES1   0.0000
    54 C31     11.2006  -0.3610  13.9561   C.ar      1 RES1   0.0000
    55 H15     11.2193  -0.9954  13.2492   H         1 RES1   0.0000
    56 C32     11.1155   1.4625  16.0466   C.ar      1 RES1   0.0000
    57 H16     11.0809   2.0647  16.7808   H         1 RES1   0.0000
    58 C33     14.5524   5.5307  12.5294   C.ar      1 RES1   0.0000
    59 H17     15.4237   5.3519  12.1952   H         1 RES1   0.0000
    60 C34     13.5595   4.6011  12.3417   C.ar      1 RES1   0.0000
    61 H18     13.7559   3.7935  11.8805   H         1 RES1   0.0000
    62 C35     14.3137   6.7333  13.1948   C.ar      1 RES1   0.0000
    63 H19     15.0100   7.3699  13.3067   H         1 RES1   0.0000
    64 C36     11.7239   0.2279  16.2021   C.ar      1 RES1   0.0000
    65 H20     12.1055  -0.0000  17.0422   H         1 RES1   0.0000
    66 C37      4.5954   2.0721  14.3451   C.ar      1 RES1   0.0000
    67 H21      4.8421   1.2598  13.9176   H         1 RES1   0.0000
    68 C38      2.9997   3.3918  15.5649   C.ar      1 RES1   0.0000
    69 H22      2.1354   3.4767  15.9498   H         1 RES1   0.0000
    70 C39      3.3466   2.2062  14.9062   C.ar      1 RES1   0.0000
    71 H23      2.7191   1.4950  14.8462   H         1 RES1   0.0000
    72 C40     11.7895  -0.6760  15.1627   C.ar      1 RES1   0.0000
    73 H24     12.2353  -1.5076  15.2766   H         1 RES1   0.0000
    74 P1      10.4497  10.0693  12.6290   P.3       2 RES2  -1.0000
    75 F3      10.8032   9.6986  14.1408   F         2 RES2   0.0000
    76 F4      10.0830  10.4296  11.1083   F         2 RES2   0.0000
    77 F5      10.7079  11.6154  12.9203   F         2 RES2   0.0000
    78 F6      11.9716   9.9021  12.2139   F         2 RES2   0.0000
    79 F7      10.1788   8.5343  12.3233   F         2 RES2   0.0000
    80 F8       8.9172  10.2697  13.0461   F         2 RES2   0.0000
    81 Cl1      6.0481  12.4334  11.5918   Cl        3 RES3   0.0000
    82 Cl2      8.3356  13.9011  10.5866   Cl        3 RES3   0.0000
    83 Cl3      7.4329  11.5126   9.2403   Cl        3 RES3   0.0000
    84 C41      7.5977  12.3075  10.7832   C.3       3 RES3   0.0000
    85 H25      8.2030  11.7531  11.3554   H         3 RES3   0.0000
    86 Cl4      4.9622   1.3966   5.9837   Cl        4 RES4   0.0000
    87 Cl5      3.6264   3.7506   6.9678   Cl        4 RES4   0.0000
    88 Cl6      2.4326   2.1928   4.8272   Cl        4 RES4   0.0000
    89 C42      3.4030   2.1402   6.2995   C.3       4 RES4   0.0000
    90 H26      2.9191   1.5831   6.9745   H         4 RES4   0.0000
@<TRIPOS>BOND
     1     1     4    1
     2     2    47    1
     3     3    28    1
     4     4    35    1
     5     5     1    1
     6     6     1    1
     7     7     1    1
     8     8     1    1
     9     9     1    1
    10    10     9   ar
    11    11    14   ar
    12    12     7    1
    13    13     8    1
    14    14    19   ar
    15    15     6   ar
    16    16    15    1
    17    17     5    1
    18    18    17   ar
    19    19    15   ar
    20    20    21    1
    21    22    10   ar
    22    23     9   ar
    23    24    23    1
    24    25     6   ar
    25    26    11   ar
    26    27    26    1
    27    28    26   ar
    28    29     7    2
    29    30    29    1
    30    31     8    2
    31    32    31    1
    32    33    19   ar
    33    34    33    1
    34    35    40   ar
    35    36    13   ar
    36    37    36    1
    37    38    22   ar
    38    39    23   ar
    39    40    29    1
    40    41    12   ar
    41    42    41    1
    42    43    18   ar
    43    44    43    1
    44    45    14   ar
    45    46    45    1
    46    47    20   ar
    47    48    45   ar
    48    49    48    1
    49    50    38   ar
    50    51    50    1
    51    52    33   ar
    52    53    52    1
    53    54    40   ar
    54    55    54    1
    55    56    35   ar
    56    57    56    1
    57    58    59    1
    58    60    17   ar
    59    61    60    1
    60    62    43   ar
    61    63    62    1
    62    64    56   ar
    63    65    64    1
    64    66    39   ar
    65    67    66    1
    66    68    50   ar
    67    69    68    1
    68    70    66   ar
    69    71    70    1
    70    72    54   ar
    71    73    72    1
    72    10    13   ar
    73    11    25   ar
    74    12    25   ar
    75    18    31    1
    76    20    22   ar
    77    28    41   ar
    78    36    47   ar
    79    38    39   ar
    80    48    52   ar
    81    58    60   ar
    82    58    62   ar
    83    64    72   ar
    84    68    70   ar
    85    74    75    1
    86    76    74    1
    87    77    74    1
    88    78    74    1
    89    79    74    1
    90    80    74    1
    91    81    84    1
    92    82    84    1
    93    83    84    1
    94    84    85    1
    95    86    89    1
    96    87    89    1
    97    88    89    1
    98    89    90    1
@<TRIPOS>SUBSTRUCTURE
     1 RES1        1 GROUP             0 ****  ****    0  
     2 RES2       74 GROUP             0 ****  ****    0  
     3 RES3       81 GROUP             0 ****  ****    0  
     4 RES4       86 GROUP             0 ****  ****    0  
@<TRIPOS>CRYSIN
   11.0770   12.1780   17.3240   88.3140   73.1780   72.7980     2     1
