@<TRIPOS>MOLECULE
BODGAE02
    88    98     2     0     0
SMALL
USER_CHARGES
****
Generated from the CSD

@<TRIPOS>ATOM
     1 Fe1     10.2495   1.3344   8.9699   Fe        1 RES1   1.0000
     2 N1      11.2163   3.3133   8.6117   N.3       1 RES1   0.0000
     3 N2      11.3938   0.9768   7.2827   N.ar      1 RES1   0.0000
     4 N3      10.4823  -0.8976   9.0543   N.3       1 RES1   0.0000
     5 N4      12.0772   1.0807   9.8923   N.ar      1 RES1   0.0000
     6 C1      11.4803   3.3510   7.1475   C.3       1 RES1   0.0000
     7 H1      12.1531   4.0242   6.9613   H         1 RES1   0.0000
     8 H2      10.6676   3.6018   6.6820   H         1 RES1   0.0000
     9 C2      11.9525   2.0310   6.6412   C.ar      1 RES1   0.0000
    10 C3      12.8620   1.8197   5.6349   C.ar      1 RES1   0.0000
    11 H3      13.2543   2.5401   5.1961   H         1 RES1   0.0000
    12 C4      13.1877   0.5356   5.2854   C.ar      1 RES1   0.0000
    13 H4      13.7907   0.3885   4.5928   H         1 RES1   0.0000
    14 C5      12.6337  -0.5374   5.9435   C.ar      1 RES1   0.0000
    15 H5      12.8550  -1.4105   5.7088   H         1 RES1   0.0000
    16 C6      11.7444  -0.2791   6.9600   C.ar      1 RES1   0.0000
    17 C7      11.0960  -1.3672   7.7789   C.3       1 RES1   0.0000
    18 H6      10.4084  -1.7915   7.2432   H         1 RES1   0.0000
    19 H7      11.7634  -2.0404   7.9855   H         1 RES1   0.0000
    20 C8      11.3538  -1.1522  10.2137   C.3       1 RES1   0.0000
    21 H8      11.7494  -2.0347  10.1308   H         1 RES1   0.0000
    22 H9      10.8228  -1.1390  11.0248   H         1 RES1   0.0000
    23 C9      12.4391  -0.1339  10.3183   C.ar      1 RES1   0.0000
    24 C10     13.7009  -0.3507  10.8463   C.ar      1 RES1   0.0000
    25 H10     13.9394  -1.1918  11.1613   H         1 RES1   0.0000
    26 C11     14.5851   0.6808  10.8973   C.ar      1 RES1   0.0000
    27 H11     15.4273   0.5506  11.2685   H         1 RES1   0.0000
    28 C12     14.2345   1.9140  10.3999   C.ar      1 RES1   0.0000
    29 H12     14.8405   2.6212  10.4063   H         1 RES1   0.0000
    30 C13     12.9711   2.0781   9.8935   C.ar      1 RES1   0.0000
    31 C14     12.4736   3.4057   9.3987   C.3       1 RES1   0.0000
    32 H13     12.3252   3.9865  10.1601   H         1 RES1   0.0000
    33 H14     13.1603   3.8111   8.8477   H         1 RES1   0.0000
    34 C15     10.3064   4.4372   8.9842   C.3       1 RES1   0.0000
    35 H15     10.0604   4.3561   9.9088   H         1 RES1   0.0000
    36 H16      9.5161   4.4051   8.4395   H         1 RES1   0.0000
    37 H17     10.7555   5.2744   8.8451   H         1 RES1   0.0000
    38 C16      9.1785  -1.5991   9.2469   C.3       1 RES1   0.0000
    39 H18      9.3336  -2.5439   9.3349   H         1 RES1   0.0000
    40 H19      8.6124  -1.4388   8.4880   H         1 RES1   0.0000
    41 H20      8.7507  -1.2691  10.0402   H         1 RES1   0.0000
    42 N5       8.4296   1.7609   8.0505   N.2       1 RES1   0.0000
    43 N6       9.0778   1.6942  10.6307   N.2       1 RES1   0.0000
    44 C17      7.4838   2.1667   8.9408   C.2       1 RES1   0.0000
    45 C18      6.1095   2.6419   8.8362   C.ar      1 RES1   0.0000
    46 C19      5.1946   2.8927   7.8363   C.ar      1 RES1   0.0000
    47 H21      5.4187   2.7626   6.9435   H         1 RES1   0.0000
    48 C20      3.9145   3.3491   8.1921   C.ar      1 RES1   0.0000
    49 H22      3.3005   3.5094   7.5123   H         1 RES1   0.0000
    50 C21      3.5175   3.5735   9.4930   C.ar      1 RES1   0.0000
    51 H23      2.6607   3.8846   9.6754   H         1 RES1   0.0000
    52 C22      4.4241   3.3283  10.5440   C.ar      1 RES1   0.0000
    53 C23      4.1900   3.5113  11.9291   C.ar      1 RES1   0.0000
    54 H24      3.3639   3.8243  12.2212   H         1 RES1   0.0000
    55 C24      5.1703   3.2284  12.8360   C.ar      1 RES1   0.0000
    56 H25      4.9993   3.3717  13.7390   H         1 RES1   0.0000
    57 C25      6.4417   2.7268  12.4559   C.ar      1 RES1   0.0000
    58 H26      7.0869   2.5344  13.0987   H         1 RES1   0.0000
    59 C26      6.7035   2.5288  11.1205   C.ar      1 RES1   0.0000
    60 C27      7.8581   2.0762  10.3208   C.2       1 RES1   0.0000
    61 C28      5.6880   2.8456  10.1843   C.ar      1 RES1   0.0000
    62 C29      8.2435   1.9386   6.6565   C.ar      1 RES1   0.0000
    63 C30      8.5049   0.8712   5.8262   C.ar      1 RES1   0.0000
    64 H27      8.6888   0.0339   6.1897   H         1 RES1   0.0000
    65 C31      8.4972   1.0390   4.4513   C.ar      1 RES1   0.0000
    66 H28      8.6777   0.3111   3.9003   H         1 RES1   0.0000
    67 C32      8.2260   2.2516   3.8926   C.ar      1 RES1   0.0000
    68 H29      8.2264   2.3591   2.9692   H         1 RES1   0.0000
    69 C33      7.9534   3.3095   4.7127   C.ar      1 RES1   0.0000
    70 H30      7.7625   4.1392   4.3428   H         1 RES1   0.0000
    71 C34      7.9602   3.1586   6.0813   C.ar      1 RES1   0.0000
    72 H31      7.7697   3.8884   6.6246   H         1 RES1   0.0000
    73 C35      9.4335   1.4332  11.9789   C.ar      1 RES1   0.0000
    74 C36     10.4984   2.0762  12.5554   C.ar      1 RES1   0.0000
    75 H32     10.9691   2.7155  12.0694   H         1 RES1   0.0000
    76 C37     10.8791   1.7839  13.8499   C.ar      1 RES1   0.0000
    77 H33     11.6104   2.2195  14.2236   H         1 RES1   0.0000
    78 C38     10.1962   0.8599  14.5897   C.ar      1 RES1   0.0000
    79 H34     10.4417   0.6940  15.4710   H         1 RES1   0.0000
    80 C39      9.1412   0.1754  14.0208   C.ar      1 RES1   0.0000
    81 H35      8.6915  -0.4771  14.5068   H         1 RES1   0.0000
    82 C40      8.7541   0.4677  12.7122   C.ar      1 RES1   0.0000
    83 H36      8.0385   0.0151  12.3296   H         1 RES1   0.0000
    84 Cl1      0.3809   4.9071   6.6803   Cl        2 RES2   0.0000
    85 O1       0.7184   4.2769   5.4601   O.3       2 RES2  -1.0000
    86 O2       0.4283   3.8394   7.5123   O.2       2 RES2   0.0000
    87 O3      -0.8196   5.3989   6.4805   O.2       2 RES2   0.0000
    88 O4       1.3634   5.8496   6.6654   O.2       2 RES2   0.0000
@<TRIPOS>BOND
     1     1     2    1
     2     2     6    1
     3     3     1    1
     4     4     1    1
     5     5     1    1
     6     6     7    1
     7     8     6    1
     8     9     3   ar
     9    10     9   ar
    10    11    10    1
    11    12    10   ar
    12    13    12    1
    13    14    12   ar
    14    15    14    1
    15    16     3   ar
    16    17     4    1
    17    18    17    1
    18    19    17    1
    19    20     4    1
    20    21    20    1
    21    22    20    1
    22    23     5   ar
    23    24    23   ar
    24    25    24    1
    25    26    24   ar
    26    27    26    1
    27    28    26   ar
    28    29    28    1
    29    30     5   ar
    30    31     2    1
    31    32    31    1
    32    33    31    1
    33    34     2    1
    34    35    34    1
    35    36    34    1
    36    37    34    1
    37    38     4    1
    38    39    38    1
    39    40    38    1
    40    41    38    1
    41    42     1    1
    42    43     1    1
    43    44    42    1
    44    45    44    1
    45    46    45   ar
    46    47    46    1
    47    48    46   ar
    48    49    48    1
    49    50    48   ar
    50    51    50    1
    51    52    50   ar
    52    53    52   ar
    53    54    53    1
    54    55    53   ar
    55    56    55    1
    56    57    55   ar
    57    58    57    1
    58    59    57   ar
    59    60    43    1
    60    61    45   ar
    61    62    42    1
    62    63    62   ar
    63    64    63    1
    64    65    63   ar
    65    66    65    1
    66    67    65   ar
    67    68    67    1
    68    69    67   ar
    69    70    69    1
    70    71    62   ar
    71    72    71    1
    72    73    43    1
    73    74    73   ar
    74    75    74    1
    75    76    74   ar
    76    77    76    1
    77    78    76   ar
    78    79    78    1
    79    80    78   ar
    80    81    80    1
    81    82    73   ar
    82    83    82    1
    83     6     9    1
    84    14    16   ar
    85    16    17    1
    86    20    23    1
    87    28    30   ar
    88    30    31    1
    89    44    60    2
    90    52    61   ar
    91    59    60    1
    92    59    61   ar
    93    69    71   ar
    94    80    82   ar
    95    84    85    1
    96    86    84    2
    97    87    84    2
    98    88    84    2
@<TRIPOS>SUBSTRUCTURE
     1 RES1        1 GROUP             0 ****  ****    0  
     2 RES2       84 GROUP             0 ****  ****    0  
@<TRIPOS>CRYSIN
   14.9750   18.8575   12.7901   90.0000   94.2860   90.0000    14     1
