@<TRIPOS>MOLECULE
BODGAE01
    88    98     2     0     0
SMALL
USER_CHARGES
****
Generated from the CSD

@<TRIPOS>ATOM
     1 Fe1     10.3000   1.3286   8.9370   Fe        1 RES1   1.0000
     2 N1      11.0861   3.2703   8.6583   N.3       1 RES1   0.0000
     3 N2      11.3186   1.0039   7.3188   N.ar      1 RES1   0.0000
     4 N3      10.3319  -0.7942   9.0290   N.3       1 RES1   0.0000
     5 N4      11.9892   1.0677   9.8611   N.ar      1 RES1   0.0000
     6 C1      11.3666   3.3716   7.1987   C.3       1 RES1   0.0000
     7 H1      12.0412   4.0508   7.0427   H         1 RES1   0.0000
     8 H2      10.5593   3.6351   6.7296   H         1 RES1   0.0000
     9 C2      11.8472   2.0597   6.6721   C.ar      1 RES1   0.0000
    10 C3      12.7251   1.8742   5.6073   C.ar      1 RES1   0.0000
    11 H3      13.0930   2.6034   5.1638   H         1 RES1   0.0000
    12 C4      13.0344   0.5994   5.2303   C.ar      1 RES1   0.0000
    13 H4      13.6093   0.4583   4.5119   H         1 RES1   0.0000
    14 C5      12.5003  -0.4936   5.9064   C.ar      1 RES1   0.0000
    15 H5      12.7133  -1.3620   5.6559   H         1 RES1   0.0000
    16 C6      11.6405  -0.2487   6.9648   C.ar      1 RES1   0.0000
    17 C7      10.9611  -1.3212   7.7738   C.3       1 RES1   0.0000
    18 H6      10.2763  -1.7406   7.2306   H         1 RES1   0.0000
    19 H7      11.6118  -2.0003   8.0077   H         1 RES1   0.0000
    20 C8      11.1715  -1.1301  10.2062   C.3       1 RES1   0.0000
    21 H8      11.5287  -2.0263  10.1052   H         1 RES1   0.0000
    22 H9      10.6267  -1.1096  11.0089   H         1 RES1   0.0000
    23 C9      12.2929  -0.1559  10.3391   C.ar      1 RES1   0.0000
    24 C10     13.5344  -0.3990  10.9181   C.ar      1 RES1   0.0000
    25 H10     13.7452  -1.2395  11.2543   H         1 RES1   0.0000
    26 C11     14.4463   0.6383  10.9808   C.ar      1 RES1   0.0000
    27 H11     15.2756   0.4992  11.3796   H         1 RES1   0.0000
    28 C12     14.1377   1.8760  10.4593   C.ar      1 RES1   0.0000
    29 H12     14.7590   2.5700  10.4746   H         1 RES1   0.0000
    30 C13     12.8751   2.0634   9.9109   C.ar      1 RES1   0.0000
    31 C14     12.3720   3.3865   9.4355   C.3       1 RES1   0.0000
    32 H13     13.0465   3.7984   8.8743   H         1 RES1   0.0000
    33 H14     12.2291   3.9636  10.2011   H         1 RES1   0.0000
    34 C15     10.1780   4.3792   9.0712   C.3       1 RES1   0.0000
    35 H15      9.9471   4.2753   9.9979   H         1 RES1   0.0000
    36 H16      9.3806   4.3569   8.5382   H         1 RES1   0.0000
    37 H17     10.6237   5.2198   8.9459   H         1 RES1   0.0000
    38 C16      8.9876  -1.4121   9.1734   C.3       1 RES1   0.0000
    39 H18      9.0805  -2.3622   9.2706   H         1 RES1   0.0000
    40 H19      8.4604  -1.2191   8.3937   H         1 RES1   0.0000
    41 H20      8.5521  -1.0521   9.9506   H         1 RES1   0.0000
    42 N5       8.5348   1.7164   8.0282   N.2       1 RES1   0.0000
    43 N6       9.2023   1.6660  10.5692   N.2       1 RES1   0.0000
    44 C17      7.5876   2.1015   8.9191   C.2       1 RES1   0.0000
    45 C18      6.1986   2.5819   8.8219   C.ar      1 RES1   0.0000
    46 C19      5.2929   2.8335   7.8186   C.ar      1 RES1   0.0000
    47 H21      5.5319   2.7110   6.9277   H         1 RES1   0.0000
    48 C20      3.9921   3.2844   8.1573   C.ar      1 RES1   0.0000
    49 H22      3.3778   3.4329   7.4747   H         1 RES1   0.0000
    50 C21      3.6054   3.5108   9.4597   C.ar      1 RES1   0.0000
    51 H23      2.7491   3.8244   9.6438   H         1 RES1   0.0000
    52 C22      4.5165   3.2662  10.5193   C.ar      1 RES1   0.0000
    53 C23      4.2899   3.4514  11.9036   C.ar      1 RES1   0.0000
    54 H24      3.4637   3.7576  12.1989   H         1 RES1   0.0000
    55 C24      5.2725   3.1861  12.8073   C.ar      1 RES1   0.0000
    56 H25      5.1036   3.3401  13.7084   H         1 RES1   0.0000
    57 C25      6.5434   2.6832  12.4264   C.ar      1 RES1   0.0000
    58 H26      7.1897   2.4958  13.0680   H         1 RES1   0.0000
    59 C26      6.8036   2.4800  11.0958   C.ar      1 RES1   0.0000
    60 C27      7.9473   2.0311  10.2893   C.2       1 RES1   0.0000
    61 C28      5.7864   2.7912  10.1551   C.ar      1 RES1   0.0000
    62 C29      8.3366   1.8782   6.6401   C.ar      1 RES1   0.0000
    63 C30      8.5822   0.8053   5.7876   C.ar      1 RES1   0.0000
    64 H27      8.7871  -0.0278   6.1480   H         1 RES1   0.0000
    65 C31      8.5266   0.9593   4.4110   C.ar      1 RES1   0.0000
    66 H28      8.6936   0.2338   3.8537   H         1 RES1   0.0000
    67 C32      8.2236   2.1933   3.8716   C.ar      1 RES1   0.0000
    68 H29      8.2109   2.3084   2.9487   H         1 RES1   0.0000
    69 C33      7.9398   3.2492   4.6986   C.ar      1 RES1   0.0000
    70 H30      7.7071   4.0730   4.3330   H         1 RES1   0.0000
    71 C34      7.9972   3.1013   6.0675   C.ar      1 RES1   0.0000
    72 H31      7.8058   3.8281   6.6158   H         1 RES1   0.0000
    73 C35      9.5428   1.4084  11.9228   C.ar      1 RES1   0.0000
    74 C36     10.6118   2.0671  12.5248   C.ar      1 RES1   0.0000
    75 H32     11.0968   2.6999  12.0468   H         1 RES1   0.0000
    76 C37     10.9516   1.7795  13.8349   C.ar      1 RES1   0.0000
    77 H33     11.6706   2.2174  14.2286   H         1 RES1   0.0000
    78 C38     10.2387   0.8517  14.5660   C.ar      1 RES1   0.0000
    79 H34     10.4645   0.6791  15.4505   H         1 RES1   0.0000
    80 C39      9.1897   0.1781  13.9742   C.ar      1 RES1   0.0000
    81 H35      8.7163  -0.4620  14.4548   H         1 RES1   0.0000
    82 C40      8.8449   0.4583  12.6731   C.ar      1 RES1   0.0000
    83 H36      8.1316   0.0056  12.2832   H         1 RES1   0.0000
    84 Cl1      0.4964   4.8119   6.6685   Cl        2 RES2   0.0000
    85 O1       0.9293   4.1714   5.4693   O.3       2 RES2  -1.0000
    86 O2       0.5050   3.7502   7.5757   O.2       2 RES2   0.0000
    87 O3      -0.7609   5.3014   6.4330   O.2       2 RES2   0.0000
    88 O4       1.4297   5.8062   6.8050   O.2       2 RES2   0.0000
@<TRIPOS>BOND
     1     1     2    1
     2     2     6    1
     3     3     1    1
     4     4     1    1
     5     5     1    1
     6     6     7    1
     7     8     6    1
     8     9     3   ar
     9    10     9   ar
    10    11    10    1
    11    12    10   ar
    12    13    12    1
    13    14    12   ar
    14    15    14    1
    15    16     3   ar
    16    17     4    1
    17    18    17    1
    18    19    17    1
    19    20     4    1
    20    21    20    1
    21    22    20    1
    22    23     5   ar
    23    24    23   ar
    24    25    24    1
    25    26    24   ar
    26    27    26    1
    27    28    26   ar
    28    29    28    1
    29    30     5   ar
    30    31     2    1
    31    32    31    1
    32    33    31    1
    33    34     2    1
    34    35    34    1
    35    36    34    1
    36    37    34    1
    37    38     4    1
    38    39    38    1
    39    40    38    1
    40    41    38    1
    41    42     1    1
    42    43     1    1
    43    44    42    1
    44    45    44    1
    45    46    45   ar
    46    47    46    1
    47    48    46   ar
    48    49    48    1
    49    50    48   ar
    50    51    50    1
    51    52    50   ar
    52    53    52   ar
    53    54    53    1
    54    55    53   ar
    55    56    55    1
    56    57    55   ar
    57    58    57    1
    58    59    57   ar
    59    60    43    1
    60    61    45   ar
    61    62    42    1
    62    63    62   ar
    63    64    63    1
    64    65    63   ar
    65    66    65    1
    66    67    65   ar
    67    68    67    1
    68    69    67   ar
    69    70    69    1
    70    71    62   ar
    71    72    71    1
    72    73    43    1
    73    74    73   ar
    74    75    74    1
    75    76    74   ar
    76    77    76    1
    77    78    76   ar
    78    79    78    1
    79    80    78   ar
    80    81    80    1
    81    82    73   ar
    82    83    82    1
    83     6     9    1
    84    14    16   ar
    85    16    17    1
    86    20    23    1
    87    28    30   ar
    88    30    31    1
    89    44    60    2
    90    52    61   ar
    91    59    60    1
    92    59    61   ar
    93    69    71   ar
    94    80    82   ar
    95    84    85    1
    96    86    84    2
    97    87    84    2
    98    88    84    2
@<TRIPOS>SUBSTRUCTURE
     1 RES1        1 GROUP             0 ****  ****    0  
     2 RES2       84 GROUP             0 ****  ****    0  
@<TRIPOS>CRYSIN
   14.7462   18.5560   12.8058   90.0000   93.5150   90.0000    14     1
