@<TRIPOS>MOLECULE
BODGAE
    88    98     2     0     0
SMALL
USER_CHARGES
****
Generated from the CSD

@<TRIPOS>ATOM
     1 Fe1     10.1869   1.3113   8.9277   Fe        1 RES1   1.0000
     2 N1      10.9254   3.2364   8.6808   N.3       1 RES1   0.0000
     3 N2      11.1820   1.0019   7.3317   N.ar      1 RES1   0.0000
     4 N3      10.1598  -0.7734   9.0161   N.3       1 RES1   0.0000
     5 N4      11.8240   1.0446   9.8671   N.ar      1 RES1   0.0000
     6 C1      11.2099   3.3693   7.2142   C.3       1 RES1   0.0000
     7 H1      10.3851   3.6365   6.7354   H         1 RES1   0.0000
     8 H2      11.8944   4.0705   7.0669   H         1 RES1   0.0000
     9 C2      11.7020   2.0623   6.6844   C.ar      1 RES1   0.0000
    10 C3      12.5727   1.8848   5.6196   C.ar      1 RES1   0.0000
    11 H3      12.9482   2.6316   5.1686   H         1 RES1   0.0000
    12 C4      12.8837   0.5891   5.2284   C.ar      1 RES1   0.0000
    13 H4      13.4655   0.4468   4.4902   H         1 RES1   0.0000
    14 C5      12.3539  -0.4948   5.9041   C.ar      1 RES1   0.0000
    15 H5      12.5689  -1.3824   5.6435   H         1 RES1   0.0000
    16 C6      11.5009  -0.2526   6.9725   C.ar      1 RES1   0.0000
    17 C7      10.8136  -1.3180   7.7734   C.3       1 RES1   0.0000
    18 H6      11.4758  -2.0079   8.0320   H         1 RES1   0.0000
    19 H7      10.1267  -1.7544   7.2102   H         1 RES1   0.0000
    20 C8      10.9724  -1.1371  10.2163   C.3       1 RES1   0.0000
    21 H8      11.3181  -2.0590  10.1197   H         1 RES1   0.0000
    22 H9      10.4062  -1.1015  11.0272   H         1 RES1   0.0000
    23 C9      12.1174  -0.1774  10.3539   C.ar      1 RES1   0.0000
    24 C10     13.3347  -0.4260  10.9627   C.ar      1 RES1   0.0000
    25 H10     13.5322  -1.2821  11.3241   H         1 RES1   0.0000
    26 C11     14.2566   0.5993  11.0335   C.ar      1 RES1   0.0000
    27 H11     15.0932   0.4523  11.4585   H         1 RES1   0.0000
    28 C12     13.9702   1.8418  10.4891   C.ar      1 RES1   0.0000
    29 H12     14.6151   2.5386  10.5011   H         1 RES1   0.0000
    30 C13     12.7223   2.0402   9.9281   C.ar      1 RES1   0.0000
    31 C14     12.2133   3.3668   9.4533   C.3       1 RES1   0.0000
    32 H13     12.8978   3.7897   8.8768   H         1 RES1   0.0000
    33 H14     12.0658   3.9575  10.2336   H         1 RES1   0.0000
    34 C15     10.0163   4.3313   9.1037   C.3       1 RES1   0.0000
    35 H15      9.8066   4.2328  10.0557   H         1 RES1   0.0000
    36 H16      9.1890   4.2894   8.5798   H         1 RES1   0.0000
    37 H17     10.4537   5.1957   8.9549   H         1 RES1   0.0000
    38 C16      8.8107  -1.3807   9.1533   C.3       1 RES1   0.0000
    39 H18      8.8950  -2.3562   9.2057   H         1 RES1   0.0000
    40 H19      8.2632  -1.1416   8.3763   H         1 RES1   0.0000
    41 H20      8.3826  -1.0450   9.9686   H         1 RES1   0.0000
    42 N5       8.4406   1.6836   7.9990   N.2       1 RES1   0.0000
    43 N6       9.0910   1.6413  10.5477   N.2       1 RES1   0.0000
    44 C17      7.4935   2.0717   8.8756   C.2       1 RES1   0.0000
    45 C18      6.0982   2.5532   8.7609   C.ar      1 RES1   0.0000
    46 C19      5.2006   2.8182   7.7521   C.ar      1 RES1   0.0000
    47 H21      5.4503   2.7009   6.8429   H         1 RES1   0.0000
    48 C20      3.8960   3.2690   8.0863   C.ar      1 RES1   0.0000
    49 H22      3.2775   3.4340   7.3843   H         1 RES1   0.0000
    50 C21      3.4942   3.4765   9.3814   C.ar      1 RES1   0.0000
    51 H23      2.6143   3.7860   9.5629   H         1 RES1   0.0000
    52 C22      4.3916   3.2276  10.4467   C.ar      1 RES1   0.0000
    53 C23      4.1339   3.3994  11.8342   C.ar      1 RES1   0.0000
    54 H24      3.2838   3.7076  12.1254   H         1 RES1   0.0000
    55 C24      5.1110   3.1215  12.7504   C.ar      1 RES1   0.0000
    56 H25      4.9230   3.2626  13.6704   H         1 RES1   0.0000
    57 C25      6.3994   2.6287  12.3860   C.ar      1 RES1   0.0000
    58 H26      7.0527   2.4401  13.0483   H         1 RES1   0.0000
    59 C26      6.6727   2.4330  11.0478   C.ar      1 RES1   0.0000
    60 C27      7.8298   1.9973  10.2434   C.2       1 RES1   0.0000
    61 C28      5.6661   2.7483  10.1009   C.ar      1 RES1   0.0000
    62 C29      8.2590   1.8365   6.6061   C.ar      1 RES1   0.0000
    63 C30      8.5205   0.7592   5.7554   C.ar      1 RES1   0.0000
    64 H27      8.7327  -0.0894   6.1274   H         1 RES1   0.0000
    65 C31      8.4761   0.9069   4.3860   C.ar      1 RES1   0.0000
    66 H28      8.6634   0.1641   3.8246   H         1 RES1   0.0000
    67 C32      8.1584   2.1347   3.8208   C.ar      1 RES1   0.0000
    68 H29      8.1468   2.2413   2.8774   H         1 RES1   0.0000
    69 C33      7.8596   3.2004   4.6505   C.ar      1 RES1   0.0000
    70 H30      7.6184   4.0377   4.2726   H         1 RES1   0.0000
    71 C34      7.9090   3.0565   6.0235   C.ar      1 RES1   0.0000
    72 H31      7.7020   3.7988   6.5792   H         1 RES1   0.0000
    73 C35      9.4172   1.3816  11.9026   C.ar      1 RES1   0.0000
    74 C36     10.4931   2.0300  12.5121   C.ar      1 RES1   0.0000
    75 H32     11.0043   2.6626  12.0217   H         1 RES1   0.0000
    76 C37     10.8161   1.7522  13.8267   C.ar      1 RES1   0.0000
    77 H33     11.5515   2.1957  14.2323   H         1 RES1   0.0000
    78 C38     10.0823   0.8342  14.5628   C.ar      1 RES1   0.0000
    79 H34     10.3013   0.6602  15.4701   H         1 RES1   0.0000
    80 C39      9.0238   0.1740  13.9561   C.ar      1 RES1   0.0000
    81 H35      8.5218  -0.4669  14.4473   H         1 RES1   0.0000
    82 C40      8.6953   0.4419  12.6425   C.ar      1 RES1   0.0000
    83 H36      7.9703  -0.0182  12.2368   H         1 RES1   0.0000
    84 Cl1      0.4786   4.7128   6.6106   Cl        2 RES2   0.0000
    85 O1       0.8755   4.1070   5.3864   O.2       2 RES2   0.0000
    86 O2       0.4481   3.7098   7.6360   O.3       2 RES2  -1.0000
    87 O3      -0.8231   5.2789   6.4572   O.2       2 RES2   0.0000
    88 O4       1.4097   5.7381   6.9125   O.2       2 RES2   0.0000
@<TRIPOS>BOND
     1     1     2    1
     2     2     6    1
     3     3     1    1
     4     4     1    1
     5     5     1    1
     6     6     7    1
     7     8     6    1
     8     9     3   ar
     9    10     9   ar
    10    11    10    1
    11    12    10   ar
    12    13    12    1
    13    14    12   ar
    14    15    14    1
    15    16     3   ar
    16    17     4    1
    17    18    17    1
    18    19    17    1
    19    20     4    1
    20    21    20    1
    21    22    20    1
    22    23     5   ar
    23    24    23   ar
    24    25    24    1
    25    26    24   ar
    26    27    26    1
    27    28    26   ar
    28    29    28    1
    29    30     5   ar
    30    31     2    1
    31    32    31    1
    32    33    31    1
    33    34     2    1
    34    35    34    1
    35    36    34    1
    36    37    34    1
    37    38     4    1
    38    39    38    1
    39    40    38    1
    40    41    38    1
    41    42     1    1
    42    43     1    1
    43    44    42    1
    44    45    44    1
    45    46    45   ar
    46    47    46    1
    47    48    46   ar
    48    49    48    1
    49    50    48   ar
    50    51    50    1
    51    52    50   ar
    52    53    52   ar
    53    54    53    1
    54    55    53   ar
    55    56    55    1
    56    57    55   ar
    57    58    57    1
    58    59    57   ar
    59    60    43    1
    60    61    45   ar
    61    62    42    1
    62    63    62   ar
    63    64    63    1
    64    65    63   ar
    65    66    65    1
    66    67    65   ar
    67    68    67    1
    68    69    67   ar
    69    70    69    1
    70    71    62   ar
    71    72    71    1
    72    73    43    1
    73    74    73   ar
    74    75    74    1
    75    76    74   ar
    76    77    76    1
    77    78    76   ar
    78    79    78    1
    79    80    78   ar
    80    81    80    1
    81    82    73   ar
    82    83    82    1
    83     6     9    1
    84    14    16   ar
    85    16    17    1
    86    20    23    1
    87    28    30   ar
    88    30    31    1
    89    44    60    2
    90    52    61   ar
    91    59    60    1
    92    59    61   ar
    93    69    71   ar
    94    80    82   ar
    95    84    85    2
    96    86    84    1
    97    87    84    2
    98    88    84    2
@<TRIPOS>SUBSTRUCTURE
     1 RES1        1 GROUP             0 ****  ****    0  
     2 RES2       84 GROUP             0 ****  ****    0  
@<TRIPOS>CRYSIN
   14.5714   18.2371   12.8248   90.0000   93.5650   90.0000    14     1
