@<TRIPOS>MOLECULE
BOGLAM
    94    94     2     0     0
SMALL
USER_CHARGES
****
Generated from the CSD

@<TRIPOS>ATOM
     1 C1      10.1671   0.0405   4.1792   C.3       1 RES1   0.0000
     2 H1      10.5755  -0.8616   4.1728   H         1 RES1   0.0000
     3 H2      10.7079   0.6254   3.5908   H         1 RES1   0.0000
     4 C2      10.0983   2.0258   5.5620   C.3       1 RES1   0.0000
     5 H3      10.7095   2.3936   4.8770   H         1 RES1   0.0000
     6 H4      10.4110   2.3463   6.4455   H         1 RES1   0.0000
     7 C3       7.7730  -1.4341   4.5499   C.3       1 RES1   0.0000
     8 H5       7.6976  -1.1091   5.4823   H         1 RES1   0.0000
     9 H6       6.8550  -1.6253   4.2310   H         1 RES1   0.0000
    10 C4       8.5391  -2.7456   4.5747   C.3       1 RES1   0.0000
    11 H7       8.6068  -3.1022   3.6636   H         1 RES1   0.0000
    12 H8       8.0663  -3.3901   5.1418   H         1 RES1   0.0000
    13 H9       9.4380  -2.5927   4.9323   H         1 RES1   0.0000
    14 C5       8.7806  -0.9190   1.9412   C.3       1 RES1   0.0000
    15 H10      9.2837  -0.3104   1.3444   H         1 RES1   0.0000
    16 H11      9.3501  -1.7108   2.1155   H         1 RES1   0.0000
    17 C6       7.5015  -1.3723   1.2286   C.3       1 RES1   0.0000
    18 H12      6.9989  -1.9774   1.8129   H         1 RES1   0.0000
    19 H13      7.7367  -1.8379   0.3987   H         1 RES1   0.0000
    20 H14      6.9508  -0.5894   1.0185   H         1 RES1   0.0000
    21 C7      11.3917   0.1249   6.2421   C.3       1 RES1   0.0000
    22 H15     11.4399  -0.8537   6.2243   H         1 RES1   0.0000
    23 H16     11.3573   0.4330   7.1729   H         1 RES1   0.0000
    24 H17     12.1835   0.4994   5.8024   H         1 RES1   0.0000
    25 C8       7.7032   2.5848   6.9637   C.3       1 RES1   0.0000
    26 H18      8.2330   3.1809   7.5512   H         1 RES1   0.0000
    27 H19      6.7783   2.9357   6.9431   H         1 RES1   0.0000
    28 C9       7.6742   1.2035   7.5920   C.3       1 RES1   0.0000
    29 H20      7.0387   0.6366   7.1060   H         1 RES1   0.0000
    30 H21      7.3949   1.2766   8.5290   H         1 RES1   0.0000
    31 H22      8.5684   0.8042   7.5483   H         1 RES1   0.0000
    32 C10      8.7920   4.4835   5.1546   C.3       1 RES1   0.0000
    33 H23      9.1814   4.6555   4.2601   H         1 RES1   0.0000
    34 H24      7.9381   4.9829   5.2029   H         1 RES1   0.0000
    35 C11      9.7384   5.0762   6.1975   C.3       1 RES1   0.0000
    36 H25      9.3937   4.8884   7.0944   H         1 RES1   0.0000
    37 H26      9.8018   6.0447   6.0672   H         1 RES1   0.0000
    38 H27     10.6262   4.6735   6.0992   H         1 RES1   0.0000
    39 C12      7.8594   4.5464   1.5254   C.3       1 RES1   0.0000
    40 H28      8.3195   5.0807   2.2203   H         1 RES1   0.0000
    41 H29      8.2652   4.7815   0.6547   H         1 RES1   0.0000
    42 C13      5.8824   4.9727   2.8281   C.3       1 RES1   0.0000
    43 H30      5.0338   5.4834   2.7935   H         1 RES1   0.0000
    44 H31      6.4991   5.4587   3.4308   H         1 RES1   0.0000
    45 C14      7.8589   2.0618   0.1825   C.3       1 RES1   0.0000
    46 H32      8.3543   2.6028  -0.4830   H         1 RES1   0.0000
    47 H33      8.2332   1.1450   0.1542   H         1 RES1   0.0000
    48 C15      6.3945   1.9931  -0.2514   C.3       1 RES1   0.0000
    49 H34      5.8965   1.4229   0.3696   H         1 RES1   0.0000
    50 H35      6.3387   1.6197  -1.1552   H         1 RES1   0.0000
    51 H36      6.0109   2.8952  -0.2473   H         1 RES1   0.0000
    52 C16     10.0278   2.8244   1.8362   C.3       1 RES1   0.0000
    53 H37     10.3287   3.1224   2.7324   H         1 RES1   0.0000
    54 H38     10.3592   1.8998   1.7110   H         1 RES1   0.0000
    55 C17     10.7132   3.7096   0.7967   C.3       1 RES1   0.0000
    56 H39     10.4143   3.4520  -0.0989   H         1 RES1   0.0000
    57 H40     11.6847   3.5971   0.8613   H         1 RES1   0.0000
    58 H41     10.4812   4.6465   0.9603   H         1 RES1   0.0000
    59 C18      6.3596   6.2651   0.8942   C.3       1 RES1   0.0000
    60 H42      5.4233   6.5565   0.8992   H         1 RES1   0.0000
    61 H43      6.6862   6.2291  -0.0291   H         1 RES1   0.0000
    62 H44      6.9017   6.8995   1.4084   H         1 RES1   0.0000
    63 C19      4.0550   2.8896   2.5514   C.3       1 RES1   0.0000
    64 H45      3.3333   3.5206   2.7993   H         1 RES1   0.0000
    65 H46      4.2670   3.0493   1.5975   H         1 RES1   0.0000
    66 C20      3.5060   1.4780   2.6768   C.3       1 RES1   0.0000
    67 H47      4.2011   0.8335   2.4298   H         1 RES1   0.0000
    68 H48      2.7352   1.3734   2.0806   H         1 RES1   0.0000
    69 H49      3.2261   1.3183   3.6025   H         1 RES1   0.0000
    70 C21      4.8255   3.9570   5.1148   C.3       1 RES1   0.0000
    71 H50      5.5803   4.2529   5.6831   H         1 RES1   0.0000
    72 H51      4.2999   4.7658   4.8916   H         1 RES1   0.0000
    73 C22      3.9490   3.0718   5.9592   C.3       1 RES1   0.0000
    74 H52      3.1985   2.7445   5.4212   H         1 RES1   0.0000
    75 H53      3.6058   3.5825   6.7219   H         1 RES1   0.0000
    76 H54      4.4728   2.3103   6.2854   H         1 RES1   0.0000
    77 N1       6.0070   0.8402   4.6547   N.1       1 RES1   0.0000
    78 N2       5.2499   0.2362   5.2157   N.1       1 RES1   0.0000
    79 N3      10.1826   0.5688   5.5349   N.3       1 RES1   0.0000
    80 N4       6.4599   4.9355   1.5001   N.3       1 RES1   0.0000
    81 Fe1      7.1697   1.7727   3.5995   Fe        1 RES1   1.0000
    82 P1       8.4514  -0.0623   3.5268   P.3       1 RES1   0.0000
    83 P2       8.3978   2.6888   5.2582   P.3       1 RES1   0.0000
    84 P3       8.1826   2.7650   1.8533   P.3       1 RES1   0.0000
    85 P4       5.5443   3.3200   3.5385   P.3       1 RES1   0.0000
    86 H55      6.3018   1.0911   2.5229   H         1 RES1   0.0000
    87 C23     12.7504   7.7780   4.1143   C.3       2 RES2   0.0000
    88 O1      12.9848   6.4524   1.9595   O.3       2 RES2  -1.0000
    89 O2      10.7601   6.9839   2.7301   O.2       2 RES2   0.0000
    90 O3      12.0768   5.3304   3.8827   O.2       2 RES2   0.0000
    91 F1      14.0130   7.5137   4.4391   F         2 RES2   0.0000
    92 F2      12.7329   8.9639   3.5309   F         2 RES2   0.0000
    93 F3      12.0607   7.9034   5.2524   F         2 RES2   0.0000
    94 S1      12.0564   6.4884   3.0458   S.o2      2 RES2   0.0000
@<TRIPOS>BOND
     1     1     2    1
     2     3     1    1
     3     4     5    1
     4     6     4    1
     5     7     8    1
     6     9     7    1
     7    10     7    1
     8    11    10    1
     9    12    10    1
    10    13    10    1
    11    14    15    1
    12    16    14    1
    13    17    14    1
    14    18    17    1
    15    19    17    1
    16    20    17    1
    17    21    22    1
    18    23    21    1
    19    24    21    1
    20    25    26    1
    21    27    25    1
    22    28    25    1
    23    29    28    1
    24    30    28    1
    25    31    28    1
    26    32    33    1
    27    34    32    1
    28    35    32    1
    29    36    35    1
    30    37    35    1
    31    38    35    1
    32    39    40    1
    33    41    39    1
    34    42    43    1
    35    44    42    1
    36    45    46    1
    37    47    45    1
    38    48    45    1
    39    49    48    1
    40    50    48    1
    41    51    48    1
    42    52    53    1
    43    54    52    1
    44    55    52    1
    45    56    55    1
    46    57    55    1
    47    58    55    1
    48    59    60    1
    49    61    59    1
    50    62    59    1
    51    63    64    1
    52    65    63    1
    53    66    63    1
    54    67    66    1
    55    68    66    1
    56    69    66    1
    57    70    71    1
    58    72    70    1
    59    73    70    1
    60    74    73    1
    61    75    73    1
    62    76    73    1
    63    77    78    3
    64    79     1    1
    65    80    39    1
    66    81    77    1
    67    82     1    1
    68    83     4    1
    69    84    39    1
    70    85    42    1
    71    86    81    1
    72     4    79    1
    73     7    82    1
    74    14    82    1
    75    21    79    1
    76    25    83    1
    77    32    83    1
    78    42    80    1
    79    45    84    1
    80    52    84    1
    81    59    80    1
    82    63    85    1
    83    70    85    1
    84    81    82    1
    85    81    83    1
    86    81    84    1
    87    81    85    1
    88    87    91    1
    89    88    94    1
    90    89    94    2
    91    90    94    2
    92    92    87    1
    93    93    87    1
    94    94    87    1
@<TRIPOS>SUBSTRUCTURE
     1 RES1        1 GROUP             0 ****  ****    0  
     2 RES2       87 GROUP             0 ****  ****    0  
@<TRIPOS>CRYSIN
   10.2149   11.2480   29.3286   90.0000   97.1720   90.0000   231     1
