@<TRIPOS>MOLECULE
BOJGIU01
    91    98     3     0     0
SMALL
NO_CHARGES
****
Generated from the CSD

@<TRIPOS>ATOM
     1 Br1      6.2497   4.6653  26.3104   Br        1 RES1   0.0000
     2 O1       6.2009   8.6009  22.9536   O.co2     1 RES1   0.0000
     3 O2       7.5338   8.3311  21.2475   O.co2     1 RES1   0.0000
     4 C1       7.0062   4.9351  24.5958   C.ar      1 RES1   0.0000
     5 C2       6.7894   6.1631  24.0195   C.ar      1 RES1   0.0000
     6 C3       7.2811   6.5127  22.7501   C.ar      1 RES1   0.0000
     7 C4       7.0228   7.9055  22.2135   C.2       1 RES1   0.0000
     8 H1       6.2835   6.8068  24.5018   H         1 RES1   0.0000
     9 Br1A     8.7827   5.8073  20.3566   Br        1 RES1   0.0000
    10 O1A      8.8314   1.8717  23.7133   O.co2     1 RES1   0.0000
    11 O2A      7.4986   2.1415  25.4195   O.co2     1 RES1   0.0000
    12 C1A      8.0261   5.5375  22.0711   C.ar      1 RES1   0.0000
    13 C2A      8.2430   4.3095  22.6475   C.ar      1 RES1   0.0000
    14 C3A      7.7512   3.9599  23.9168   C.ar      1 RES1   0.0000
    15 C4A      8.0095   2.5671  24.4535   C.2       1 RES1   0.0000
    16 H1A      8.7488   3.6658  22.1652   H         1 RES1   0.0000
    17 Br2      0.8708  -0.3622  12.7207   Br        2 RES2   0.0000
    18 O3       4.4708   3.3580  13.8428   O.co2     2 RES2   0.0000
    19 O4       5.0372   4.2125  11.8599   O.co2     2 RES2   0.0000
    20 C5       4.2572   3.6599  12.5837   C.2       2 RES2   0.0000
    21 C6       2.9157   3.1609  12.1096   C.ar      2 RES2   0.0000
    22 C7       2.4771   1.9235  12.5464   C.ar      2 RES2   0.0000
    23 C8       1.2733   1.3769  12.1217   C.ar      2 RES2   0.0000
    24 H2       3.0155   1.4326  13.1559   H         2 RES2   0.0000
    25 Br2A     2.4986   5.5985  10.6128   Br        2 RES2   0.0000
    26 O3A     -1.1014   1.8783   9.4907   O.co2     2 RES2   0.0000
    27 O4A     -1.6679   1.0238  11.4735   O.co2     2 RES2   0.0000
    28 C5A     -0.8878   1.5764  10.7497   C.2       2 RES2   0.0000
    29 C6A      0.4537   2.0754  11.2239   C.ar      2 RES2   0.0000
    30 C7A      0.8922   3.3128  10.7871   C.ar      2 RES2   0.0000
    31 C8A      2.0961   3.8594  11.2117   C.ar      2 RES2   0.0000
    32 H2A      0.3539   3.8037  10.1776   H         2 RES2   0.0000
    33 Fe1      3.8937   7.4709  17.5640   Fe        3 RES3   0.0000
    34 O5       4.5740   5.7543  18.3592   O.3       3 RES3   0.0000
    35 O6       2.0720   6.6624  17.2598   O.3       3 RES3   0.0000
    36 N1       3.2711   9.3825  17.5337   N.ar      3 RES3   0.0000
    37 N2       3.6822   7.8168  19.4440   N.2       3 RES3   0.0000
    38 N3       3.9776   6.8048  20.3424   N.2       3 RES3   0.0000
    39 N4       5.4481   2.2772  21.8891   N.ar      3 RES3   0.0000
    40 N5       5.7022   8.1427  17.1478   N.ar      3 RES3   0.0000
    41 N6       3.9430   7.1718  15.6717   N.2       3 RES3   0.0000
    42 N7       2.8590   6.5335  15.0802   N.2       3 RES3   0.0000
    43 N8      -1.6467   4.3985  14.7542   N.ar      3 RES3   0.0000
    44 C9       2.9670   9.8778  18.7648   C.ar      3 RES3   0.0000
    45 C10      2.5810  11.2105  18.9281   C.ar      3 RES3   0.0000
    46 C11      2.5523  12.0555  17.8478   C.ar      3 RES3   0.0000
    47 C12      2.9132  11.5594  16.6134   C.ar      3 RES3   0.0000
    48 C13      3.2488  10.2190  16.4898   C.ar      3 RES3   0.0000
    49 C14      3.1502   8.9395  19.8547   C.2       3 RES3   0.0000
    50 C15      2.7870   9.2092  21.2755   C.3       3 RES3   0.0000
    51 C16      4.4349   5.7875  19.6398   C.2       3 RES3   0.0000
    52 C17      4.8113   4.5786  20.4261   C.ar      3 RES3   0.0000
    53 C18      4.3972   4.4281  21.7235   C.ar      3 RES3   0.0000
    54 C19      4.7206   3.2710  22.4048   C.ar      3 RES3   0.0000
    55 C20      5.5561   3.5642  19.8731   C.ar      3 RES3   0.0000
    56 C21      5.8574   2.4508  20.6478   C.ar      3 RES3   0.0000
    57 C22      5.9465   8.2495  15.8038   C.ar      3 RES3   0.0000
    58 C23      7.0731   8.9109  15.3231   C.ar      3 RES3   0.0000
    59 C24      7.9980   9.3891  16.2471   C.ar      3 RES3   0.0000
    60 C25      7.7727   9.2003  17.5771   C.ar      3 RES3   0.0000
    61 C26      6.6343   8.5952  18.0041   C.ar      3 RES3   0.0000
    62 C27      4.9339   7.6181  14.9428   C.2       3 RES3   0.0000
    63 C28      5.0537   7.4787  13.4704   C.3       3 RES3   0.0000
    64 C29      1.9558   6.3253  16.0231   C.2       3 RES3   0.0000
    65 C30      0.7014   5.6654  15.5814   C.ar      3 RES3   0.0000
    66 C31      0.5614   5.1937  14.2918   C.ar      3 RES3   0.0000
    67 C32     -0.6192   4.5765  13.9114   C.ar      3 RES3   0.0000
    68 C33     -0.3689   5.4888  16.4384   C.ar      3 RES3   0.0000
    69 C34     -1.5141   4.8660  15.9904   C.ar      3 RES3   0.0000
    70 H3       2.3375  11.5318  19.7887   H         3 RES3   0.0000
    71 H4       2.2901  12.9627  17.9486   H         3 RES3   0.0000
    72 H5       2.9314  12.1306  15.8546   H         3 RES3   0.0000
    73 H6       3.4717   9.8821  15.6302   H         3 RES3   0.0000
    74 H7       2.7985  10.1754  21.4379   H         3 RES3   0.0000
    75 H8       3.4340   8.7707  21.8670   H         3 RES3   0.0000
    76 H9       1.8899   8.8581  21.4556   H         3 RES3   0.0000
    77 H10      3.8943   5.1118  22.1502   H         3 RES3   0.0000
    78 H11      4.4057   3.1771  23.2968   H         3 RES3   0.0000
    79 H12      5.8600   3.6240  18.9743   H         3 RES3   0.0000
    80 H13      6.3932   1.7701  20.2574   H         3 RES3   0.0000
    81 H14      7.2079   9.0326  14.3916   H         3 RES3   0.0000
    82 H15      8.7792   9.8432  15.9519   H         3 RES3   0.0000
    83 H16      8.4164   9.4934  18.2099   H         3 RES3   0.0000
    84 H17      6.4935   8.4882  18.9374   H         3 RES3   0.0000
    85 H18      5.8213   6.9075  13.2574   H         3 RES3   0.0000
    86 H19      5.1833   8.3630  13.0679   H         3 RES3   0.0000
    87 H20      4.2362   7.0738  13.1127   H         3 RES3   0.0000
    88 H21      1.2718   5.2917  13.6690   H         3 RES3   0.0000
    89 H22     -0.7034   4.2667  13.0177   H         3 RES3   0.0000
    90 H23     -0.3158   5.7980  17.3349   H         3 RES3   0.0000
    91 H24     -2.2408   4.7655  16.5943   H         3 RES3   0.0000
@<TRIPOS>BOND
     1     1     4    1
     2     2     7    1
     3     3     7    2
     4     4     5   ar
     5     5     6   ar
     6     6     7    1
     7     8     5    1
     8     9    12    1
     9    10    15    1
    10    11    15    2
    11    12     6   ar
    12    13    12   ar
    13    14     4   ar
    14    15    14    1
    15    16    13    1
    16    13    14   ar
    17    17    23    1
    18    18    20    1
    19    19    20    2
    20    20    21    1
    21    21    22   ar
    22    22    23   ar
    23    23    29   ar
    24    24    22    1
    25    25    31    1
    26    26    28    1
    27    27    28    2
    28    28    29    1
    29    29    30   ar
    30    30    31   ar
    31    31    21   ar
    32    32    30    1
    33    33    34    1
    34    34    51    1
    35    35    33    1
    36    36    33    1
    37    37    33    1
    38    38    37    1
    39    39    54   ar
    40    40    33    1
    41    41    33    1
    42    42    41    1
    43    43    67   ar
    44    44    36   ar
    45    45    44   ar
    46    46    45   ar
    47    47    46   ar
    48    48    36   ar
    49    49    37    2
    50    50    49    1
    51    51    38    2
    52    52    51    1
    53    53    52   ar
    54    54    53   ar
    55    55    52   ar
    56    56    39   ar
    57    57    40   ar
    58    58    57   ar
    59    59    58   ar
    60    60    59   ar
    61    61    40   ar
    62    62    41    2
    63    63    62    1
    64    64    35    1
    65    65    64    1
    66    66    65   ar
    67    67    66   ar
    68    68    65   ar
    69    69    43   ar
    70    70    45    1
    71    71    46    1
    72    72    47    1
    73    73    48    1
    74    74    50    1
    75    75    50    1
    76    76    50    1
    77    77    53    1
    78    78    54    1
    79    79    55    1
    80    80    56    1
    81    81    58    1
    82    82    59    1
    83    83    60    1
    84    84    61    1
    85    85    63    1
    86    86    63    1
    87    87    63    1
    88    88    66    1
    89    89    67    1
    90    90    68    1
    91    91    69    1
    92    42    64    2
    93    44    49    1
    94    47    48   ar
    95    55    56   ar
    96    57    62    1
    97    60    61   ar
    98    68    69   ar
@<TRIPOS>SUBSTRUCTURE
     1 RES1        1 GROUP             0 ****  ****    0  
     2 RES2       17 GROUP             0 ****  ****    0  
     3 RES3       33 GROUP             0 ****  ****    0  
@<TRIPOS>CRYSIN
    8.2936    8.7689   24.1500   77.1770   81.9800   87.8350     2     1
