@<TRIPOS>MOLECULE
BOJGIU
    95   102     3     0     0
SMALL
NO_CHARGES
****
Generated from the CSD

@<TRIPOS>ATOM
     1 Br1      0.8488  -0.5296  12.4629   Br        1 RES1   0.0000
     2 O1       4.4257   3.1971  13.4547   O.3       1 RES1   0.0000
     3 O2       4.9692   4.0754  11.4609   O.2       1 RES1   0.0000
     4 C1       4.2078   3.4983  12.2066   C.2       1 RES1   0.0000
     5 C2       2.8582   2.9990  11.7588   C.ar      1 RES1   0.0000
     6 C3       2.4295   1.7620  12.2200   C.ar      1 RES1   0.0000
     7 C4       1.2226   1.2143  11.8317   C.ar      1 RES1   0.0000
     8 H1       2.9833   1.2771  12.8207   H         1 RES1   0.0000
     9 H2       5.3296   3.6235  13.7462   H         1 RES1   0.0000
    10 Br1A     2.3824   5.4209  10.2580   Br        1 RES1   0.0000
    11 O1A     -1.1945   1.6942   9.2663   O.3       1 RES1   0.0000
    12 O2A     -1.7380   0.8159  11.2600   O.2       1 RES1   0.0000
    13 C1A     -0.9766   1.3930  10.5143   C.2       1 RES1   0.0000
    14 C2A      0.3730   1.8923  10.9622   C.ar      1 RES1   0.0000
    15 C3A      0.8017   3.1294  10.5009   C.ar      1 RES1   0.0000
    16 C4A      2.0086   3.6770  10.8892   C.ar      1 RES1   0.0000
    17 H1A      0.2479   3.6143   9.9002   H         1 RES1   0.0000
    18 H2A     -2.0984   1.2678   8.9748   H         1 RES1   0.0000
    19 Br2      5.9731   4.2747  25.6201   Br        2 RES2   0.0000
    20 O3       6.1242   8.2604  22.3713   O.3       2 RES2   0.0000
    21 O4       7.6213   8.0541  20.7349   O.2       2 RES2   0.0000
    22 C5       6.8208   4.5747  23.9460   C.ar      2 RES2   0.0000
    23 C6       6.6597   5.8309  23.3991   C.ar      2 RES2   0.0000
    24 C7       7.2061   6.1831  22.1649   C.ar      2 RES2   0.0000
    25 C8       7.0112   7.5927  21.6651   C.2       2 RES2   0.0000
    26 H3       6.1587   6.4791  23.8799   H         2 RES2   0.0000
    27 H4       6.0179   9.0194  22.0847   H         2 RES2   0.0000
    28 Br2A     8.8034   5.5079  19.8217   Br        2 RES2   0.0000
    29 O3A      8.6524   1.5222  23.0706   O.3       2 RES2   0.0000
    30 O4A      7.1553   1.7286  24.7070   O.2       2 RES2   0.0000
    31 C5A      7.9557   5.2079  21.4958   C.ar      2 RES2   0.0000
    32 C6A      8.1169   3.9517  22.0427   C.ar      2 RES2   0.0000
    33 C7A      7.5705   3.5995  23.2769   C.ar      2 RES2   0.0000
    34 C8A      7.7653   2.1899  23.7768   C.2       2 RES2   0.0000
    35 H3A      8.6179   3.3036  21.5619   H         2 RES2   0.0000
    36 H4A      8.7586   0.7633  23.3571   H         2 RES2   0.0000
    37 Fe1      3.8458   7.2076  17.1129   Fe        3 RES3   0.0000
    38 O5       4.4832   5.4673  17.8412   O.3       3 RES3   0.0000
    39 O6       2.0366   6.4173  16.8589   O.3       3 RES3   0.0000
    40 N1       3.2433   9.0706  17.0452   N.ar      3 RES3   0.0000
    41 N2       3.6533   7.5387  18.9461   N.2       3 RES3   0.0000
    42 N3       3.9533   6.5208  19.8404   N.2       3 RES3   0.0000
    43 N4       5.3488   1.9738  21.3477   N.ar      3 RES3   0.0000
    44 N5       5.6504   7.8305  16.7492   N.ar      3 RES3   0.0000
    45 N6       3.8994   6.8961  15.2707   N.2       3 RES3   0.0000
    46 N7       2.8185   6.2730  14.6743   N.2       3 RES3   0.0000
    47 N8      -1.7201   4.2227  14.3496   N.ar      3 RES3   0.0000
    48 C9       2.9611   9.6014  18.2726   C.ar      3 RES3   0.0000
    49 C10      2.5962  10.9289  18.4183   C.ar      3 RES3   0.0000
    50 C11      2.5789  11.7616  17.3211   C.ar      3 RES3   0.0000
    51 C12      2.9108  11.2361  16.0778   C.ar      3 RES3   0.0000
    52 C13      3.2211   9.8985  15.9826   C.ar      3 RES3   0.0000
    53 C14      3.1499   8.6643  19.3719   C.2       3 RES3   0.0000
    54 C15      2.8184   8.9578  20.7921   C.3       3 RES3   0.0000
    55 C16      4.3757   5.4999  19.1215   C.2       3 RES3   0.0000
    56 C17      4.7357   4.2736  19.8919   C.ar      3 RES3   0.0000
    57 C18      4.3298   4.1296  21.2125   C.ar      3 RES3   0.0000
    58 C19      4.6421   2.9720  21.8925   C.ar      3 RES3   0.0000
    59 C20      5.4720   3.2510  19.3276   C.ar      3 RES3   0.0000
    60 C21      5.7590   2.1301  20.0926   C.ar      3 RES3   0.0000
    61 C22      5.9204   7.9469  15.4102   C.ar      3 RES3   0.0000
    62 C23      7.0751   8.5655  14.9588   C.ar      3 RES3   0.0000
    63 C24      8.0055   8.9900  15.8869   C.ar      3 RES3   0.0000
    64 C25      7.7715   8.7908  17.2272   C.ar      3 RES3   0.0000
    65 C26      6.5811   8.2218  17.6287   C.ar      3 RES3   0.0000
    66 C27      4.9056   7.3425  14.5512   C.2       3 RES3   0.0000
    67 C28      5.0318   7.2343  13.0743   C.3       3 RES3   0.0000
    68 C29      1.9103   6.0858  15.6190   C.2       3 RES3   0.0000
    69 C30      0.6508   5.4340  15.1855   C.ar      3 RES3   0.0000
    70 C31      0.4898   4.9922  13.8682   C.ar      3 RES3   0.0000
    71 C32     -0.6979   4.4010  13.4971   C.ar      3 RES3   0.0000
    72 C33     -0.4134   5.2544  16.0605   C.ar      3 RES3   0.0000
    73 C34     -1.5684   4.6578  15.6113   C.ar      3 RES3   0.0000
    74 H5       2.3592  11.2662  19.2744   H         3 RES3   0.0000
    75 H6       2.3439  12.6771  17.4122   H         3 RES3   0.0000
    76 H7       2.9235  11.7906  15.3066   H         3 RES3   0.0000
    77 H8       3.4292   9.5419  15.1269   H         3 RES3   0.0000
    78 H9       2.9407   9.9142  20.9653   H         3 RES3   0.0000
    79 H10      3.4094   8.4410  21.3788   H         3 RES3   0.0000
    80 H11      1.8865   8.7102  20.9676   H         3 RES3   0.0000
    81 H12      3.8424   4.8226  21.6426   H         3 RES3   0.0000
    82 H13      4.3418   2.8776  22.7889   H         3 RES3   0.0000
    83 H14      5.7771   3.3144  18.4301   H         3 RES3   0.0000
    84 H15      6.2761   1.4376  19.6988   H         3 RES3   0.0000
    85 H16      7.2238   8.6956  14.0295   H         3 RES3   0.0000
    86 H17      8.8042   9.4181  15.6009   H         3 RES3   0.0000
    87 H18      8.4233   9.0433  17.8705   H         3 RES3   0.0000
    88 H19      6.4170   8.1036  18.5569   H         3 RES3   0.0000
    89 H20      5.2743   8.1074  12.7021   H         3 RES3   0.0000
    90 H21      4.1768   6.9429  12.6940   H         3 RES3   0.0000
    91 H22      5.7273   6.5800  12.8528   H         3 RES3   0.0000
    92 H23      1.1912   5.0978  13.2365   H         3 RES3   0.0000
    93 H24     -0.7978   4.1074  12.5992   H         3 RES3   0.0000
    94 H25     -0.3437   5.5421  16.9632   H         3 RES3   0.0000
    95 H26     -2.2902   4.5485  16.2196   H         3 RES3   0.0000
@<TRIPOS>BOND
     1     1     7    1
     2     2     4    1
     3     3     4    2
     4     4     5    1
     5     5     6   ar
     6     6     7   ar
     7     7    14   ar
     8     8     6    1
     9     9     2    1
    10    10    16    1
    11    11    13    1
    12    12    13    2
    13    13    14    1
    14    14    15   ar
    15    15    16   ar
    16    16     5   ar
    17    17    15    1
    18    18    11    1
    19    19    22    1
    20    20    25    1
    21    21    25    2
    22    22    23   ar
    23    23    24   ar
    24    24    25    1
    25    26    23    1
    26    27    20    1
    27    28    31    1
    28    29    34    1
    29    30    34    2
    30    31    24   ar
    31    32    31   ar
    32    33    22   ar
    33    34    33    1
    34    35    32    1
    35    36    29    1
    36    32    33   ar
    37    37    38    1
    38    38    55    1
    39    39    37    1
    40    40    37    1
    41    41    37    1
    42    42    41    1
    43    43    58   ar
    44    44    37    1
    45    45    37    1
    46    46    45    1
    47    47    71   ar
    48    48    40   ar
    49    49    48   ar
    50    50    49   ar
    51    51    50   ar
    52    52    40   ar
    53    53    41    2
    54    54    53    1
    55    55    42    2
    56    56    55    1
    57    57    56   ar
    58    58    57   ar
    59    59    56   ar
    60    60    43   ar
    61    61    44   ar
    62    62    61   ar
    63    63    62   ar
    64    64    63   ar
    65    65    44   ar
    66    66    45    2
    67    67    66    1
    68    68    39    1
    69    69    68    1
    70    70    69   ar
    71    71    70   ar
    72    72    69   ar
    73    73    47   ar
    74    74    49    1
    75    75    50    1
    76    76    51    1
    77    77    52    1
    78    78    54    1
    79    79    54    1
    80    80    54    1
    81    81    57    1
    82    82    58    1
    83    83    59    1
    84    84    60    1
    85    85    62    1
    86    86    63    1
    87    87    64    1
    88    88    65    1
    89    89    67    1
    90    90    67    1
    91    91    67    1
    92    92    70    1
    93    93    71    1
    94    94    72    1
    95    95    73    1
    96    46    68    2
    97    48    53    1
    98    51    52   ar
    99    59    60   ar
   100    61    66    1
   101    64    65   ar
   102    72    73   ar
@<TRIPOS>SUBSTRUCTURE
     1 RES1        1 GROUP             0 ****  ****    0  
     2 RES2       19 GROUP             0 ****  ****    0  
     3 RES3       37 GROUP             0 ****  ****    0  
@<TRIPOS>CRYSIN
    8.3141    8.7502   23.4650   77.5890   82.0850   87.2030     2     1
