@<TRIPOS>MOLECULE
BOJGEQ01
    91    98     3     0     0
SMALL
NO_CHARGES
****
Generated from the CSD

@<TRIPOS>ATOM
     1 Fe1      1.9297   0.6039   5.9229   Fe        1 RES1   0.0000
     2 O1       3.7814  -0.1996   5.5820   O.3       1 RES1   0.0000
     3 O2       1.1859  -1.0868   6.7957   O.3       1 RES1   0.0000
     4 N1       0.0715   1.3083   5.3185   N.ar      1 RES1   0.0000
     5 N2       1.9521   0.3394   3.9520   N.2       1 RES1   0.0000
     6 N3       3.0402  -0.2903   3.3799   N.2       1 RES1   0.0000
     7 N4       7.4998  -2.5075   3.1378   N.ar      1 RES1   0.0000
     8 N5       2.5466   2.5989   5.9952   N.ar      1 RES1   0.0000
     9 N6       2.1799   0.9483   7.8647   N.2       1 RES1   0.0000
    10 N7       1.9151  -0.0821   8.7539   N.2       1 RES1   0.0000
    11 N8       0.3926  -4.5877  10.2848   N.ar      1 RES1   0.0000
    12 C1      -0.0762   1.4011   3.9649   C.ar      1 RES1   0.0000
    13 C2      -1.1634   2.0650   3.3999   C.ar      1 RES1   0.0000
    14 C3      -2.0894   2.5800   4.2239   C.ar      1 RES1   0.0000
    15 C4      -2.0010   2.4651   5.5566   C.ar      1 RES1   0.0000
    16 C5      -0.8870   1.8160   6.1146   C.ar      1 RES1   0.0000
    17 C6       0.9691   0.7567   3.1927   C.2       1 RES1   0.0000
    18 C7       0.8985   0.5834   1.7150   C.3       1 RES1   0.0000
    19 C8       3.9238  -0.5072   4.3478   C.2       1 RES1   0.0000
    20 C9       5.1729  -1.1975   3.9150   C.ar      1 RES1   0.0000
    21 C10      5.3391  -1.6546   2.6189   C.ar      1 RES1   0.0000
    22 C11      6.5038  -2.3037   2.2681   C.ar      1 RES1   0.0000
    23 C12      6.2132  -1.4096   4.8130   C.ar      1 RES1   0.0000
    24 C13      7.3525  -2.0527   4.3895   C.ar      1 RES1   0.0000
    25 C14      2.9146   3.0272   7.2266   C.ar      1 RES1   0.0000
    26 C15      3.3434   4.3349   7.4317   C.ar      1 RES1   0.0000
    27 C16      3.3547   5.2216   6.3856   C.ar      1 RES1   0.0000
    28 C17      2.9308   4.7974   5.1438   C.ar      1 RES1   0.0000
    29 C18      2.5578   3.4870   4.9873   C.ar      1 RES1   0.0000
    30 C19      2.7457   2.0360   8.2899   C.2       1 RES1   0.0000
    31 C20      3.1735   2.2630   9.6948   C.3       1 RES1   0.0000
    32 C21      1.3839  -1.0773   8.0568   C.2       1 RES1   0.0000
    33 C22      1.0211  -2.2916   8.8399   C.ar      1 RES1   0.0000
    34 C23      1.4535  -2.4648  10.1320   C.ar      1 RES1   0.0000
    35 C24      1.1276  -3.6039  10.8070   C.ar      1 RES1   0.0000
    36 C25      0.2474  -3.2841   8.2875   C.ar      1 RES1   0.0000
    37 C26     -0.0523  -4.4041   9.0530   C.ar      1 RES1   0.0000
    38 H1      -1.2476   2.1505   2.4574   H         1 RES1   0.0000
    39 H2      -2.8314   3.0417   3.8512   H         1 RES1   0.0000
    40 H3      -2.6829   2.8174   6.1162   H         1 RES1   0.0000
    41 H4      -0.8098   1.7350   7.0585   H         1 RES1   0.0000
    42 H5       0.3062  -0.1676   1.5019   H         1 RES1   0.0000
    43 H6       1.7952   0.4024   1.3642   H         1 RES1   0.0000
    44 H7       0.5471   1.4024   1.3067   H         1 RES1   0.0000
    45 H8       4.6536  -1.5223   1.9745   H         1 RES1   0.0000
    46 H9       6.6029  -2.6172   1.3769   H         1 RES1   0.0000
    47 H10      6.1374  -1.1130   5.7122   H         1 RES1   0.0000
    48 H11      8.0625  -2.1799   5.0082   H         1 RES1   0.0000
    49 H12      3.6285   4.6127   8.2944   H         1 RES1   0.0000
    50 H13      3.6497   6.1152   6.5144   H         1 RES1   0.0000
    51 H14      2.8982   5.4007   4.4111   H         1 RES1   0.0000
    52 H15      2.2938   3.1932   4.1232   H         1 RES1   0.0000
    53 H16      4.1019   1.9686   9.8055   H         1 RES1   0.0000
    54 H17      2.5950   1.7531  10.2990   H         1 RES1   0.0000
    55 H18      3.1068   3.2177   9.9065   H         1 RES1   0.0000
    56 H19      1.9766  -1.7937  10.5542   H         1 RES1   0.0000
    57 H20      1.4418  -3.7021  11.6968   H         1 RES1   0.0000
    58 H21     -0.0768  -3.2063   7.3980   H         1 RES1   0.0000
    59 H22     -0.6066  -5.0743   8.6715   H         1 RES1   0.0000
    60 Cl1     -2.8199  -1.1689   8.9030   Cl        2 RES2   0.0000
    61 O3      -0.3348   1.6476  11.3568   O.co2     2 RES2   0.0000
    62 O4      -1.5291   1.3163   9.5427   O.co2     2 RES2   0.0000
    63 C27     -0.9664  -0.7446  12.4373   C.ar      2 RES2   0.0000
    64 C28     -2.1740  -1.4048  10.4967   C.ar      2 RES2   0.0000
    65 C29     -1.4169  -0.4323  11.1649   C.ar      2 RES2   0.0000
    66 C30     -1.1176   0.9252  10.5853   C.2       2 RES2   0.0000
    67 H23     -0.4538  -0.0996  12.9096   H         2 RES2   0.0000
    68 Cl1A    -0.5858  -2.1918  14.6418   Cl        2 RES2   0.0000
    69 O3A     -3.0708  -5.0082  12.1880   O.co2     2 RES2   0.0000
    70 O4A     -1.8766  -4.6770  14.0021   O.co2     2 RES2   0.0000
    71 C27A    -2.4392  -2.6161  11.1075   C.ar      2 RES2   0.0000
    72 C28A    -1.2317  -1.9559  13.0480   C.ar      2 RES2   0.0000
    73 C29A    -1.9887  -2.9284  12.3798   C.ar      2 RES2   0.0000
    74 C30A    -2.2880  -4.2859  12.9595   C.2       2 RES2   0.0000
    75 H23A    -2.9519  -3.2611  10.6352   H         2 RES2   0.0000
    76 Cl2      4.7697   1.4360   0.8170   Cl        3 RES3   0.0000
    77 O5       1.2411   5.0504   2.2612   O.co2     3 RES3   0.0000
    78 O6       0.6498   5.9137   0.2997   O.co2     3 RES3   0.0000
    79 C31      1.4409   5.3422   1.0117   C.2       3 RES3   0.0000
    80 C32      2.7674   4.8560   0.4951   C.ar      3 RES3   0.0000
    81 C33      3.2103   3.5941   0.8660   C.ar      3 RES3   0.0000
    82 C34      4.3894   3.0701   0.3838   C.ar      3 RES3   0.0000
    83 H24      2.6868   3.0785   1.4678   H         3 RES3   0.0000
    84 Cl2A     3.1831   7.2179  -0.8170   Cl        3 RES3   0.0000
    85 O5A      6.7117   3.6034  -2.2612   O.co2     3 RES3   0.0000
    86 O6A      7.3031   2.7402  -0.2997   O.co2     3 RES3   0.0000
    87 C31A     6.5119   3.3117  -1.0117   C.2       3 RES3   0.0000
    88 C32A     5.1855   3.7979  -0.4951   C.ar      3 RES3   0.0000
    89 C33A     4.7426   5.0598  -0.8660   C.ar      3 RES3   0.0000
    90 C34A     3.5634   5.5837  -0.3838   C.ar      3 RES3   0.0000
    91 H24A     5.2661   5.5754  -1.4678   H         3 RES3   0.0000
@<TRIPOS>BOND
     1     1     2    1
     2     2    19    1
     3     3     1    1
     4     4     1    1
     5     5     1    1
     6     6     5    1
     7     7    22   ar
     8     8     1    1
     9     9     1    1
    10    10     9    1
    11    11    35   ar
    12    12     4   ar
    13    13    12   ar
    14    14    13   ar
    15    15    14   ar
    16    16     4   ar
    17    17     5    2
    18    18    17    1
    19    19     6    2
    20    20    19    1
    21    21    20   ar
    22    22    21   ar
    23    23    20   ar
    24    24     7   ar
    25    25     8   ar
    26    26    25   ar
    27    27    26   ar
    28    28    27   ar
    29    29     8   ar
    30    30     9    2
    31    31    30    1
    32    32     3    1
    33    33    32    1
    34    34    33   ar
    35    35    34   ar
    36    36    33   ar
    37    37    11   ar
    38    38    13    1
    39    39    14    1
    40    40    15    1
    41    41    16    1
    42    42    18    1
    43    43    18    1
    44    44    18    1
    45    45    21    1
    46    46    22    1
    47    47    23    1
    48    48    24    1
    49    49    26    1
    50    50    27    1
    51    51    28    1
    52    52    29    1
    53    53    31    1
    54    54    31    1
    55    55    31    1
    56    56    34    1
    57    57    35    1
    58    58    36    1
    59    59    37    1
    60    10    32    2
    61    12    17    1
    62    15    16   ar
    63    23    24   ar
    64    25    30    1
    65    28    29   ar
    66    36    37   ar
    67    60    64    1
    68    61    66    1
    69    62    66    2
    70    63    65   ar
    71    64    65   ar
    72    65    66    1
    73    67    63    1
    74    68    72    1
    75    69    74    1
    76    70    74    2
    77    71    64   ar
    78    72    63   ar
    79    73    71   ar
    80    74    73    1
    81    75    71    1
    82    72    73   ar
    83    76    82    1
    84    77    79    1
    85    78    79    2
    86    79    80    1
    87    80    81   ar
    88    81    82   ar
    89    82    88   ar
    90    83    81    1
    91    84    90    1
    92    85    87    1
    93    86    87    2
    94    87    88    1
    95    88    89   ar
    96    89    90   ar
    97    90    80   ar
    98    91    89    1
@<TRIPOS>SUBSTRUCTURE
     1 RES1        1 GROUP             0 ****  ****    0  
     2 RES2       60 GROUP             0 ****  ****    0  
     3 RES3       76 GROUP             0 ****  ****    0  
@<TRIPOS>CRYSIN
    8.1849    8.6570   24.0260   97.8180   98.1490   91.5360     2     1
