@<TRIPOS>MOLECULE
BOJGEQ
    95   102     3     0     0
SMALL
NO_CHARGES
****
Generated from the CSD

@<TRIPOS>ATOM
     1 Fe1      1.9549   4.7784   5.7232   Fe        1 RES1   0.0000
     2 O1       1.2911   3.0322   6.4358   O.3       1 RES1   0.0000
     3 O2       3.7689   3.9971   5.4854   O.3       1 RES1   0.0000
     4 N1       2.5763   6.6429   5.6923   N.ar      1 RES1   0.0000
     5 N2       2.1496   5.0786   7.5679   N.2       1 RES1   0.0000
     6 N3       1.8424   4.0554   8.4508   N.2       1 RES1   0.0000
     7 N4       0.2906  -0.4434   9.9442   N.ar      1 RES1   0.0000
     8 N5       0.1476   5.3872   5.3324   N.ar      1 RES1   0.0000
     9 N6       1.9255   4.4874   3.8683   N.2       1 RES1   0.0000
    10 N7       3.0291   3.8851   3.2801   N.2       1 RES1   0.0000
    11 N8       7.5386   1.7834   2.9995   N.ar      1 RES1   0.0000
    12 C1       2.9001   7.1337   6.9333   C.ar      1 RES1   0.0000
    13 C2       3.3258   8.4497   7.0981   C.ar      1 RES1   0.0000
    14 C3       3.3620   9.3036   6.0152   C.ar      1 RES1   0.0000
    15 C4       2.9786   8.8168   4.7703   C.ar      1 RES1   0.0000
    16 C5       2.6086   7.4918   4.6486   C.ar      1 RES1   0.0000
    17 C6       2.6866   6.1862   8.0160   C.2       1 RES1   0.0000
    18 C7       3.0460   6.4413   9.4365   C.3       1 RES1   0.0000
    19 C8       1.3893   3.0466   7.7173   C.2       1 RES1   0.0000
    20 C9       0.9856   1.8314   8.4881   C.ar      1 RES1   0.0000
    21 C10      1.3911   1.6736   9.8112   C.ar      1 RES1   0.0000
    22 C11      1.0326   0.5328  10.4983   C.ar      1 RES1   0.0000
    23 C12      0.2266   0.8303   7.9187   C.ar      1 RES1   0.0000
    24 C13     -0.1140  -0.2734   8.6868   C.ar      1 RES1   0.0000
    25 C14     -0.1076   5.4979   3.9827   C.ar      1 RES1   0.0000
    26 C15     -1.2666   6.0867   3.5093   C.ar      1 RES1   0.0000
    27 C16     -2.2175   6.5024   4.4240   C.ar      1 RES1   0.0000
    28 C17     -2.0044   6.3080   5.7755   C.ar      1 RES1   0.0000
    29 C18     -0.8008   5.7676   6.1964   C.ar      1 RES1   0.0000
    30 C19      0.9343   4.9232   3.1380   C.2       1 RES1   0.0000
    31 C20      0.8494   4.8051   1.6496   C.3       1 RES1   0.0000
    32 C21      3.9201   3.6845   4.2385   C.2       1 RES1   0.0000
    33 C22      5.1855   3.0281   3.8085   C.ar      1 RES1   0.0000
    34 C23      5.3618   2.6077   2.4861   C.ar      1 RES1   0.0000
    35 C24      6.5406   1.9927   2.1275   C.ar      1 RES1   0.0000
    36 C25      6.2213   2.8131   4.7091   C.ar      1 RES1   0.0000
    37 C26      7.3835   2.1942   4.2712   C.ar      1 RES1   0.0000
    38 H1       3.5918   8.7597   7.9560   H         1 RES1   0.0000
    39 H2       3.6420  10.2050   6.1175   H         1 RES1   0.0000
    40 H3       2.9716   9.3888   4.0122   H         1 RES1   0.0000
    41 H4       2.3658   7.1653   3.7901   H         1 RES1   0.0000
    42 H5       3.9564   6.1211   9.6054   H         1 RES1   0.0000
    43 H6       2.4191   5.9673  10.0222   H         1 RES1   0.0000
    44 H7       2.9987   7.4030   9.6177   H         1 RES1   0.0000
    45 H8       1.9095   2.3467  10.2368   H         1 RES1   0.0000
    46 H9       1.3202   0.4326  11.3980   H         1 RES1   0.0000
    47 H10     -0.0578   0.8963   7.0147   H         1 RES1   0.0000
    48 H11     -0.6648  -0.9415   8.2962   H         1 RES1   0.0000
    49 H12     -1.4065   6.2031   2.5768   H         1 RES1   0.0000
    50 H13     -3.0162   6.9200   4.1236   H         1 RES1   0.0000
    51 H14     -2.6739   6.5417   6.4074   H         1 RES1   0.0000
    52 H15     -0.6430   5.6643   7.1275   H         1 RES1   0.0000
    53 H16      0.2539   4.0629   1.4145   H         1 RES1   0.0000
    54 H17      1.7422   4.6361   1.2838   H         1 RES1   0.0000
    55 H18      0.4951   5.6388   1.2753   H         1 RES1   0.0000
    56 H19      4.6765   2.7458   1.8429   H         1 RES1   0.0000
    57 H20      6.6510   1.7061   1.2285   H         1 RES1   0.0000
    58 H21      6.1354   3.0879   5.6145   H         1 RES1   0.0000
    59 H22      8.0922   2.0555   4.8888   H         1 RES1   0.0000
    60 Cl1      4.7059   5.7299   0.9145   Cl        2 RES2   0.0000
    61 O3       6.7404   7.9112  -2.1323   O.3       2 RES2   0.0000
    62 O4       7.2796   7.0115  -0.1464   O.2       2 RES2   0.0000
    63 C27      6.5101   7.5946  -0.8879   C.2       2 RES2   0.0000
    64 C28      5.1615   8.0786  -0.4254   C.ar      2 RES2   0.0000
    65 C29      4.3271   7.3509   0.4190   C.ar      2 RES2   0.0000
    66 C30      3.1103   7.8713   0.8390   C.ar      2 RES2   0.0000
    67 H23      2.5616   7.3593   1.4211   H         2 RES2   0.0000
    68 H24      7.6931   7.5259  -2.5011   H         2 RES2   0.0000
    69 Cl1A     3.1351  11.4750  -0.9145   Cl        2 RES2   0.0000
    70 O3A      1.1006   9.2936   2.1323   O.3       2 RES2   0.0000
    71 O4A      0.5614  10.1934   0.1464   O.2       2 RES2   0.0000
    72 C27A     1.3309   9.6103   0.8879   C.2       2 RES2   0.0000
    73 C28A     2.6795   9.1262   0.4254   C.ar      2 RES2   0.0000
    74 C29A     3.5139   9.8540  -0.4190   C.ar      2 RES2   0.0000
    75 C30A     4.7307   9.3336  -0.8390   C.ar      2 RES2   0.0000
    76 H23A     5.2794   9.8456  -1.4211   H         2 RES2   0.0000
    77 H24A     0.1479   9.6790   2.5011   H         2 RES2   0.0000
    78 Cl2     -2.9821   2.9646   8.5572   Cl        3 RES3   0.0000
    79 O5      -0.3908   5.7351  10.9769   O.3       3 RES3   0.0000
    80 O6      -1.8335   5.5108   9.2914   O.2       3 RES3   0.0000
    81 C31     -2.4739   1.4519  10.6904   C.ar      3 RES3   0.0000
    82 C32     -2.2630   2.6961  10.1206   C.ar      3 RES3   0.0000
    83 C33     -1.5118   3.6701  10.7950   C.ar      3 RES3   0.0000
    84 C34     -1.2670   5.0597  10.2609   C.2       3 RES3   0.0000
    85 H25     -2.9902   0.8105  10.2170   H         3 RES3   0.0000
    86 H26     -0.2835   6.6662  10.5501   H         3 RES3   0.0000
    87 Cl2A    -0.4791   1.8172  14.1801   Cl        3 RES3   0.0000
    88 O5A     -3.0704  -0.9533  11.7604   O.3       3 RES3   0.0000
    89 O6A     -1.6277  -0.7290  13.4460   O.2       3 RES3   0.0000
    90 C31A    -0.9873   3.3298  12.0469   C.ar      3 RES3   0.0000
    91 C32A    -1.1982   2.0857  12.6167   C.ar      3 RES3   0.0000
    92 C33A    -1.9493   1.1116  11.9423   C.ar      3 RES3   0.0000
    93 C34A    -2.1942  -0.2779  12.4764   C.2       3 RES3   0.0000
    94 H25A    -0.4709   3.9713  12.5203   H         3 RES3   0.0000
    95 H26A    -3.1777  -1.8844  12.1872   H         3 RES3   0.0000
@<TRIPOS>BOND
     1     1     2    1
     2     2    19    1
     3     3     1    1
     4     4     1    1
     5     5     1    1
     6     6     5    1
     7     7    22   ar
     8     8     1    1
     9     9     1    1
    10    10     9    1
    11    11    35   ar
    12    12     4   ar
    13    13    12   ar
    14    14    13   ar
    15    15    14   ar
    16    16     4   ar
    17    17     5    2
    18    18    17    1
    19    19     6    2
    20    20    19    1
    21    21    20   ar
    22    22    21   ar
    23    23    20   ar
    24    24     7   ar
    25    25     8   ar
    26    26    25   ar
    27    27    26   ar
    28    28    27   ar
    29    29     8   ar
    30    30     9    2
    31    31    30    1
    32    32     3    1
    33    33    32    1
    34    34    33   ar
    35    35    34   ar
    36    36    33   ar
    37    37    11   ar
    38    38    13    1
    39    39    14    1
    40    40    15    1
    41    41    16    1
    42    42    18    1
    43    43    18    1
    44    44    18    1
    45    45    21    1
    46    46    22    1
    47    47    23    1
    48    48    24    1
    49    49    26    1
    50    50    27    1
    51    51    28    1
    52    52    29    1
    53    53    31    1
    54    54    31    1
    55    55    31    1
    56    56    34    1
    57    57    35    1
    58    58    36    1
    59    59    37    1
    60    10    32    2
    61    12    17    1
    62    15    16   ar
    63    23    24   ar
    64    25    30    1
    65    28    29   ar
    66    36    37   ar
    67    60    65    1
    68    61    63    1
    69    62    63    2
    70    63    64    1
    71    64    65   ar
    72    65    66   ar
    73    66    67    1
    74    68    61    1
    75    69    74    1
    76    70    72    1
    77    71    72    2
    78    72    73    1
    79    73    66   ar
    80    74    73   ar
    81    75    64   ar
    82    76    75    1
    83    77    70    1
    84    74    75   ar
    85    78    82    1
    86    79    84    1
    87    80    84    2
    88    81    82   ar
    89    82    83   ar
    90    83    84    1
    91    85    81    1
    92    86    79    1
    93    87    91    1
    94    88    93    1
    95    89    93    2
    96    90    83   ar
    97    91    90   ar
    98    92    81   ar
    99    93    92    1
   100    94    90    1
   101    95    88    1
   102    91    92   ar
@<TRIPOS>SUBSTRUCTURE
     1 RES1        1 GROUP             0 ****  ****    0  
     2 RES2       60 GROUP             0 ****  ****    0  
     3 RES3       78 GROUP             0 ****  ****    0  
@<TRIPOS>CRYSIN
    8.3360    8.6060   23.2790   99.2120   97.9350   91.6480     2     1
