@<TRIPOS>MOLECULE
BOJMET
    95   102     1     0     0
SMALL
USER_CHARGES
****
Generated from the CSD

@<TRIPOS>ATOM
     1 Fe1      0.0000   0.0000   0.0000   Fe        1 RES1   2.0000
     2 N1      -0.6046  -1.2048  -1.3896   N.1       1 RES1   0.0000
     3 N2      -1.0375  -0.9918   1.4120   N.ar      1 RES1   0.0000
     4 O1      -1.6243  -0.7961  -4.6062   O.3       1 RES1   0.0000
     5 C1      -4.3093   3.3891  -0.6848   C.ar      1 RES1   0.0000
     6 N3      -2.2347   2.0475  -0.7839   N.2       1 RES1   0.0000
     7 N4      -3.6556   1.4416   0.7804   N.pl3     1 RES1   0.0000
     8 C2      -2.5745   0.6285   0.8374   C.2       1 RES1   0.0000
     9 N5      -1.7142   0.9922  -0.0848   N.2       1 RES1   0.0000
    10 N6      -5.5178   3.4324  -0.1028   N.ar      1 RES1   0.0000
    11 C3      -3.4100   2.3171  -0.2409   C.2       1 RES1   0.0000
    12 C4      -2.2685  -0.4979   1.7011   C.ar      1 RES1   0.0000
    13 C5      -1.4702  -2.6689  -3.3066   C.2       1 RES1   0.0000
    14 N7      -4.7345   1.3846   1.6879   N.3       1 RES1   0.0000
    15 C6      -2.7967  -2.7344  -5.3894   C.2       1 RES1  -1.0000
    16 C7      -3.0799  -1.0325   2.6707   C.ar      1 RES1   0.0000
    17 C8      -2.6225  -2.1181   3.3960   C.ar      1 RES1   0.0000
    18 C9      -3.8979   4.2833  -1.6474   C.ar      1 RES1   0.0000
    19 C10     -0.9634  -1.8468  -2.2681   C.1       1 RES1   0.0000
    20 C11     -2.0036  -2.0823  -4.4605   C.2       1 RES1   0.0000
    21 C12     -0.6193  -2.0447   2.1242   C.ar      1 RES1   0.0000
    22 C13     -1.3882  -2.6196   3.1182   C.ar      1 RES1   0.0000
    23 C14     -1.3643  -4.0633  -3.1081   C.1       1 RES1   0.0000
    24 C15     -6.3289   4.4220  -0.4880   C.ar      1 RES1   0.0000
    25 C16     -5.9954   5.3575  -1.4214   C.ar      1 RES1   0.0000
    26 C17     -4.7703   5.2883  -2.0173   C.ar      1 RES1   0.0000
    27 N8      -3.3284  -1.8958  -7.7556   N.1       1 RES1   0.0000
    28 C18     -3.0684  -2.2349  -6.6952   C.1       1 RES1   0.0000
    29 C19     -3.4080  -3.9753  -5.1085   C.1       1 RES1   0.0000
    30 C20     -2.4830   0.1986  -5.2232   C.3       1 RES1   0.0000
    31 N9      -3.9618  -4.9671  -4.9253   N.1       1 RES1   0.0000
    32 N10     -1.2594  -5.1904  -2.9046   N.1       1 RES1   0.0000
    33 C21     -2.1213   1.5196  -4.6621   C.3       1 RES1   0.0000
    34 H1      -1.0208  -3.3436   3.5298   H         1 RES1   0.0000
    35 H2      -3.0150   4.2160  -2.0218   H         1 RES1   0.0000
    36 H3       0.2572  -2.3762   1.9251   H         1 RES1   0.0000
    37 H4      -6.5910   6.0464  -1.6597   H         1 RES1   0.0000
    38 H5      -7.1683   4.4172  -0.0337   H         1 RES1   0.0000
    39 H6      -3.2321  -2.4771   4.0515   H         1 RES1   0.0000
    40 H7      -3.9057  -0.6639   2.7752   H         1 RES1   0.0000
    41 H8      -5.3272   1.8913   1.3269   H         1 RES1   0.0000
    42 H9      -4.4420   1.9057   2.4064   H         1 RES1   0.0000
    43 H10     -4.5022   5.8770  -2.7325   H         1 RES1   0.0000
    44 H11     -3.3896  -0.1437  -4.9140   H         1 RES1   0.0000
    45 H12     -1.0838   1.6576  -4.8128   H         1 RES1   0.0000
    46 H13     -2.6943   2.1909  -5.0152   H         1 RES1   0.0000
    47 H14     -2.0235   0.3521  -6.2297   H         1 RES1   0.0000
    48 H15     -2.0866   1.3298  -3.6658   H         1 RES1   0.0000
    49 N1A      0.6046   1.2048   1.3896   N.1       1 RES1   0.0000
    50 N2A      1.0375   0.9918  -1.4120   N.ar      1 RES1   0.0000
    51 O1A      1.6243   0.7961   4.6062   O.3       1 RES1   0.0000
    52 C1A      4.3093  -3.3891   0.6848   C.ar      1 RES1   0.0000
    53 N3A      2.2347  -2.0475   0.7839   N.2       1 RES1   0.0000
    54 N4A      3.6556  -1.4416  -0.7804   N.pl3     1 RES1   0.0000
    55 C2A      2.5745  -0.6285  -0.8374   C.2       1 RES1   0.0000
    56 N5A      1.7142  -0.9922   0.0848   N.2       1 RES1   0.0000
    57 N6A      5.5178  -3.4324   0.1028   N.ar      1 RES1   0.0000
    58 C3A      3.4100  -2.3171   0.2409   C.2       1 RES1   0.0000
    59 C4A      2.2685   0.4979  -1.7011   C.ar      1 RES1   0.0000
    60 C5A      1.4702   2.6689   3.3066   C.2       1 RES1   0.0000
    61 N7A      4.7345  -1.3846  -1.6879   N.3       1 RES1   0.0000
    62 C6A      2.7967   2.7344   5.3894   C.2       1 RES1  -1.0000
    63 C7A      3.0799   1.0325  -2.6707   C.ar      1 RES1   0.0000
    64 C8A      2.6225   2.1181  -3.3960   C.ar      1 RES1   0.0000
    65 C9A      3.8979  -4.2833   1.6474   C.ar      1 RES1   0.0000
    66 C10A     0.9634   1.8468   2.2681   C.1       1 RES1   0.0000
    67 C11A     2.0036   2.0823   4.4605   C.2       1 RES1   0.0000
    68 C12A     0.6193   2.0447  -2.1242   C.ar      1 RES1   0.0000
    69 C13A     1.3882   2.6196  -3.1182   C.ar      1 RES1   0.0000
    70 C14A     1.3643   4.0633   3.1081   C.1       1 RES1   0.0000
    71 C15A     6.3289  -4.4220   0.4880   C.ar      1 RES1   0.0000
    72 C16A     5.9954  -5.3575   1.4214   C.ar      1 RES1   0.0000
    73 C17A     4.7703  -5.2883   2.0173   C.ar      1 RES1   0.0000
    74 N8A      3.3284   1.8958   7.7556   N.1       1 RES1   0.0000
    75 C18A     3.0684   2.2349   6.6952   C.1       1 RES1   0.0000
    76 C19A     3.4080   3.9753   5.1085   C.1       1 RES1   0.0000
    77 C20A     2.4830  -0.1986   5.2232   C.3       1 RES1   0.0000
    78 N9A      3.9618   4.9671   4.9253   N.1       1 RES1   0.0000
    79 N10A     1.2594   5.1904   2.9046   N.1       1 RES1   0.0000
    80 C21A     2.1213  -1.5196   4.6621   C.3       1 RES1   0.0000
    81 H1A      1.0208   3.3436  -3.5298   H         1 RES1   0.0000
    82 H2A      3.0150  -4.2160   2.0218   H         1 RES1   0.0000
    83 H3A     -0.2572   2.3762  -1.9251   H         1 RES1   0.0000
    84 H4A      6.5910  -6.0464   1.6597   H         1 RES1   0.0000
    85 H5A      7.1683  -4.4172   0.0337   H         1 RES1   0.0000
    86 H6A      3.2321   2.4771  -4.0515   H         1 RES1   0.0000
    87 H7A      3.9057   0.6639  -2.7752   H         1 RES1   0.0000
    88 H8A      5.3272  -1.8913  -1.3269   H         1 RES1   0.0000
    89 H9A      4.4420  -1.9057  -2.4064   H         1 RES1   0.0000
    90 H10A     4.5022  -5.8770   2.7325   H         1 RES1   0.0000
    91 H11A     3.3896   0.1437   4.9140   H         1 RES1   0.0000
    92 H12A     1.0838  -1.6576   4.8128   H         1 RES1   0.0000
    93 H13A     2.6943  -2.1909   5.0152   H         1 RES1   0.0000
    94 H14A     2.0235  -0.3521   6.2297   H         1 RES1   0.0000
    95 H15A     2.0866  -1.3298   3.6658   H         1 RES1   0.0000
@<TRIPOS>BOND
     1     1     2    1
     2     2    19    3
     3     3     1    1
     4     4    20    1
     5     5    10   ar
     6     6     9    1
     7     7     8    1
     8     8     9    2
     9     9     1    1
    10    10    24   ar
    11    11     5    1
    12    12     3   ar
    13    13    19    1
    14    14     7    1
    15    15    20    1
    16    16    12   ar
    17    17    16   ar
    18    18     5   ar
    19    20    13    2
    20    21     3   ar
    21    22    17   ar
    22    23    13    1
    23    24    25   ar
    24    25    26   ar
    25    26    18   ar
    26    27    28    3
    27    28    15    1
    28    29    15    1
    29    30     4    1
    30    31    29    3
    31    32    23    3
    32    33    30    1
    33    34    22    1
    34    35    18    1
    35    36    21    1
    36    37    25    1
    37    38    24    1
    38    39    17    1
    39    40    16    1
    40    41    14    1
    41    42    14    1
    42    43    26    1
    43    44    30    1
    44    45    33    1
    45    46    33    1
    46    47    30    1
    47    48    33    1
    48    49     1    1
    49    50     1    1
    50    51    67    1
    51    52    57   ar
    52    53    56    1
    53    54    55    1
    54    55    56    2
    55    56     1    1
    56    57    71   ar
    57    58    52    1
    58    59    50   ar
    59    60    66    1
    60    61    54    1
    61    62    67    1
    62    63    59   ar
    63    64    63   ar
    64    65    52   ar
    65    66    49    3
    66    67    60    2
    67    68    50   ar
    68    69    64   ar
    69    70    60    1
    70    71    72   ar
    71    72    73   ar
    72    73    65   ar
    73    74    75    3
    74    75    62    1
    75    76    62    1
    76    77    51    1
    77    78    76    3
    78    79    70    3
    79    80    77    1
    80    81    69    1
    81    82    65    1
    82    83    68    1
    83    84    72    1
    84    85    71    1
    85    86    64    1
    86    87    63    1
    87    88    61    1
    88    89    61    1
    89    90    73    1
    90    91    77    1
    91    92    80    1
    92    93    80    1
    93    94    77    1
    94    95    80    1
    95     6    11    2
    96     7    11    1
    97     8    12    1
    98    21    22   ar
    99    53    58    2
   100    54    58    1
   101    55    59    1
   102    68    69   ar
@<TRIPOS>SUBSTRUCTURE
     1 RES1        1 GROUP             0 ****  ****    0  
@<TRIPOS>CRYSIN
    8.8057   10.5260   12.0431   69.2950   85.2820   85.7610     2     1
