@<TRIPOS>MOLECULE
BOJMAP
    89    96     1     0     0
SMALL
USER_CHARGES
****
Generated from the CSD

@<TRIPOS>ATOM
     1 Fe1      0.0000   0.0000   0.0000   Fe        1 RES1   2.0000
     2 O1       6.3155   1.7809   1.3521   O.3       1 RES1   0.0000
     3 N1       0.0171   2.1854   0.0169   N.ar      1 RES1   0.0000
     4 N2      -0.3540   0.5055  -2.0330   N.2       1 RES1   0.0000
     5 N3       2.1643   0.0298  -0.1085   N.1       1 RES1   0.0000
     6 N4      -0.7264  -0.1760  -3.1646   N.2       1 RES1   0.0000
     7 N5      -1.0015   1.9997  -3.4731   N.pl3     1 RES1   0.0000
     8 N6      -1.3596   3.2538  -4.0154   N.3       1 RES1   0.0000
     9 N7      -1.5548   1.5404  -6.2184   N.ar      1 RES1   0.0000
    10 N8       4.5183  -0.0164   3.4960   N.1       1 RES1   0.0000
    11 N9       2.9848   2.6827  -1.9776   N.1       1 RES1   0.0000
    12 N10      7.2118   3.2851  -1.9246   N.1       1 RES1   0.0000
    13 C1       0.3136   2.9690   1.0569   C.ar      1 RES1   0.0000
    14 C2       0.3752   4.3439   0.9701   C.ar      1 RES1   0.0000
    15 C3       0.1077   4.9418  -0.2422   C.ar      1 RES1   0.0000
    16 C4      -0.1894   4.1590  -1.3244   C.ar      1 RES1   0.0000
    17 C5      -0.2301   2.7811  -1.1714   C.ar      1 RES1   0.0000
    18 C6      -0.5069   1.8088  -2.2222   C.2       1 RES1   0.0000
    19 C7      -1.1267   0.7411  -4.0190   C.2       1 RES1   0.0000
    20 C8      -1.6016   0.4861  -5.3844   C.ar      1 RES1   0.0000
    21 C9      -2.0222  -0.7695  -5.7592   C.ar      1 RES1   0.0000
    22 C10     -2.4415  -0.9365  -7.0595   C.ar      1 RES1   0.0000
    23 C11     -2.4148   0.1118  -7.9344   C.ar      1 RES1   0.0000
    24 C12     -1.9735   1.3108  -7.4669   C.ar      1 RES1   0.0000
    25 C13      3.1098   0.4354   0.4061   C.1       1 RES1   0.0000
    26 C14      4.3974   0.3952   2.4512   C.1       1 RES1   0.0000
    27 C15      3.9553   2.5306  -1.3762   C.1       1 RES1   0.0000
    28 C16      6.3368   2.8780  -1.3365   C.1       1 RES1   0.0000
    29 C17      4.2470   0.8977   1.1171   C.2       1 RES1   0.0000
    30 C18      5.1826   2.3770  -0.6688   C.2       1 RES1  -1.0000
    31 C19      5.2333   1.7238   0.5556   C.2       1 RES1   0.0000
    32 C20      7.1686   2.9451   1.3919   C.3       1 RES1   0.0000
    33 H1       0.4997   2.5440   1.8800   H         1 RES1   0.0000
    34 H2       0.5556   4.9210   1.7233   H         1 RES1   0.0000
    35 H3       0.0578   5.9052  -0.3374   H         1 RES1   0.0000
    36 H4      -0.3446   4.5049  -2.2054   H         1 RES1   0.0000
    37 H5      -1.3659   3.1166  -4.9410   H         1 RES1   0.0000
    38 H6      -2.1593   3.5491  -3.6876   H         1 RES1   0.0000
    39 H7      -1.9604  -1.5255  -5.0615   H         1 RES1   0.0000
    40 H8      -2.7701  -1.7894  -7.3271   H         1 RES1   0.0000
    41 H9      -2.6448   0.0447  -8.9058   H         1 RES1   0.0000
    42 H10     -1.8522   2.1324  -8.0742   H         1 RES1   0.0000
    43 H11      7.9751   2.8333   0.7351   H         1 RES1   0.0000
    44 H12      6.8020   3.7280   1.0364   H         1 RES1   0.0000
    45 H13      7.3624   3.0420   2.3138   H         1 RES1   0.0000
    46 O1B     -6.3155  -1.7809  -1.3521   O.3       1 RES1   0.0000
    47 N1B     -0.0171  -2.1854  -0.0169   N.ar      1 RES1   0.0000
    48 N2B      0.3540  -0.5055   2.0330   N.2       1 RES1   0.0000
    49 N3B     -2.1643  -0.0298   0.1085   N.1       1 RES1   0.0000
    50 N4B      0.7264   0.1760   3.1646   N.2       1 RES1   0.0000
    51 N5B      1.0015  -1.9997   3.4731   N.pl3     1 RES1   0.0000
    52 N6B      1.3596  -3.2538   4.0154   N.3       1 RES1   0.0000
    53 N7B      1.5548  -1.5404   6.2184   N.ar      1 RES1   0.0000
    54 N8B     -4.5183   0.0164  -3.4960   N.1       1 RES1   0.0000
    55 N9B     -2.9848  -2.6827   1.9776   N.1       1 RES1   0.0000
    56 N10B    -7.2118  -3.2851   1.9246   N.1       1 RES1   0.0000
    57 C1B     -0.3136  -2.9690  -1.0569   C.ar      1 RES1   0.0000
    58 C2B     -0.3752  -4.3439  -0.9701   C.ar      1 RES1   0.0000
    59 C3B     -0.1077  -4.9418   0.2422   C.ar      1 RES1   0.0000
    60 C4B      0.1894  -4.1590   1.3244   C.ar      1 RES1   0.0000
    61 C5B      0.2301  -2.7811   1.1714   C.ar      1 RES1   0.0000
    62 C6B      0.5069  -1.8088   2.2222   C.2       1 RES1   0.0000
    63 C7B      1.1267  -0.7411   4.0190   C.2       1 RES1   0.0000
    64 C8B      1.6016  -0.4861   5.3844   C.ar      1 RES1   0.0000
    65 C9B      2.0222   0.7695   5.7592   C.ar      1 RES1   0.0000
    66 C10B     2.4415   0.9365   7.0595   C.ar      1 RES1   0.0000
    67 C11B     2.4148  -0.1118   7.9344   C.ar      1 RES1   0.0000
    68 C12B     1.9735  -1.3108   7.4669   C.ar      1 RES1   0.0000
    69 C13B    -3.1098  -0.4354  -0.4061   C.1       1 RES1   0.0000
    70 C14B    -4.3974  -0.3952  -2.4512   C.1       1 RES1   0.0000
    71 C15B    -3.9553  -2.5306   1.3762   C.1       1 RES1   0.0000
    72 C16B    -6.3368  -2.8780   1.3365   C.1       1 RES1   0.0000
    73 C17B    -4.2470  -0.8977  -1.1171   C.2       1 RES1   0.0000
    74 C18B    -5.1826  -2.3770   0.6688   C.2       1 RES1  -1.0000
    75 C19B    -5.2333  -1.7238  -0.5556   C.2       1 RES1   0.0000
    76 C20B    -7.1686  -2.9451  -1.3919   C.3       1 RES1   0.0000
    77 H1B     -0.4997  -2.5440  -1.8800   H         1 RES1   0.0000
    78 H2B     -0.5556  -4.9210  -1.7233   H         1 RES1   0.0000
    79 H3B     -0.0578  -5.9052   0.3374   H         1 RES1   0.0000
    80 H4B      0.3446  -4.5049   2.2054   H         1 RES1   0.0000
    81 H5B      1.3659  -3.1166   4.9410   H         1 RES1   0.0000
    82 H6B      2.1593  -3.5491   3.6876   H         1 RES1   0.0000
    83 H7B      1.9604   1.5255   5.0615   H         1 RES1   0.0000
    84 H8B      2.7701   1.7894   7.3271   H         1 RES1   0.0000
    85 H9B      2.6448  -0.0447   8.9058   H         1 RES1   0.0000
    86 H10B     1.8522  -2.1324   8.0742   H         1 RES1   0.0000
    87 H11B    -7.9751  -2.8333  -0.7351   H         1 RES1   0.0000
    88 H12B    -6.8020  -3.7280  -1.0364   H         1 RES1   0.0000
    89 H13B    -7.3624  -3.0420  -2.3138   H         1 RES1   0.0000
@<TRIPOS>BOND
     1     1     3    1
     2     2    31    1
     3     3    13   ar
     4     4     1    1
     5     5     1    1
     6     6     4    1
     7     7     8    1
     8     8    37    1
     9     9    20   ar
    10    10    26    3
    11    11    27    3
    12    12    28    3
    13    13    14   ar
    14    14    15   ar
    15    15    16   ar
    16    16    17   ar
    17    17     3   ar
    18    18     4    2
    19    19     6    2
    20    20    19    1
    21    21    20   ar
    22    22    21   ar
    23    23    22   ar
    24    24     9   ar
    25    25     5    3
    26    26    29    1
    27    27    30    1
    28    28    30    1
    29    29    25    1
    30    30    31    1
    31    31    29    2
    32    32     2    1
    33    33    13    1
    34    34    14    1
    35    35    15    1
    36    36    16    1
    37    38     8    1
    38    39    21    1
    39    40    22    1
    40    41    23    1
    41    42    24    1
    42    43    32    1
    43    44    32    1
    44    45    32    1
    45    46    75    1
    46    47     1    1
    47    48     1    1
    48    49     1    1
    49    50    48    1
    50    51    52    1
    51    52    81    1
    52    53    64   ar
    53    54    70    3
    54    55    71    3
    55    56    72    3
    56    57    47   ar
    57    58    57   ar
    58    59    58   ar
    59    60    59   ar
    60    61    47   ar
    61    62    48    2
    62    63    50    2
    63    64    63    1
    64    65    64   ar
    65    66    65   ar
    66    67    66   ar
    67    68    53   ar
    68    69    49    3
    69    70    73    1
    70    71    74    1
    71    72    74    1
    72    73    69    1
    73    74    75    1
    74    75    73    2
    75    76    46    1
    76    77    57    1
    77    78    58    1
    78    79    59    1
    79    80    60    1
    80    82    52    1
    81    83    65    1
    82    84    66    1
    83    85    67    1
    84    86    68    1
    85    87    76    1
    86    88    76    1
    87    89    76    1
    88     7    18    1
    89     7    19    1
    90    17    18    1
    91    23    24   ar
    92    51    62    1
    93    51    63    1
    94    60    61   ar
    95    61    62    1
    96    67    68   ar
@<TRIPOS>SUBSTRUCTURE
     1 RES1        1 GROUP             0 ****  ****    0  
@<TRIPOS>CRYSIN
   10.8317   14.9120   12.0518   90.0000   90.6150   90.0000   231     1
