@<TRIPOS>MOLECULE
BOJMAP01
    89    96     1     0     0
SMALL
USER_CHARGES
****
Generated from the CSD

@<TRIPOS>ATOM
     1 Fe1      0.0000   0.0000   0.0000   Fe        1 RES1   2.0000
     2 O1      -6.2777  -1.8131   1.3780   O.3       1 RES1   0.0000
     3 N1       0.0611   2.1740  -0.0072   N.ar      1 RES1   0.0000
     4 N2      -0.3585   0.4877   2.0419   N.2       1 RES1   0.0000
     5 N3      -2.1655   0.0208  -0.1244   N.1       1 RES1   0.0000
     6 N4      -0.7733  -0.1942   3.1603   N.2       1 RES1   0.0000
     7 N5      -1.0011   1.9804   3.4833   N.pl3     1 RES1   0.0000
     8 N6      -1.3388   3.2478   4.0287   N.3       1 RES1   0.0000
     9 N7      -1.5743   1.5224   6.2333   N.ar      1 RES1   0.0000
    10 N8      -4.5178   0.0356   3.5144   N.1       1 RES1   0.0000
    11 N9      -2.9449  -2.6504  -1.9797   N.1       1 RES1   0.0000
    12 N10     -7.1874  -3.2938  -1.9438   N.1       1 RES1   0.0000
    13 C1       0.3868   2.9543  -1.0443   C.ar      1 RES1   0.0000
    14 C2       0.4649   4.3344  -0.9510   C.ar      1 RES1   0.0000
    15 C3       0.1914   4.9392   0.2703   C.ar      1 RES1   0.0000
    16 C4      -0.1439   4.1506   1.3601   C.ar      1 RES1   0.0000
    17 C5      -0.1930   2.7764   1.1938   C.ar      1 RES1   0.0000
    18 C6      -0.4982   1.7907   2.2357   C.2       1 RES1   0.0000
    19 C7      -1.1608   0.7308   4.0299   C.2       1 RES1   0.0000
    20 C8      -1.6521   0.4729   5.3828   C.ar      1 RES1   0.0000
    21 C9      -2.1309  -0.7797   5.7405   C.ar      1 RES1   0.0000
    22 C10     -2.5803  -0.9531   7.0371   C.ar      1 RES1   0.0000
    23 C11     -2.5133   0.1008   7.9342   C.ar      1 RES1   0.0000
    24 C12     -2.0075   1.2926   7.4988   C.ar      1 RES1   0.0000
    25 C13     -3.1110  -0.3973   0.4019   C.1       1 RES1   0.0000
    26 C14     -4.3841  -0.3810   2.4534   C.1       1 RES1   0.0000
    27 C15     -3.9226  -2.5037  -1.3864   C.1       1 RES1   0.0000
    28 C16     -6.2932  -2.8802  -1.3481   C.1       1 RES1   0.0000
    29 C17     -4.2327  -0.8716   1.1196   C.2       1 RES1   0.0000
    30 C18     -5.1462  -2.3732  -0.6627   C.2       1 RES1  -1.0000
    31 C19     -5.2105  -1.7284   0.5670   C.2       1 RES1   0.0000
    32 C20     -7.1268  -2.9899   1.3541   C.3       1 RES1   0.0000
    33 H1       0.6467   2.4755  -1.9378   H         1 RES1   0.0000
    34 H2       0.6141   4.9065  -1.6866   H         1 RES1   0.0000
    35 H3       0.2245   5.8997   0.3469   H         1 RES1   0.0000
    36 H4      -0.2827   4.5360   2.2369   H         1 RES1   0.0000
    37 H5      -1.3597   3.1426   4.9402   H         1 RES1   0.0000
    38 H6      -2.1615   3.5131   3.6364   H         1 RES1   0.0000
    39 H7      -2.1748  -1.5535   5.1077   H         1 RES1   0.0000
    40 H8      -2.9828  -1.8233   7.3086   H         1 RES1   0.0000
    41 H9      -2.8034   0.0445   8.9235   H         1 RES1   0.0000
    42 H10     -1.9550   2.0308   8.0862   H         1 RES1   0.0000
    43 H11     -7.9997  -2.8757   0.8373   H         1 RES1   0.0000
    44 H12     -6.6920  -3.7948   1.0407   H         1 RES1   0.0000
    45 H13     -7.3912  -3.1129   2.3086   H         1 RES1   0.0000
    46 O1B      6.2777   1.8131  -1.3780   O.3       1 RES1   0.0000
    47 N1B     -0.0611  -2.1740   0.0072   N.ar      1 RES1   0.0000
    48 N2B      0.3585  -0.4877  -2.0419   N.2       1 RES1   0.0000
    49 N3B      2.1655  -0.0208   0.1244   N.1       1 RES1   0.0000
    50 N4B      0.7733   0.1942  -3.1603   N.2       1 RES1   0.0000
    51 N5B      1.0011  -1.9804  -3.4833   N.pl3     1 RES1   0.0000
    52 N6B      1.3388  -3.2478  -4.0287   N.3       1 RES1   0.0000
    53 N7B      1.5743  -1.5224  -6.2333   N.ar      1 RES1   0.0000
    54 N8B      4.5178  -0.0356  -3.5144   N.1       1 RES1   0.0000
    55 N9B      2.9449   2.6504   1.9797   N.1       1 RES1   0.0000
    56 N10B     7.1874   3.2938   1.9438   N.1       1 RES1   0.0000
    57 C1B     -0.3868  -2.9543   1.0443   C.ar      1 RES1   0.0000
    58 C2B     -0.4649  -4.3344   0.9510   C.ar      1 RES1   0.0000
    59 C3B     -0.1914  -4.9392  -0.2703   C.ar      1 RES1   0.0000
    60 C4B      0.1439  -4.1506  -1.3601   C.ar      1 RES1   0.0000
    61 C5B      0.1930  -2.7764  -1.1938   C.ar      1 RES1   0.0000
    62 C6B      0.4982  -1.7907  -2.2357   C.2       1 RES1   0.0000
    63 C7B      1.1608  -0.7308  -4.0299   C.2       1 RES1   0.0000
    64 C8B      1.6521  -0.4729  -5.3828   C.ar      1 RES1   0.0000
    65 C9B      2.1309   0.7797  -5.7405   C.ar      1 RES1   0.0000
    66 C10B     2.5803   0.9531  -7.0371   C.ar      1 RES1   0.0000
    67 C11B     2.5133  -0.1008  -7.9342   C.ar      1 RES1   0.0000
    68 C12B     2.0075  -1.2926  -7.4988   C.ar      1 RES1   0.0000
    69 C13B     3.1110   0.3973  -0.4019   C.1       1 RES1   0.0000
    70 C14B     4.3841   0.3810  -2.4534   C.1       1 RES1   0.0000
    71 C15B     3.9226   2.5037   1.3864   C.1       1 RES1   0.0000
    72 C16B     6.2932   2.8802   1.3481   C.1       1 RES1   0.0000
    73 C17B     4.2327   0.8716  -1.1196   C.2       1 RES1   0.0000
    74 C18B     5.1462   2.3732   0.6627   C.2       1 RES1  -1.0000
    75 C19B     5.2105   1.7284  -0.5670   C.2       1 RES1   0.0000
    76 C20B     7.1268   2.9899  -1.3541   C.3       1 RES1   0.0000
    77 H1B     -0.6467  -2.4755   1.9378   H         1 RES1   0.0000
    78 H2B     -0.6141  -4.9065   1.6866   H         1 RES1   0.0000
    79 H3B     -0.2245  -5.8997  -0.3469   H         1 RES1   0.0000
    80 H4B      0.2827  -4.5360  -2.2369   H         1 RES1   0.0000
    81 H5B      1.3597  -3.1426  -4.9402   H         1 RES1   0.0000
    82 H6B      2.1615  -3.5131  -3.6364   H         1 RES1   0.0000
    83 H7B      2.1748   1.5535  -5.1077   H         1 RES1   0.0000
    84 H8B      2.9828   1.8233  -7.3086   H         1 RES1   0.0000
    85 H9B      2.8034  -0.0445  -8.9235   H         1 RES1   0.0000
    86 H10B     1.9550  -2.0308  -8.0862   H         1 RES1   0.0000
    87 H11B     7.9997   2.8757  -0.8373   H         1 RES1   0.0000
    88 H12B     6.6920   3.7948  -1.0407   H         1 RES1   0.0000
    89 H13B     7.3912   3.1129  -2.3086   H         1 RES1   0.0000
@<TRIPOS>BOND
     1     1     3    1
     2     2    31    1
     3     3    13   ar
     4     4     1    1
     5     5     1    1
     6     6     4    1
     7     7     8    1
     8     8    37    1
     9     9    20   ar
    10    10    26    3
    11    11    27    3
    12    12    28    3
    13    13    14   ar
    14    14    15   ar
    15    15    16   ar
    16    16    17   ar
    17    17     3   ar
    18    18     4    2
    19    19     6    2
    20    20    19    1
    21    21    20   ar
    22    22    21   ar
    23    23    22   ar
    24    24     9   ar
    25    25     5    3
    26    26    29    1
    27    27    30    1
    28    28    30    1
    29    29    25    1
    30    30    31    1
    31    31    29    2
    32    32     2    1
    33    33    13    1
    34    34    14    1
    35    35    15    1
    36    36    16    1
    37    38     8    1
    38    39    21    1
    39    40    22    1
    40    41    23    1
    41    42    24    1
    42    43    32    1
    43    44    32    1
    44    45    32    1
    45    46    75    1
    46    47     1    1
    47    48     1    1
    48    49     1    1
    49    50    48    1
    50    51    52    1
    51    52    81    1
    52    53    64   ar
    53    54    70    3
    54    55    71    3
    55    56    72    3
    56    57    47   ar
    57    58    57   ar
    58    59    58   ar
    59    60    59   ar
    60    61    47   ar
    61    62    48    2
    62    63    50    2
    63    64    63    1
    64    65    64   ar
    65    66    65   ar
    66    67    66   ar
    67    68    53   ar
    68    69    49    3
    69    70    73    1
    70    71    74    1
    71    72    74    1
    72    73    69    1
    73    74    75    1
    74    75    73    2
    75    76    46    1
    76    77    57    1
    77    78    58    1
    78    79    59    1
    79    80    60    1
    80    82    52    1
    81    83    65    1
    82    84    66    1
    83    85    67    1
    84    86    68    1
    85    87    76    1
    86    88    76    1
    87    89    76    1
    88     7    18    1
    89     7    19    1
    90    17    18    1
    91    23    24   ar
    92    51    62    1
    93    51    63    1
    94    60    61   ar
    95    61    62    1
    96    67    68   ar
@<TRIPOS>SUBSTRUCTURE
     1 RES1        1 GROUP             0 ****  ****    0  
@<TRIPOS>CRYSIN
   10.7214   14.8234   11.9618   90.0000   90.1020   90.0000   231     1
