@<TRIPOS>MOLECULE
BOJMET01
    95   102     1     0     0
SMALL
USER_CHARGES
****
Generated from the CSD

@<TRIPOS>ATOM
     1 Fe1      5.2580   7.2962   5.5415   Fe        1 RES1   2.0000
     2 O1       3.5867   6.5452   0.9687   O.3       1 RES1   0.0000
     3 N1       6.2596   8.2993   4.1239   N.ar      1 RES1   0.0000
     4 N2       6.9783   6.3292   5.6262   N.2       1 RES1   0.0000
     5 N3       7.5140   5.2740   6.3224   N.2       1 RES1   0.0000
     6 N4       8.9155   5.9062   4.7441   N.pl3     1 RES1   0.0000
     7 N5       9.9860   5.9484   3.8115   N.3       1 RES1   0.0000
     8 N6      10.8211   3.9424   5.6026   N.ar      1 RES1   0.0000
     9 N7       4.6750   6.0871   4.1519   N.1       1 RES1   0.0000
    10 N8       4.0422   2.1080   2.5535   N.1       1 RES1   0.0000
    11 N9       1.2276   2.3583   0.6805   N.1       1 RES1   0.0000
    12 N10      1.7496   5.4520  -2.1545   N.1       1 RES1   0.0000
    13 C1       5.8215   9.3477   3.4125   C.ar      1 RES1   0.0000
    14 C2       6.5970   9.9442   2.4250   C.ar      1 RES1   0.0000
    15 C3       7.8500   9.4531   2.1446   C.ar      1 RES1   0.0000
    16 C4       8.3172   8.3760   2.8683   C.ar      1 RES1   0.0000
    17 C5       7.5009   7.8264   3.8392   C.ar      1 RES1   0.0000
    18 C6       7.8313   6.7046   4.6959   C.2       1 RES1   0.0000
    19 C7       8.6906   5.0093   5.7610   C.2       1 RES1   0.0000
    20 C8       9.5989   3.9552   6.1810   C.ar      1 RES1   0.0000
    21 C9       9.2226   3.0123   7.1308   C.ar      1 RES1   0.0000
    22 C10     10.1107   2.0215   7.4811   C.ar      1 RES1   0.0000
    23 C11     11.3483   1.9878   6.8748   C.ar      1 RES1   0.0000
    24 C12     11.6575   2.9687   5.9594   C.ar      1 RES1   0.0000
    25 C13      4.3204   5.4511   3.2629   C.1       1 RES1   0.0000
    26 C14      3.8079   4.6422   2.2166   C.2       1 RES1   0.0000
    27 C15      3.9211   3.2407   2.3806   C.1       1 RES1   0.0000
    28 C16      3.2230   5.2622   1.0950   C.2       1 RES1   0.0000
    29 C17      2.3778   4.6080   0.1884   C.2       1 RES1  -1.0000
    30 C18      1.7684   3.3595   0.4877   C.1       1 RES1   0.0000
    31 C19      2.0523   5.1107  -1.1061   C.1       1 RES1   0.0000
    32 C20      2.6847   7.5319   0.3602   C.3       1 RES1   0.0000
    33 C21      3.0290   8.8617   0.9786   C.3       1 RES1   0.0000
    34 H1       4.9298   9.6941   3.6131   H         1 RES1   0.0000
    35 H2       6.1860  10.6154   1.9950   H         1 RES1   0.0000
    36 H3       8.4339   9.8108   1.5184   H         1 RES1   0.0000
    37 H4       9.1926   7.9997   2.7375   H         1 RES1   0.0000
    38 H5       9.6846   5.5690   3.1143   H         1 RES1   0.0000
    39 H6      10.6583   5.3763   4.1783   H         1 RES1   0.0000
    40 H7       8.3906   3.0880   7.5032   H         1 RES1   0.0000
    41 H8       9.8614   1.2596   8.1239   H         1 RES1   0.0000
    42 H9      11.9374   1.3294   7.0378   H         1 RES1   0.0000
    43 H10     12.5082   2.9674   5.4972   H         1 RES1   0.0000
    44 H11      1.6943   7.2248   0.5431   H         1 RES1   0.0000
    45 H12      2.8699   7.5257  -0.6207   H         1 RES1   0.0000
    46 H13      2.4352   9.5391   0.5763   H         1 RES1   0.0000
    47 H14      3.9262   9.0394   0.7980   H         1 RES1   0.0000
    48 H15      2.9415   8.7947   1.9174   H         1 RES1   0.0000
    49 O1A      6.9292   8.0471  10.1144   O.3       1 RES1   0.0000
    50 N1A      4.2563   6.2931   6.9592   N.ar      1 RES1   0.0000
    51 N2A      3.5376   8.2631   5.4569   N.2       1 RES1   0.0000
    52 N3A      3.0019   9.3183   4.7606   N.2       1 RES1   0.0000
    53 N4A      1.6004   8.6861   6.3390   N.pl3     1 RES1   0.0000
    54 N5A      0.5299   8.6439   7.2716   N.3       1 RES1   0.0000
    55 N6A     -0.3052  10.6499   5.4805   N.ar      1 RES1   0.0000
    56 N7A      5.8409   8.5052   6.9311   N.1       1 RES1   0.0000
    57 N8A      6.4737  12.4843   8.5295   N.1       1 RES1   0.0000
    58 N9A      9.2883  12.2340  10.4026   N.1       1 RES1   0.0000
    59 N10A     8.7663   9.1403  13.2376   N.1       1 RES1   0.0000
    60 C1A      4.6944   5.2446   7.6706   C.ar      1 RES1   0.0000
    61 C2A      3.9189   4.6481   8.6581   C.ar      1 RES1   0.0000
    62 C3A      2.6659   5.1392   8.9385   C.ar      1 RES1   0.0000
    63 C4A      2.1987   6.2163   8.2148   C.ar      1 RES1   0.0000
    64 C5A      3.0150   6.7660   7.2439   C.ar      1 RES1   0.0000
    65 C6A      2.6846   7.8877   6.3872   C.2       1 RES1   0.0000
    66 C7A      1.8253   9.5830   5.3221   C.2       1 RES1   0.0000
    67 C8A      0.9170  10.6371   4.9020   C.ar      1 RES1   0.0000
    68 C9A      1.2933  11.5800   3.9522   C.ar      1 RES1   0.0000
    69 C10A     0.4052  12.5709   3.6020   C.ar      1 RES1   0.0000
    70 C11A    -0.8324  12.6046   4.2082   C.ar      1 RES1   0.0000
    71 C12A    -1.1416  11.6237   5.1237   C.ar      1 RES1   0.0000
    72 C13A     6.1955   9.1413   7.8202   C.1       1 RES1   0.0000
    73 C14A     6.7080   9.9501   8.8665   C.2       1 RES1   0.0000
    74 C15A     6.5948  11.3517   8.7024   C.1       1 RES1   0.0000
    75 C16A     7.2929   9.3302   9.9881   C.2       1 RES1   0.0000
    76 C17A     8.1381   9.9843  10.8947   C.2       1 RES1  -1.0000
    77 C18A     8.7475  11.2328  10.5954   C.1       1 RES1   0.0000
    78 C19A     8.4636   9.4816  12.1892   C.1       1 RES1   0.0000
    79 C20A     7.8312   7.0605  10.7229   C.3       1 RES1   0.0000
    80 C21A     7.4869   5.7306  10.1044   C.3       1 RES1   0.0000
    81 H1A      5.5861   4.8982   7.4700   H         1 RES1   0.0000
    82 H2A      4.3299   3.9769   9.0881   H         1 RES1   0.0000
    83 H3A      2.0820   4.7815   9.5647   H         1 RES1   0.0000
    84 H4A      1.3233   6.5926   8.3456   H         1 RES1   0.0000
    85 H5A      0.8313   9.0233   7.9687   H         1 RES1   0.0000
    86 H6A     -0.1424   9.2160   6.9048   H         1 RES1   0.0000
    87 H7A      2.1253  11.5043   3.5798   H         1 RES1   0.0000
    88 H8A      0.6545  13.3327   2.9592   H         1 RES1   0.0000
    89 H9A     -1.4215  13.2629   4.0453   H         1 RES1   0.0000
    90 H10A    -1.9923  11.6249   5.5859   H         1 RES1   0.0000
    91 H11A     8.8216   7.3676  10.5400   H         1 RES1   0.0000
    92 H12A     7.6460   7.0666  11.7037   H         1 RES1   0.0000
    93 H13A     8.0807   5.0532  10.5068   H         1 RES1   0.0000
    94 H14A     6.5897   5.5529  10.2851   H         1 RES1   0.0000
    95 H15A     7.5744   5.7977   9.1657   H         1 RES1   0.0000
@<TRIPOS>BOND
     1     1     3    1
     2     2    28    1
     3     3    13   ar
     4     4     1    1
     5     5     4    1
     6     6     7    1
     7     7    38    1
     8     8    20   ar
     9     9     1    1
    10    10    27    3
    11    11    30    3
    12    12    31    3
    13    13    14   ar
    14    14    15   ar
    15    15    16   ar
    16    16    17   ar
    17    17     3   ar
    18    18     4    2
    19    19     5    2
    20    20    19    1
    21    21    20   ar
    22    22    21   ar
    23    23    22   ar
    24    24     8   ar
    25    25     9    3
    26    26    25    1
    27    27    26    1
    28    28    26    2
    29    29    28    1
    30    30    29    1
    31    31    29    1
    32    32     2    1
    33    33    32    1
    34    34    13    1
    35    35    14    1
    36    36    15    1
    37    37    16    1
    38    39     7    1
    39    40    21    1
    40    41    22    1
    41    42    23    1
    42    43    24    1
    43    44    32    1
    44    45    32    1
    45    46    33    1
    46    47    33    1
    47    48    33    1
    48    49    75    1
    49    50     1    1
    50    51     1    1
    51    52    51    1
    52    53    54    1
    53    54    85    1
    54    55    67   ar
    55    56     1    1
    56    57    74    3
    57    58    77    3
    58    59    78    3
    59    60    50   ar
    60    61    60   ar
    61    62    61   ar
    62    63    62   ar
    63    64    50   ar
    64    65    51    2
    65    66    52    2
    66    67    66    1
    67    68    67   ar
    68    69    68   ar
    69    70    69   ar
    70    71    55   ar
    71    72    56    3
    72    73    72    1
    73    74    73    1
    74    75    73    2
    75    76    75    1
    76    77    76    1
    77    78    76    1
    78    79    49    1
    79    80    79    1
    80    81    60    1
    81    82    61    1
    82    83    62    1
    83    84    63    1
    84    86    54    1
    85    87    68    1
    86    88    69    1
    87    89    70    1
    88    90    71    1
    89    91    79    1
    90    92    79    1
    91    93    80    1
    92    94    80    1
    93    95    80    1
    94     6    18    1
    95     6    19    1
    96    17    18    1
    97    23    24   ar
    98    53    65    1
    99    53    66    1
   100    63    64   ar
   101    64    65    1
   102    70    71   ar
@<TRIPOS>SUBSTRUCTURE
     1 RES1        1 GROUP             0 ****  ****    0  
@<TRIPOS>CRYSIN
    8.7135   10.4315   11.9073   69.1500   84.0880   86.8350     2     1
