@<TRIPOS>MOLECULE
BONGOB
   104   118     2     0     0
SMALL
USER_CHARGES
****
Generated from the CSD

@<TRIPOS>ATOM
     1 Fe1     10.7450   0.0000   3.7360   Fe        1 RES1   0.0000
     2 Cl1     12.6299  -1.1166   3.0230   Cl        1 RES1  -1.0000
     3 N1      10.4927  -1.4568   4.9913   N.2       1 RES1   0.0000
     4 N2      11.9643  -0.7496   6.7764   N.2       1 RES1   0.0000
     5 N3      11.8782   0.9142   5.0234   N.2       1 RES1   0.0000
     6 N4      12.4169   2.9306   3.7876   N.2       1 RES1   0.0000
     7 C7      11.1333  -1.5931   6.2025   C.2       1 RES1   0.0000
     8 C8      12.2940   0.4109   6.2219   C.2       1 RES1   0.0000
     9 C9      13.2284   1.3341   6.8571   C.2       1 RES1   0.0000
    10 C10     13.9232   1.2868   8.0563   C.2       1 RES1   0.0000
    11 C11     14.7245   2.3768   8.3604   C.2       1 RES1   0.0000
    12 C12     14.8429   3.4640   7.5004   C.2       1 RES1   0.0000
    13 C13     14.1559   3.4958   6.2944   C.2       1 RES1   0.0000
    14 C14     13.3511   2.4191   5.9828   C.2       1 RES1   0.0000
    15 C15     12.5007   2.1309   4.8321   C.2       1 RES1   0.0000
    16 C16     11.6908   2.6265   2.7198   C.2       1 RES1   0.0000
    17 C17     11.4941   3.5491   1.6132   C.2       1 RES1   0.0000
    18 C18     11.9300   4.8587   1.4070   C.2       1 RES1   0.0000
    19 C19     11.4989   5.4885   0.2496   C.2       1 RES1   0.0000
    20 C20     10.6803   4.8430  -0.6717   C.2       1 RES1   0.0000
    21 C21     10.2574   3.5330  -0.4663   C.2       1 RES1   0.0000
    22 C22     10.6620   2.9061   0.6949   C.2       1 RES1   0.0000
    23 H6      13.8482   0.5415   8.6414   H         1 RES1   0.0000
    24 H7      15.2128   2.3789   9.1756   H         1 RES1   0.0000
    25 H8      15.3954   4.1970   7.7455   H         1 RES1   0.0000
    26 H9      14.2414   4.2314   5.6996   H         1 RES1   0.0000
    27 H10     12.4943   5.2973   2.0339   H         1 RES1   0.0000
    28 H11     11.7765   6.3804   0.0762   H         1 RES1   0.0000
    29 H12     10.3990   5.3037  -1.4533   H         1 RES1   0.0000
    30 H13      9.7092   3.0817  -1.0969   H         1 RES1   0.0000
    31 Cl1D     8.8601   1.1166   4.4490   Cl        1 RES1   0.0000
    32 N1D     10.9973   1.4568   2.4807   N.2       1 RES1   0.0000
    33 N2D      9.5257   0.7496   0.6956   N.2       1 RES1   0.0000
    34 N3D      9.6118  -0.9142   2.4486   N.2       1 RES1   0.0000
    35 N4D      9.0731  -2.9306   3.6844   N.2       1 RES1   0.0000
    36 C7D     10.3567   1.5931   1.2695   C.2       1 RES1   0.0000
    37 C8D      9.1960  -0.4109   1.2501   C.2       1 RES1   0.0000
    38 C9D      8.2616  -1.3341   0.6149   C.2       1 RES1   0.0000
    39 C10D     7.5668  -1.2868  -0.5843   C.2       1 RES1   0.0000
    40 C11D     6.7655  -2.3768  -0.8884   C.2       1 RES1   0.0000
    41 C12D     6.6471  -3.4640  -0.0284   C.2       1 RES1   0.0000
    42 C13D     7.3341  -3.4958   1.1776   C.2       1 RES1   0.0000
    43 C14D     8.1389  -2.4191   1.4892   C.2       1 RES1   0.0000
    44 C15D     8.9893  -2.1309   2.6399   C.2       1 RES1   0.0000
    45 C16D     9.7992  -2.6265   4.7522   C.2       1 RES1   0.0000
    46 C17D     9.9959  -3.5491   5.8588   C.2       1 RES1   0.0000
    47 C18D     9.5600  -4.8587   6.0650   C.2       1 RES1   0.0000
    48 C19D     9.9911  -5.4885   7.2224   C.2       1 RES1   0.0000
    49 C20D    10.8097  -4.8430   8.1437   C.2       1 RES1   0.0000
    50 C21D    11.2326  -3.5330   7.9383   C.2       1 RES1   0.0000
    51 C22D    10.8280  -2.9061   6.7771   C.2       1 RES1   0.0000
    52 H6D      7.6418  -0.5415  -1.1694   H         1 RES1   0.0000
    53 H7D      6.2772  -2.3789  -1.7036   H         1 RES1   0.0000
    54 H8D      6.0946  -4.1970  -0.2735   H         1 RES1   0.0000
    55 H9D      7.2486  -4.2314   1.7724   H         1 RES1   0.0000
    56 H10D     8.9957  -5.2973   5.4381   H         1 RES1   0.0000
    57 H11D     9.7135  -6.3804   7.3958   H         1 RES1   0.0000
    58 H12D    11.0910  -5.3037   8.9253   H         1 RES1   0.0000
    59 H13D    11.7808  -3.0817   8.5689   H         1 RES1   0.0000
    60 P1       5.3725   5.3725   5.6040   P.3       2 RES2   1.0000
    61 C1       6.7672   5.6544   4.5168   C.ar      2 RES2   0.0000
    62 C2       7.8479   4.7792   4.4810   C.ar      2 RES2   0.0000
    63 C3       8.8762   5.0072   3.5694   C.ar      2 RES2   0.0000
    64 C4       8.8158   6.0795   2.7026   C.ar      2 RES2   0.0000
    65 C5       7.7272   6.9396   2.7228   C.ar      2 RES2   0.0000
    66 C6       6.7079   6.7281   3.6224   C.ar      2 RES2   0.0000
    67 H1       7.8782   4.0358   5.0727   H         2 RES2   0.0000
    68 H2       9.6211   4.4183   3.5410   H         2 RES2   0.0000
    69 H3       9.5265   6.2300   2.0907   H         2 RES2   0.0000
    70 H4       7.6848   7.6784   2.1265   H         2 RES2   0.0000
    71 H5       5.9549   7.3066   3.6374   H         2 RES2   0.0000
    72 C1B      3.9778   5.0906   4.5168   C.ar      2 RES2   0.0000
    73 C1E      5.6544   3.9778   6.6912   C.ar      2 RES2   0.0000
    74 C1G      5.0906   6.7672   6.6912   C.ar      2 RES2   0.0000
    75 C2B      2.8971   5.9658   4.4810   C.ar      2 RES2   0.0000
    76 C2E      4.7792   2.8971   6.7270   C.ar      2 RES2   0.0000
    77 C2G      5.9658   7.8479   6.7270   C.ar      2 RES2   0.0000
    78 C3B      1.8688   5.7378   3.5694   C.ar      2 RES2   0.0000
    79 C3E      5.0072   1.8688   7.6386   C.ar      2 RES2   0.0000
    80 C3G      5.7378   8.8762   7.6386   C.ar      2 RES2   0.0000
    81 C4B      1.9292   4.6655   2.7026   C.ar      2 RES2   0.0000
    82 C4E      6.0795   1.9292   8.5054   C.ar      2 RES2   0.0000
    83 C4G      4.6655   8.8158   8.5054   C.ar      2 RES2   0.0000
    84 C5B      3.0178   3.8054   2.7228   C.ar      2 RES2   0.0000
    85 C5E      6.9396   3.0178   8.4852   C.ar      2 RES2   0.0000
    86 C5G      3.8054   7.7272   8.4852   C.ar      2 RES2   0.0000
    87 C6B      4.0371   4.0169   3.6224   C.ar      2 RES2   0.0000
    88 C6E      6.7281   4.0371   7.5856   C.ar      2 RES2   0.0000
    89 C6G      4.0169   6.7079   7.5856   C.ar      2 RES2   0.0000
    90 H1B      2.8668   6.7092   5.0727   H         2 RES2   0.0000
    91 H1E      4.0358   2.8668   6.1353   H         2 RES2   0.0000
    92 H1G      6.7092   7.8782   6.1353   H         2 RES2   0.0000
    93 H2B      1.1239   6.3267   3.5410   H         2 RES2   0.0000
    94 H2E      4.4183   1.1239   7.6670   H         2 RES2   0.0000
    95 H2G      6.3267   9.6211   7.6670   H         2 RES2   0.0000
    96 H3B      1.2185   4.5150   2.0907   H         2 RES2   0.0000
    97 H3E      6.2300   1.2185   9.1173   H         2 RES2   0.0000
    98 H3G      4.5150   9.5265   9.1173   H         2 RES2   0.0000
    99 H4B      3.0602   3.0666   2.1265   H         2 RES2   0.0000
   100 H4E      7.6784   3.0602   9.0815   H         2 RES2   0.0000
   101 H4G      3.0666   7.6848   9.0815   H         2 RES2   0.0000
   102 H5B      4.7901   3.4384   3.6374   H         2 RES2   0.0000
   103 H5E      7.3066   4.7901   7.5706   H         2 RES2   0.0000
   104 H5G      3.4384   5.9549   7.5706   H         2 RES2   0.0000
@<TRIPOS>BOND
     1     1     2    1
     2     3     1    1
     3     4     7    1
     4     5     1    1
     5     6    15    2
     6     7     3    2
     7     8     4    2
     8     9     8    1
     9    10     9    1
    10    11    10    2
    11    12    11    1
    12    13    12    2
    13    14     9    2
    14    15     5    1
    15    16     6    1
    16    17    16    1
    17    18    17    1
    18    19    18    2
    19    20    19    1
    20    21    20    2
    21    22    17    2
    22    23    10    1
    23    24    11    1
    24    25    12    1
    25    26    13    1
    26    27    18    1
    27    28    19    1
    28    29    20    1
    29    30    21    1
    30    31     1    1
    31    32     1    1
    32    33    36    2
    33    34     1    1
    34    35    44    1
    35    36    22    1
    36    37    33    1
    37    38    37    2
    38    39    38    1
    39    40    39    2
    40    41    40    1
    41    42    41    2
    42    43    38    1
    43    44    34    1
    44    45     3    1
    45    46    45    1
    46    47    46    1
    47    48    47    2
    48    49    48    1
    49    50    49    2
    50    51     7    1
    51    52    39    1
    52    53    40    1
    53    54    41    1
    54    55    42    1
    55    56    47    1
    56    57    48    1
    57    58    49    1
    58    59    50    1
    59     5     8    1
    60    13    14    1
    61    14    15    1
    62    16    32    2
    63    21    22    1
    64    32    36    1
    65    34    37    1
    66    35    45    2
    67    42    43    1
    68    43    44    2
    69    46    51    2
    70    50    51    1
    71    60    61    1
    72    61    62   ar
    73    62    63   ar
    74    63    64   ar
    75    64    65   ar
    76    65    66   ar
    77    66    61   ar
    78    67    62    1
    79    68    63    1
    80    69    64    1
    81    70    65    1
    82    71    66    1
    83    72    60    1
    84    73    60    1
    85    74    60    1
    86    75    72   ar
    87    76    73   ar
    88    77    74   ar
    89    78    75   ar
    90    79    76   ar
    91    80    77   ar
    92    81    78   ar
    93    82    79   ar
    94    83    80   ar
    95    84    81   ar
    96    85    82   ar
    97    86    83   ar
    98    87    72   ar
    99    88    73   ar
   100    89    74   ar
   101    90    75    1
   102    91    76    1
   103    92    77    1
   104    93    78    1
   105    94    79    1
   106    95    80    1
   107    96    81    1
   108    97    82    1
   109    98    83    1
   110    99    84    1
   111   100    85    1
   112   101    86    1
   113   102    87    1
   114   103    88    1
   115   104    89    1
   116    84    87   ar
   117    85    88   ar
   118    86    89   ar
@<TRIPOS>SUBSTRUCTURE
     1 RES1        1 GROUP             0 ****  ****    0  
     2 RES2       60 GROUP             0 ****  ****    0  
