@<TRIPOS>MOLECULE
BONGUH
   104   118     2     0     0
SMALL
USER_CHARGES
****
Generated from the CSD

@<TRIPOS>ATOM
     1 Br1     -1.2000  -1.9920  -0.7102   Br        1 RES1  -1.0000
     2 Fe1      0.0000   0.0000   0.0000   Fe        1 RES1   0.0000
     3 N1      -0.9048   1.1018  -1.2829   N.2       1 RES1   0.0000
     4 N2      -2.9419   1.6456  -0.0856   N.2       1 RES1   0.0000
     5 N3      -1.4495   0.2651   1.2458   N.2       1 RES1   0.0000
     6 N4      -0.7493  -1.1874   3.0500   N.2       1 RES1   0.0000
     7 C7      -0.3974   1.5175  -2.4999   C.2       1 RES1   0.0000
     8 C8      -1.3278   2.4495  -3.1432   C.2       1 RES1   0.0000
     9 C9      -1.2709   3.1381  -4.3435   C.2       1 RES1   0.0000
    10 C10     -2.3538   3.9313  -4.6709   C.2       1 RES1   0.0000
    11 C11     -3.4605   4.0456  -3.8161   C.2       1 RES1   0.0000
    12 C12     -3.5003   3.3661  -2.5961   C.2       1 RES1   0.0000
    13 C13     -2.4225   2.5643  -2.2854   C.2       1 RES1   0.0000
    14 C14     -2.1258   1.7331  -1.1223   C.2       1 RES1   0.0000
    15 C15     -2.6197   0.9386   0.9912   C.2       1 RES1   0.0000
    16 C16     -3.5506   0.7543   2.0998   C.2       1 RES1   0.0000
    17 C17     -4.8569   1.1853   2.2885   C.2       1 RES1   0.0000
    18 C18     -5.4994   0.7697   3.4456   C.2       1 RES1   0.0000
    19 C19     -4.8474  -0.0542   4.3943   C.2       1 RES1   0.0000
    20 C20     -3.5446  -0.4768   4.1943   C.2       1 RES1   0.0000
    21 C21     -2.9128  -0.0664   3.0235   C.2       1 RES1   0.0000
    22 C22     -1.5957  -0.3614   2.4620   C.2       1 RES1   0.0000
    23 H6      -0.5074   3.0873  -4.9050   H         1 RES1   0.0000
    24 H7      -2.3615   4.3848  -5.5052   H         1 RES1   0.0000
    25 H8      -4.1921   4.5924  -4.0753   H         1 RES1   0.0000
    26 H9      -4.2263   3.4748  -1.9929   H         1 RES1   0.0000
    27 H10     -5.2840   1.7599   1.6641   H         1 RES1   0.0000
    28 H11     -6.3994   1.0320   3.5994   H         1 RES1   0.0000
    29 H12     -5.3118  -0.3297   5.1763   H         1 RES1   0.0000
    30 H13     -3.0895  -1.0106   4.8353   H         1 RES1   0.0000
    31 Br1D     1.2000   1.9920   0.7102   Br        1 RES1   0.0000
    32 N1D      0.9048  -1.1018   1.2829   N.2       1 RES1   0.0000
    33 N2D      2.9419  -1.6456   0.0856   N.2       1 RES1   0.0000
    34 N3D      1.4495  -0.2651  -1.2458   N.2       1 RES1   0.0000
    35 N4D      0.7493   1.1874  -3.0500   N.2       1 RES1   0.0000
    36 C7D      0.3974  -1.5175   2.4999   C.2       1 RES1   0.0000
    37 C8D      1.3278  -2.4495   3.1432   C.2       1 RES1   0.0000
    38 C9D      1.2709  -3.1381   4.3435   C.2       1 RES1   0.0000
    39 C10D     2.3538  -3.9313   4.6709   C.2       1 RES1   0.0000
    40 C11D     3.4605  -4.0456   3.8161   C.2       1 RES1   0.0000
    41 C12D     3.5003  -3.3661   2.5961   C.2       1 RES1   0.0000
    42 C13D     2.4225  -2.5643   2.2854   C.2       1 RES1   0.0000
    43 C14D     2.1258  -1.7331   1.1223   C.2       1 RES1   0.0000
    44 C15D     2.6197  -0.9386  -0.9912   C.2       1 RES1   0.0000
    45 C16D     3.5506  -0.7543  -2.0998   C.2       1 RES1   0.0000
    46 C17D     4.8569  -1.1853  -2.2885   C.2       1 RES1   0.0000
    47 C18D     5.4994  -0.7697  -3.4456   C.2       1 RES1   0.0000
    48 C19D     4.8474   0.0542  -4.3943   C.2       1 RES1   0.0000
    49 C20D     3.5446   0.4768  -4.1943   C.2       1 RES1   0.0000
    50 C21D     2.9128   0.0664  -3.0235   C.2       1 RES1   0.0000
    51 C22D     1.5957   0.3614  -2.4620   C.2       1 RES1   0.0000
    52 H6D      0.5074  -3.0873   4.9050   H         1 RES1   0.0000
    53 H7D      2.3615  -4.3848   5.5052   H         1 RES1   0.0000
    54 H8D      4.1921  -4.5924   4.0753   H         1 RES1   0.0000
    55 H9D      4.2263  -3.4748   1.9929   H         1 RES1   0.0000
    56 H10D     5.2840  -1.7599  -1.6641   H         1 RES1   0.0000
    57 H11D     6.3994  -1.0320  -3.5994   H         1 RES1   0.0000
    58 H12D     5.3118   0.3297  -5.1763   H         1 RES1   0.0000
    59 H13D     3.0895   1.0106  -4.8353   H         1 RES1   0.0000
    60 P1       5.3525   5.3525   1.8944   P.3       2 RES2   1.0000
    61 C1       3.9775   4.9832   2.9833   C.ar      2 RES2   0.0000
    62 C2       2.8152   5.7330   2.9750   C.ar      2 RES2   0.0000
    63 C3       1.8149   5.4696   3.9010   C.ar      2 RES2   0.0000
    64 C4       1.9708   4.4526   4.8293   C.ar      2 RES2   0.0000
    65 C5       3.1428   3.7091   4.8581   C.ar      2 RES2   0.0000
    66 C6       4.1475   3.9722   3.9510   C.ar      2 RES2   0.0000
    67 H1       2.6955   6.4209   2.3294   H         2 RES2   0.0000
    68 H2       1.0170   5.9862   3.8965   H         2 RES2   0.0000
    69 H3       1.2739   4.2627   5.4469   H         2 RES2   0.0000
    70 H4       3.2586   3.0081   5.4885   H         2 RES2   0.0000
    71 H5       4.9650   3.4898   3.9844   H         2 RES2   0.0000
    72 C1B      6.7275   5.7218   2.9833   C.ar      2 RES2   0.0000
    73 C1E      4.9832   6.7275   0.8055   C.ar      2 RES2   0.0000
    74 C1G      5.7218   3.9775   0.8055   C.ar      2 RES2   0.0000
    75 C2B      7.8898   4.9720   2.9750   C.ar      2 RES2   0.0000
    76 C2E      5.7330   7.8898   0.8138   C.ar      2 RES2   0.0000
    77 C2G      4.9720   2.8152   0.8138   C.ar      2 RES2   0.0000
    78 C3B      8.8901   5.2354   3.9010   C.ar      2 RES2   0.0000
    79 C3E      5.4696   8.8901  -0.1121   C.ar      2 RES2   0.0000
    80 C3G      5.2354   1.8149  -0.1121   C.ar      2 RES2   0.0000
    81 C4B      8.7342   6.2524   4.8293   C.ar      2 RES2   0.0000
    82 C4E      4.4526   8.7342  -1.0404   C.ar      2 RES2   0.0000
    83 C4G      6.2524   1.9708  -1.0404   C.ar      2 RES2   0.0000
    84 C5B      7.5622   6.9959   4.8581   C.ar      2 RES2   0.0000
    85 C5E      3.7091   7.5622  -1.0692   C.ar      2 RES2   0.0000
    86 C5G      6.9959   3.1428  -1.0692   C.ar      2 RES2   0.0000
    87 C6B      6.5575   6.7328   3.9510   C.ar      2 RES2   0.0000
    88 C6E      3.9722   6.5575  -0.1622   C.ar      2 RES2   0.0000
    89 C6G      6.7328   4.1475  -0.1622   C.ar      2 RES2   0.0000
    90 H1B      8.0095   4.2841   2.3294   H         2 RES2   0.0000
    91 H1E      6.4209   8.0095   1.4595   H         2 RES2   0.0000
    92 H1G      4.2841   2.6955   1.4595   H         2 RES2   0.0000
    93 H2B      9.6880   4.7188   3.8965   H         2 RES2   0.0000
    94 H2E      5.9862   9.6880  -0.1076   H         2 RES2   0.0000
    95 H2G      4.7188   1.0170  -0.1076   H         2 RES2   0.0000
    96 H3B      9.4311   6.4423   5.4469   H         2 RES2   0.0000
    97 H3E      4.2627   9.4311  -1.6580   H         2 RES2   0.0000
    98 H3G      6.4423   1.2739  -1.6580   H         2 RES2   0.0000
    99 H4B      7.4464   7.6969   5.4885   H         2 RES2   0.0000
   100 H4E      3.0081   7.4464  -1.6997   H         2 RES2   0.0000
   101 H4G      7.6969   3.2586  -1.6997   H         2 RES2   0.0000
   102 H5B      5.7400   7.2152   3.9844   H         2 RES2   0.0000
   103 H5E      3.4898   5.7400  -0.1955   H         2 RES2   0.0000
   104 H5G      7.2152   4.9650  -0.1955   H         2 RES2   0.0000
@<TRIPOS>BOND
     1     1     2    1
     2     2     3    1
     3     3     7    1
     4     4    14    1
     5     5     2    1
     6     6    22    2
     7     7     8    1
     8     8     9    1
     9     9    10    2
    10    10    11    1
    11    11    12    2
    12    12    13    1
    13    13     8    2
    14    14     3    2
    15    15     4    2
    16    16    15    1
    17    17    16    1
    18    18    17    2
    19    19    18    1
    20    20    19    2
    21    21    16    2
    22    22     5    1
    23    23     9    1
    24    24    10    1
    25    25    11    1
    26    26    12    1
    27    27    17    1
    28    28    18    1
    29    29    19    1
    30    30    20    1
    31    31     2    1
    32    32     2    1
    33    33    43    2
    34    34     2    1
    35    35     7    2
    36    36     6    1
    37    37    36    1
    38    38    37    1
    39    39    38    2
    40    40    39    1
    41    41    40    2
    42    42    37    2
    43    43    32    1
    44    44    33    1
    45    45    44    2
    46    46    45    1
    47    47    46    2
    48    48    47    1
    49    49    48    2
    50    50    45    1
    51    51    34    1
    52    52    38    1
    53    53    39    1
    54    54    40    1
    55    55    41    1
    56    56    46    1
    57    57    47    1
    58    58    48    1
    59    59    49    1
    60     5    15    1
    61    13    14    1
    62    20    21    1
    63    21    22    1
    64    32    36    2
    65    34    44    1
    66    35    51    1
    67    41    42    1
    68    42    43    1
    69    49    50    1
    70    50    51    2
    71    60    61    1
    72    61    62   ar
    73    62    63   ar
    74    63    64   ar
    75    64    65   ar
    76    65    66   ar
    77    66    61   ar
    78    67    62    1
    79    68    63    1
    80    69    64    1
    81    70    65    1
    82    71    66    1
    83    72    60    1
    84    73    60    1
    85    74    60    1
    86    75    72   ar
    87    76    73   ar
    88    77    74   ar
    89    78    75   ar
    90    79    76   ar
    91    80    77   ar
    92    81    78   ar
    93    82    79   ar
    94    83    80   ar
    95    84    81   ar
    96    85    82   ar
    97    86    83   ar
    98    87    72   ar
    99    88    73   ar
   100    89    74   ar
   101    90    75    1
   102    91    76    1
   103    92    77    1
   104    93    78    1
   105    94    79    1
   106    95    80    1
   107    96    81    1
   108    97    82    1
   109    98    83    1
   110    99    84    1
   111   100    85    1
   112   101    86    1
   113   102    87    1
   114   103    88    1
   115   104    89    1
   116    84    87   ar
   117    85    88   ar
   118    86    89   ar
@<TRIPOS>SUBSTRUCTURE
     1 RES1        1 GROUP             0 ****  ****    0  
     2 RES2       60 GROUP             0 ****  ****    0  
