@<TRIPOS>MOLECULE
BORBAN
    78    86     2     0     0
SMALL
USER_CHARGES
****
Generated from the CSD

@<TRIPOS>ATOM
     1 Fe1      1.7544   0.3325   3.8667   Fe        1 RES1   1.0000
     2 N1       2.7745   1.5488   5.4209   N.3       1 RES1   0.0000
     3 N2       1.4158  -0.7502   5.6671   N.ar      1 RES1   0.0000
     4 N3       0.3920  -0.4886   2.4289   N.2       1 RES1   0.0000
     5 N4       2.7351   1.8975   2.7909   N.ar      1 RES1   0.0000
     6 N5       4.2234  -3.6376   1.2187   N.ar      1 RES1   0.0000
     7 O1       0.2074   1.4548   4.1145   O.3       1 RES1   0.0000
     8 O2       3.1216  -0.9130   3.3441   O.3       1 RES1   0.0000
     9 O3      -0.0555  -1.9784   0.6865   O.3       1 RES1   0.0000
    10 C1       4.1849   1.0831   5.5790   C.3       1 RES1   0.0000
    11 H1       4.6186   1.1339   4.7125   H         1 RES1   0.0000
    12 H2       4.1668   0.1486   5.8376   H         1 RES1   0.0000
    13 C2       5.0338   1.8208   6.5671   C.ar      1 RES1   0.0000
    14 C3       5.1071   1.4474   7.8975   C.ar      1 RES1   0.0000
    15 H3       4.5994   0.7296   8.1994   H         1 RES1   0.0000
    16 C4       5.9261   2.1258   8.7878   C.ar      1 RES1   0.0000
    17 H4       5.9569   1.8662   9.6794   H         1 RES1   0.0000
    18 C5       6.6840   3.1693   8.3559   C.ar      1 RES1   0.0000
    19 H5       7.2428   3.6153   8.9513   H         1 RES1   0.0000
    20 C6       6.6260   3.5617   7.0604   C.ar      1 RES1   0.0000
    21 H6       7.1336   4.2858   6.7725   H         1 RES1   0.0000
    22 C7       5.8243   2.8956   6.1758   C.ar      1 RES1   0.0000
    23 H7       5.8079   3.1693   5.2869   H         1 RES1   0.0000
    24 C8       2.6924   2.9469   4.9515   C.3       1 RES1   0.0000
    25 H8       3.3286   3.4938   5.4379   H         1 RES1   0.0000
    26 H9       1.8031   3.2967   5.1164   H         1 RES1   0.0000
    27 C9       2.9960   3.0046   3.4715   C.ar      1 RES1   0.0000
    28 C10      3.4812   4.1275   2.8454   C.ar      1 RES1   0.0000
    29 H10      3.6706   4.8956   3.3345   H         1 RES1   0.0000
    30 C11      3.6807   4.1004   1.4954   C.ar      1 RES1   0.0000
    31 H11      4.0090   4.8520   1.0551   H         1 RES1   0.0000
    32 C12      3.3963   2.9719   0.7980   C.ar      1 RES1   0.0000
    33 H12      3.5114   2.9462  -0.1244   H         1 RES1   0.0000
    34 C13      2.9398   1.8730   1.4674   C.ar      1 RES1   0.0000
    35 H13      2.7666   1.0915   0.9951   H         1 RES1   0.0000
    36 C14      1.9679   1.3574   6.6509   C.3       1 RES1   0.0000
    37 H14      1.1579   1.8891   6.5964   H         1 RES1   0.0000
    38 H15      2.4740   1.6558   7.4224   H         1 RES1   0.0000
    39 C15      1.6132  -0.0851   6.8089   C.ar      1 RES1   0.0000
    40 C16      1.4811  -0.7047   8.0401   C.ar      1 RES1   0.0000
    41 H16      1.6511  -0.2379   8.8269   H         1 RES1   0.0000
    42 C17      1.0936  -2.0201   8.0750   C.ar      1 RES1   0.0000
    43 H17      0.9900  -2.4503   8.8940   H         1 RES1   0.0000
    44 C18      0.8574  -2.6992   6.9193   C.ar      1 RES1   0.0000
    45 H18      0.5786  -3.5865   6.9360   H         1 RES1   0.0000
    46 C19      1.0444  -2.0370   5.7160   C.ar      1 RES1   0.0000
    47 H19      0.9087  -2.4984   4.9194   H         1 RES1   0.0000
    48 C20     -0.8776   1.2579   3.3401   C.ar      1 RES1   0.0000
    49 C21     -0.8317   0.1942   2.4317   C.ar      1 RES1   0.0000
    50 C22     -1.9811  -0.0814   1.6645   C.ar      1 RES1   0.0000
    51 H20     -1.9953  -0.8037   1.0789   H         1 RES1   0.0000
    52 C23     -3.0770   0.7304   1.7931   C.ar      1 RES1   0.0000
    53 H21     -3.8333   0.5431   1.2843   H         1 RES1   0.0000
    54 C24     -3.1026   1.7995   2.6330   C.ar      1 RES1   0.0000
    55 H22     -3.8545   2.3465   2.6721   H         1 RES1   0.0000
    56 C25     -1.9998   2.0686   3.4338   C.ar      1 RES1   0.0000
    57 H23     -2.0134   2.7848   4.0277   H         1 RES1   0.0000
    58 C26      3.0988  -1.8709   2.4219   C.ar      1 RES1   0.0000
    59 C27      4.2533  -2.6679   2.1550   C.ar      1 RES1   0.0000
    60 C28      3.1269  -3.8473   0.4808   C.ar      1 RES1   0.0000
    61 H24      3.1360  -4.5094  -0.1719   H         1 RES1   0.0000
    62 C29      0.6365  -3.0784   0.0098   C.3       1 RES1   0.0000
    63 H25      0.7149  -2.9079  -0.9419   H         1 RES1   0.0000
    64 H26      0.1689  -3.9178   0.1425   H         1 RES1   0.0000
    65 C30      0.7309  -1.4615   1.6463   C.2       1 RES1   0.0000
    66 C31      1.9996  -2.1161   1.6421   C.ar      1 RES1   0.0000
    67 C32      1.9919  -3.1041   0.6680   C.ar      1 RES1   0.0000
    68 C33      5.4838  -2.4842   2.9223   C.3       1 RES1   0.0000
    69 H27      5.3635  -1.7706   3.5526   H         1 RES1   0.0000
    70 H28      6.2041  -2.2677   2.3255   H         1 RES1   0.0000
    71 H29      5.6910  -3.2956   3.3932   H         1 RES1   0.0000
    72 P1      -0.0956   2.0967  10.5803   P.3       2 RES2  -1.0000
    73 F1      -0.1309   0.5149  10.6367   F         2 RES2   0.0000
    74 F2       1.3569   2.0191   9.9631   F         2 RES2   0.0000
    75 F3       0.4997   2.1189  12.0357   F         2 RES2   0.0000
    76 F4      -1.5397   2.1623  11.1552   F         2 RES2   0.0000
    77 F5      -0.6518   2.0374   9.1022   F         2 RES2   0.0000
    78 F6      -0.0169   3.6541  10.5110   F         2 RES2   0.0000
@<TRIPOS>BOND
     1     1     2    1
     2     2    10    1
     3     3     1    1
     4     4     1    1
     5     5     1    1
     6     6    59   ar
     7     7     1    1
     8     8     1    1
     9     9    62    1
    10    10    11    1
    11    12    10    1
    12    13    10    1
    13    14    13   ar
    14    15    14    1
    15    16    14   ar
    16    17    16    1
    17    18    16   ar
    18    19    18    1
    19    20    18   ar
    20    21    20    1
    21    22    13   ar
    22    23    22    1
    23    24     2    1
    24    25    24    1
    25    26    24    1
    26    27     5   ar
    27    28    27   ar
    28    29    28    1
    29    30    28   ar
    30    31    30    1
    31    32    30   ar
    32    33    32    1
    33    34     5   ar
    34    35    34    1
    35    36     2    1
    36    37    36    1
    37    38    36    1
    38    39     3   ar
    39    40    39   ar
    40    41    40    1
    41    42    40   ar
    42    43    42    1
    43    44    42   ar
    44    45    44    1
    45    46     3   ar
    46    47    46    1
    47    48     7    1
    48    49     4    1
    49    50    49   ar
    50    51    50    1
    51    52    50   ar
    52    53    52    1
    53    54    52   ar
    54    55    54    1
    55    56    48   ar
    56    57    56    1
    57    58     8    1
    58    59    58   ar
    59    60     6   ar
    60    61    60    1
    61    62    63    1
    62    64    62    1
    63    65     4    2
    64    66    58   ar
    65    67    60   ar
    66    68    59    1
    67    69    68    1
    68    70    68    1
    69    71    68    1
    70     9    65    1
    71    20    22   ar
    72    24    27    1
    73    32    34   ar
    74    36    39    1
    75    44    46   ar
    76    48    49   ar
    77    54    56   ar
    78    62    67    1
    79    65    66    1
    80    66    67   ar
    81    72    73    1
    82    74    72    1
    83    75    72    1
    84    76    72    1
    85    77    72    1
    86    78    72    1
@<TRIPOS>SUBSTRUCTURE
     1 RES1        1 GROUP             0 ****  ****    0  
     2 RES2       72 GROUP             0 ****  ****    0  
@<TRIPOS>CRYSIN
   10.3570   11.4400   14.2970   99.7480   95.0990  101.6680     2     1
