@<TRIPOS>MOLECULE
BOWBEX
    97   107     2     0     0
SMALL
NO_CHARGES
****
Generated from the CSD

@<TRIPOS>ATOM
     1 Fe1     -0.0009  10.7681   7.4440   Fe        1 RES1   0.0000
     2 O1      -1.2775   9.7654   8.5224   O.3       1 RES1   0.0000
     3 O2      -4.4174   8.9252  11.1888   O.2       1 RES1   0.0000
     4 O3      -1.8564  11.2782  12.1951   O.3       1 RES1   0.0000
     5 O4      -2.0963  10.3918  14.2175   O.2       1 RES1   0.0000
     6 N1      -1.7863  10.9432   6.2324   N.ar      1 RES1   0.0000
     7 N2      -2.1727   8.9672  10.9313   N.am      1 RES1   0.0000
     8 H1      -1.4948   8.9301  10.3734   H         1 RES1   0.0000
     9 C1      -2.0058  11.5660   5.0697   C.ar      1 RES1   0.0000
    10 H2      -1.2617  11.8890   4.5782   H         1 RES1   0.0000
    11 C2      -3.2955  11.7647   4.5450   C.ar      1 RES1   0.0000
    12 H3      -3.4148  12.2104   3.7148   H         1 RES1   0.0000
    13 C3      -4.3697  11.3060   5.2433   C.ar      1 RES1   0.0000
    14 H4      -5.2462  11.4513   4.9059   H         1 RES1   0.0000
    15 C4      -4.1972  10.6098   6.4812   C.ar      1 RES1   0.0000
    16 C5      -5.2425  10.1043   7.3077   C.ar      1 RES1   0.0000
    17 H5      -6.1442  10.1447   7.0133   H         1 RES1   0.0000
    18 C6      -4.9432   9.5632   8.5209   C.ar      1 RES1   0.0000
    19 H6      -5.6547   9.2354   9.0592   H         1 RES1   0.0000
    20 C7      -3.6097   9.4663   9.0197   C.ar      1 RES1   0.0000
    21 C8      -2.5550   9.8588   8.1994   C.ar      1 RES1   0.0000
    22 C9      -2.8572  10.4693   6.9308   C.ar      1 RES1   0.0000
    23 C10     -3.4419   9.0787  10.4584   C.2       1 RES1   0.0000
    24 C11     -1.9471   8.9091  12.3576   C.3       1 RES1   0.0000
    25 H7      -2.6987   8.3761  12.7456   H         1 RES1   0.0000
    26 C12     -0.6677   8.1758  12.7124   C.3       1 RES1   0.0000
    27 H8      -0.5940   8.0902  13.6965   H         1 RES1   0.0000
    28 H9      -0.6863   7.2649  12.3256   H         1 RES1   0.0000
    29 C13     -1.9937  10.2852  13.0265   C.2       1 RES1   0.0000
    30 O1A      1.5066  10.1623   8.5224   O.3       1 RES1   0.0000
    31 O2A      3.8042   7.8631  11.1888   O.2       1 RES1   0.0000
    32 O3A      0.4860   8.9046  12.1951   O.3       1 RES1   0.0000
    33 O4A      1.3736   9.1401  14.2175   O.2       1 RES1   0.0000
    34 N1A      0.7411   9.1328   6.2324   N.ar      1 RES1   0.0000
    35 N2A      2.6455   9.7861  10.9313   N.am      1 RES1   0.0000
    36 H1A      2.3387  10.3918  10.3734   H         1 RES1   0.0000
    37 C1A      0.3115   8.6313   5.0697   C.ar      1 RES1   0.0000
    38 H2A     -0.3404   9.1142   4.5782   H         1 RES1   0.0000
    39 C2A      0.7842   7.4151   4.5450   C.ar      1 RES1   0.0000
    40 H3A      0.4579   7.0888   3.7148   H         1 RES1   0.0000
    41 C3A      1.7186   6.7141   5.2433   C.ar      1 RES1   0.0000
    42 H4A      2.0310   5.8823   4.9059   H         1 RES1   0.0000
    43 C4A      2.2352   7.2116   6.4812   C.ar      1 RES1   0.0000
    44 C5A      3.1957   6.5591   7.3077   C.ar      1 RES1   0.0000
    45 H5A      3.6116   5.7580   7.0133   H         1 RES1   0.0000
    46 C6A      3.5146   7.0888   8.5209   C.ar      1 RES1   0.0000
    47 H6A      4.1543   6.6366   9.0592   H         1 RES1   0.0000
    48 C7A      2.9318   8.2921   9.0197   C.ar      1 RES1   0.0000
    49 C8A      2.0646   9.0092   8.1994   C.ar      1 RES1   0.0000
    50 C9A      1.6869   8.4423   6.9308   C.ar      1 RES1   0.0000
    51 C10A     3.1836   8.6313  10.4584   C.2       1 RES1   0.0000
    52 C11A     2.5830  10.0106  12.3576   C.3       1 RES1   0.0000
    53 H7A      3.4204   9.6262  12.7456   H         1 RES1   0.0000
    54 C12A     2.5784  11.4852  12.7124   C.3       1 RES1   0.0000
    55 H8A      2.6157  11.5918  13.6965   H         1 RES1   0.0000
    56 H9A      3.3766  11.9246  12.3256   H         1 RES1   0.0000
    57 C13A     1.4146   9.2822  13.0265   C.2       1 RES1   0.0000
    58 O1B     -0.2291  12.3750   8.5224   O.3       1 RES1   0.0000
    59 O2B      0.6132  15.5144  11.1888   O.2       1 RES1   0.0000
    60 O3B      1.3704  12.1200  12.1951   O.3       1 RES1   0.0000
    61 O4B      0.7227  12.7709  14.2175   O.2       1 RES1   0.0000
    62 N1B      1.0452  12.2268   6.2324   N.ar      1 RES1   0.0000
    63 N2B     -0.4728  13.5494  10.9313   N.am      1 RES1   0.0000
    64 H1B     -0.8439  12.9809  10.3734   H         1 RES1   0.0000
    65 C1B      1.6944  12.1055   5.0697   C.ar      1 RES1   0.0000
    66 H2B      1.6020  11.2995   4.5782   H         1 RES1   0.0000
    67 C2B      2.5112  13.1230   4.5450   C.ar      1 RES1   0.0000
    68 H3B      2.9570  13.0035   3.7148   H         1 RES1   0.0000
    69 C3B      2.6511  14.2827   5.2433   C.ar      1 RES1   0.0000
    70 H4B      3.2153  14.9691   4.9059   H         1 RES1   0.0000
    71 C4B      1.9620  14.4813   6.4812   C.ar      1 RES1   0.0000
    72 C5B      2.0468  15.6394   7.3077   C.ar      1 RES1   0.0000
    73 H5B      2.5327  16.4001   7.0133   H         1 RES1   0.0000
    74 C6B      1.4286  15.6507   8.5209   C.ar      1 RES1   0.0000
    75 H6B      1.5004  16.4308   9.0592   H         1 RES1   0.0000
    76 C7B      0.6779  14.5443   9.0197   C.ar      1 RES1   0.0000
    77 C8B      0.4905  13.4347   8.1994   C.ar      1 RES1   0.0000
    78 C9B      1.1703  13.3911   6.9308   C.ar      1 RES1   0.0000
    79 C10B     0.2583  14.5928  10.4584   C.2       1 RES1   0.0000
    80 C11B    -0.6360  13.3830  12.3576   C.3       1 RES1   0.0000
    81 H7B     -0.7218  14.3004  12.7456   H         1 RES1   0.0000
    82 C12B    -1.9107  12.6417  12.7124   C.3       1 RES1   0.0000
    83 H8B     -2.0217  12.6207  13.6965   H         1 RES1   0.0000
    84 H9B     -2.6903  13.1133  12.3256   H         1 RES1   0.0000
    85 C13B     0.5791  12.7354  13.0265   C.2       1 RES1   0.0000
    86 O5      -2.9952   4.7162   5.0290   O.2       2 RES2   0.0000
    87 N3      -3.7309   6.7690   4.3898   N.am      2 RES2   0.0000
    88 C14     -3.1164   5.6142   4.3565   C.2       2 RES2   0.0000
    89 H10     -2.6408   5.5012   3.5424   H         2 RES2   0.0000
    90 C15     -4.8900   6.9516   5.0660   C.3       2 RES2   0.0000
    91 H11     -5.3805   6.1052   5.1091   H         2 RES2   0.0000
    92 H12     -5.4355   7.6218   4.6029   H         2 RES2   0.0000
    93 H13     -4.6923   7.2617   5.9737   H         2 RES2   0.0000
    94 C16     -3.2945   7.8706   3.5424   C.3       2 RES2   0.0000
    95 H14     -2.4310   7.6477   3.1347   H         2 RES2   0.0000
    96 H15     -3.1994   8.6814   4.0843   H         2 RES2   0.0000
    97 H16     -3.9575   8.0240   2.8391   H         2 RES2   0.0000
@<TRIPOS>BOND
     1     1     2    1
     2     2    21    1
     3     3    23    2
     4     4    29    1
     5     5    29    2
     6     6     1    1
     7     7     8    1
     8     9     6   ar
     9    10     9    1
    10    11     9   ar
    11    12    11    1
    12    13    11   ar
    13    14    13    1
    14    15    13   ar
    15    16    15   ar
    16    17    16    1
    17    18    16   ar
    18    19    18    1
    19    20    18   ar
    20    21    20   ar
    21    22     6   ar
    22    23     7   am
    23    24     7    1
    24    25    24    1
    25    26    24    1
    26    27    26    1
    27    28    26    1
    28    29    24    1
    29    30     1    1
    30    31    51    2
    31    32    26    1
    32    33    57    2
    33    34     1    1
    34    35    36    1
    35    37    34   ar
    36    38    37    1
    37    39    37   ar
    38    40    39    1
    39    41    39   ar
    40    42    41    1
    41    43    41   ar
    42    44    43   ar
    43    45    44    1
    44    46    44   ar
    45    47    46    1
    46    48    46   ar
    47    49    30    1
    48    50    34   ar
    49    51    35   am
    50    52    35    1
    51    53    52    1
    52    54    52    1
    53    55    54    1
    54    56    54    1
    55    57    32    1
    56    58     1    1
    57    59    79    2
    58    60    54    1
    59    61    85    2
    60    62     1    1
    61    63    64    1
    62    65    62   ar
    63    66    65    1
    64    67    65   ar
    65    68    67    1
    66    69    67   ar
    67    70    69    1
    68    71    69   ar
    69    72    71   ar
    70    73    72    1
    71    74    72   ar
    72    75    74    1
    73    76    74   ar
    74    77    58    1
    75    78    62   ar
    76    79    63   am
    77    80    63    1
    78    81    80    1
    79    82     4    1
    80    83    82    1
    81    84    82    1
    82    85    60    1
    83    15    22   ar
    84    20    23    1
    85    21    22   ar
    86    43    50   ar
    87    48    49   ar
    88    48    51    1
    89    49    50   ar
    90    52    57    1
    91    71    78   ar
    92    76    77   ar
    93    76    79    1
    94    77    78   ar
    95    80    82    1
    96    80    85    1
    97    86    88    2
    98    87    88   am
    99    88    89    1
   100    90    87    1
   101    91    90    1
   102    92    90    1
   103    93    90    1
   104    94    87    1
   105    95    94    1
   106    96    94    1
   107    97    94    1
@<TRIPOS>SUBSTRUCTURE
     1 RES1        1 GROUP             0 ****  ****    0  
     2 RES2       86 GROUP             0 ****  ****    0  
@<TRIPOS>CRYSIN
   18.6500   18.6500   12.3170   90.0000   90.0000  120.0000   232     1
