@<TRIPOS>MOLECULE
BUBFAF10
    59    70     1     0     0
SMALL
NO_CHARGES
****
Generated from the CSD

@<TRIPOS>ATOM
     1 Fe1      0.0000   0.0000   0.0000   Fe        1 RES1   0.0000
     2 Cl1     -0.4063   0.4692  -3.2097   Cl        1 RES1   0.0000
     3 O1      -0.5533   0.9384  -1.7866   O.3       1 RES1   0.0000
     4 O2      -0.9174   1.4662  -4.0510   O.2       1 RES1   0.0000
     5 O3       0.9805   0.2346  -3.3551   O.2       1 RES1   0.0000
     6 O4      -1.1993  -0.6891  -3.4070   O.2       1 RES1   0.0000
     7 N1      -0.4997   1.7301   0.9556   N.2       1 RES1   0.0000
     8 N2      -1.8962  -0.7038   0.2389   N.2       1 RES1   0.0000
     9 C1       0.3258   2.7565   1.2361   C.2       1 RES1   0.0000
    10 C2      -0.3805   3.8414   1.9736   C.2       1 RES1   0.0000
    11 C3      -1.6784   3.3576   2.1294   C.2       1 RES1   0.0000
    12 C4      -1.7240   2.1113   1.4854   C.2       1 RES1   0.0000
    13 C5      -2.8443   1.2463   1.4750   C.2       1 RES1   0.0000
    14 C6      -2.9951  -0.0440   0.8414   C.2       1 RES1   0.0000
    15 C7      -4.2127  -0.7331   0.6440   C.2       1 RES1   0.0000
    16 C8      -3.9188  -1.8914  -0.0935   C.2       1 RES1   0.0000
    17 C9      -2.4472  -1.8181  -0.3012   C.2       1 RES1   0.0000
    18 C10      1.7368   2.8151   1.0283   C.2       1 RES1   0.0000
    19 C11     -4.0438   1.6861   2.3164   C.ar      1 RES1   0.0000
    20 C12     -4.7115   2.8298   2.0671   C.ar      1 RES1   0.0000
    21 C13     -5.8667   3.1963   2.8357   C.ar      1 RES1   0.0000
    22 C14     -6.2449   2.3459   3.8848   C.ar      1 RES1   0.0000
    23 C15     -5.5123   1.1876   4.1757   C.ar      1 RES1   0.0000
    24 C16     -4.3896   0.7624   3.3863   C.ar      1 RES1   0.0000
    25 C17      2.4941   3.9294   1.5996   C.ar      1 RES1   0.0000
    26 C18      3.1477   4.9264   0.7894   C.ar      1 RES1   0.0000
    27 C19      3.8322   5.9674   1.3607   C.ar      1 RES1   0.0000
    28 C20      3.9399   6.0994   2.7526   C.ar      1 RES1   0.0000
    29 C21      3.2984   5.1024   3.5628   C.ar      1 RES1   0.0000
    30 C22      2.6139   4.0467   2.9915   C.ar      1 RES1   0.0000
    31 O1B      0.5533  -0.9384   1.7866   O.3       1 RES1   0.0000
    32 N1B      0.4997  -1.7301  -0.9556   N.2       1 RES1   0.0000
    33 N2B      1.8962   0.7038  -0.2389   N.2       1 RES1   0.0000
    34 C10B    -1.7368  -2.8151  -1.0283   C.2       1 RES1   0.0000
    35 C9B      2.4472   1.8181   0.3012   C.2       1 RES1   0.0000
    36 Cl1B     0.4063  -0.4692   3.2097   Cl        1 RES1   0.0000
    37 C1B     -0.3258  -2.7565  -1.2361   C.2       1 RES1   0.0000
    38 C4B      1.7240  -2.1113  -1.4854   C.2       1 RES1   0.0000
    39 C6B      2.9951   0.0440  -0.8414   C.2       1 RES1   0.0000
    40 C17B    -2.4941  -3.9294  -1.5996   C.ar      1 RES1   0.0000
    41 C8B      3.9188   1.8914   0.0935   C.2       1 RES1   0.0000
    42 O2B      0.9174  -1.4662   4.0510   O.2       1 RES1   0.0000
    43 O3B     -0.9805  -0.2346   3.3551   O.2       1 RES1   0.0000
    44 O4B      1.1993   0.6891   3.4070   O.2       1 RES1   0.0000
    45 C2B      0.3805  -3.8414  -1.9736   C.2       1 RES1   0.0000
    46 C3B      1.6784  -3.3576  -2.1294   C.2       1 RES1   0.0000
    47 C5B      2.8443  -1.2463  -1.4750   C.2       1 RES1   0.0000
    48 C7B      4.2127   0.7331  -0.6440   C.2       1 RES1   0.0000
    49 C18B    -3.1477  -4.9264  -0.7894   C.ar      1 RES1   0.0000
    50 C22B    -2.6139  -4.0467  -2.9915   C.ar      1 RES1   0.0000
    51 C11B     4.0438  -1.6861  -2.3164   C.ar      1 RES1   0.0000
    52 C19B    -3.8322  -5.9674  -1.3607   C.ar      1 RES1   0.0000
    53 C21B    -3.2984  -5.1024  -3.5628   C.ar      1 RES1   0.0000
    54 C12B     4.7115  -2.8298  -2.0671   C.ar      1 RES1   0.0000
    55 C16B     4.3896  -0.7624  -3.3863   C.ar      1 RES1   0.0000
    56 C20B    -3.9399  -6.0994  -2.7526   C.ar      1 RES1   0.0000
    57 C13B     5.8667  -3.1963  -2.8357   C.ar      1 RES1   0.0000
    58 C15B     5.5123  -1.1876  -4.1757   C.ar      1 RES1   0.0000
    59 C14B     6.2449  -2.3459  -3.8848   C.ar      1 RES1   0.0000
@<TRIPOS>BOND
     1     1     3    1
     2     2     3    1
     3     4     2    2
     4     5     2    2
     5     6     2    2
     6     7     1    1
     7     8     1    1
     8     9     7    2
     9    10     9    1
    10    11    10    2
    11    12     7    1
    12    13    12    2
    13    14     8    1
    14    15    14    2
    15    16    15    1
    16    17     8    1
    17    18     9    1
    18    19    13    1
    19    20    19   ar
    20    21    20   ar
    21    22    21   ar
    22    23    22   ar
    23    24    19   ar
    24    25    18    1
    25    26    25   ar
    26    27    26   ar
    27    28    27   ar
    28    29    28   ar
    29    30    25   ar
    30    31     1    1
    31    32     1    1
    32    33     1    1
    33    34    17    1
    34    35    18    2
    35    36    31    1
    36    37    32    1
    37    38    32    2
    38    39    33    1
    39    40    34    1
    40    41    35    1
    41    42    36    2
    42    43    36    2
    43    44    36    2
    44    45    37    1
    45    46    38    1
    46    47    38    1
    47    48    39    1
    48    49    40   ar
    49    50    40   ar
    50    51    47    1
    51    52    49   ar
    52    53    50   ar
    53    54    51   ar
    54    55    51   ar
    55    56    52   ar
    56    57    54   ar
    57    58    55   ar
    58    59    57   ar
    59    11    12    1
    60    13    14    1
    61    16    17    2
    62    23    24   ar
    63    29    30   ar
    64    33    35    1
    65    34    37    2
    66    39    47    2
    67    41    48    2
    68    45    46    2
    69    53    56   ar
    70    58    59   ar
@<TRIPOS>SUBSTRUCTURE
     1 RES1        1 GROUP             0 ****  ****    0  
@<TRIPOS>CRYSIN
   12.1320   14.6620   13.1530   90.0000  127.8400   90.0000    14     1
