@<TRIPOS>MOLECULE
BUBFAF
    59    70     1     0     0
SMALL
NO_CHARGES
****
Generated from the CSD

@<TRIPOS>ATOM
     1 Fe1      0.0000   0.0000   0.0000   Fe        1 RES1   0.0000
     2 Cl1     -0.3348   0.4679  -3.3017   Cl        1 RES1   0.0000
     3 O1      -0.5135   0.9358  -1.8378   O.3       1 RES1   0.0000
     4 O2      -0.8272   1.4622  -4.1672   O.2       1 RES1   0.0000
     5 O3       1.0552   0.2340  -3.4513   O.2       1 RES1   0.0000
     6 O4      -1.1234  -0.6872  -3.5047   O.2       1 RES1   0.0000
     7 N1      -0.5210   1.7254   0.9830   N.2       1 RES1   0.0000
     8 N2      -1.9015  -0.7019   0.2458   N.2       1 RES1   0.0000
     9 C1       0.2983   2.7489   1.2715   C.2       1 RES1   0.0000
    10 C2      -0.4245   3.8310   2.0302   C.2       1 RES1   0.0000
    11 C3      -1.7258   3.3484   2.1904   C.2       1 RES1   0.0000
    12 C4      -1.7571   2.1056   1.5280   C.2       1 RES1   0.0000
    13 C5      -2.8771   1.2429   1.5173   C.2       1 RES1   0.0000
    14 C6      -3.0138  -0.0439   0.8655   C.2       1 RES1   0.0000
    15 C7      -4.2270  -0.7311   0.6625   C.2       1 RES1   0.0000
    16 C8      -3.9167  -1.8862  -0.0962   C.2       1 RES1   0.0000
    17 C9      -2.4405  -1.8131  -0.3099   C.2       1 RES1   0.0000
    18 C10      1.7139   2.8074   1.0578   C.2       1 RES1   0.0000
    19 C11     -4.0953   1.6815   2.3828   C.ar      1 RES1   0.0000
    20 C12     -4.7575   2.8220   2.1263   C.ar      1 RES1   0.0000
    21 C13     -5.9298   3.1876   2.9170   C.ar      1 RES1   0.0000
    22 C14     -6.3313   2.3395   3.9962   C.ar      1 RES1   0.0000
    23 C15     -5.6053   1.1844   4.2954   C.ar      1 RES1   0.0000
    24 C16     -4.4650   0.7603   3.4833   C.ar      1 RES1   0.0000
    25 C17      2.4584   3.9187   1.6455   C.ar      1 RES1   0.0000
    26 C18      3.1301   4.9130   0.8121   C.ar      1 RES1   0.0000
    27 C19      3.8019   5.9512   1.3997   C.ar      1 RES1   0.0000
    28 C20      3.8786   6.0828   2.8315   C.ar      1 RES1   0.0000
    29 C21      3.2191   5.0885   3.6650   C.ar      1 RES1   0.0000
    30 C22      2.5473   4.0357   3.0773   C.ar      1 RES1   0.0000
    31 O1B      0.5135  -0.9358   1.8378   O.3       1 RES1   0.0000
    32 N1B      0.5210  -1.7254  -0.9830   N.2       1 RES1   0.0000
    33 N2B      1.9015   0.7019  -0.2458   N.2       1 RES1   0.0000
    34 C10B    -1.7139  -2.8074  -1.0578   C.2       1 RES1   0.0000
    35 C9B      2.4405   1.8131   0.3099   C.2       1 RES1   0.0000
    36 Cl1B     0.3348  -0.4679   3.3017   Cl        1 RES1   0.0000
    37 C1B     -0.2983  -2.7489  -1.2715   C.2       1 RES1   0.0000
    38 C4B      1.7571  -2.1056  -1.5280   C.2       1 RES1   0.0000
    39 C6B      3.0138   0.0439  -0.8655   C.2       1 RES1   0.0000
    40 C17B    -2.4584  -3.9187  -1.6455   C.ar      1 RES1   0.0000
    41 C8B      3.9167   1.8862   0.0962   C.2       1 RES1   0.0000
    42 O2B      0.8272  -1.4622   4.1672   O.2       1 RES1   0.0000
    43 O3B     -1.0552  -0.2340   3.4513   O.2       1 RES1   0.0000
    44 O4B      1.1234   0.6872   3.5047   O.2       1 RES1   0.0000
    45 C2B      0.4245  -3.8310  -2.0302   C.2       1 RES1   0.0000
    46 C3B      1.7258  -3.3484  -2.1904   C.2       1 RES1   0.0000
    47 C5B      2.8771  -1.2429  -1.5173   C.2       1 RES1   0.0000
    48 C7B      4.2270   0.7311  -0.6625   C.2       1 RES1   0.0000
    49 C18B    -3.1301  -4.9130  -0.8121   C.ar      1 RES1   0.0000
    50 C22B    -2.5473  -4.0357  -3.0773   C.ar      1 RES1   0.0000
    51 C11B     4.0953  -1.6815  -2.3828   C.ar      1 RES1   0.0000
    52 C19B    -3.8019  -5.9512  -1.3997   C.ar      1 RES1   0.0000
    53 C21B    -3.2191  -5.0885  -3.6650   C.ar      1 RES1   0.0000
    54 C12B     4.7575  -2.8220  -2.1263   C.ar      1 RES1   0.0000
    55 C16B     4.4650  -0.7603  -3.4833   C.ar      1 RES1   0.0000
    56 C20B    -3.8786  -6.0828  -2.8315   C.ar      1 RES1   0.0000
    57 C13B     5.9298  -3.1876  -2.9170   C.ar      1 RES1   0.0000
    58 C15B     5.6053  -1.1844  -4.2954   C.ar      1 RES1   0.0000
    59 C14B     6.3313  -2.3395  -3.9962   C.ar      1 RES1   0.0000
@<TRIPOS>BOND
     1     1     3    1
     2     2     3    1
     3     4     2    2
     4     5     2    2
     5     6     2    2
     6     7     1    1
     7     8     1    1
     8     9     7    1
     9    10     9    1
    10    11    10    2
    11    12     7    1
    12    13    12    2
    13    14     8    2
    14    15    14    1
    15    16    15    2
    16    17     8    1
    17    18     9    2
    18    19    13    1
    19    20    19   ar
    20    21    20   ar
    21    22    21   ar
    22    23    22   ar
    23    24    19   ar
    24    25    18    1
    25    26    25   ar
    26    27    26   ar
    27    28    27   ar
    28    29    28   ar
    29    30    25   ar
    30    31     1    1
    31    32     1    1
    32    33     1    1
    33    34    17    2
    34    35    18    1
    35    36    31    1
    36    37    32    1
    37    38    32    1
    38    39    33    1
    39    40    34    1
    40    41    35    1
    41    42    36    2
    42    43    36    2
    43    44    36    2
    44    45    37    2
    45    46    38    2
    46    47    38    1
    47    48    39    1
    48    49    40   ar
    49    50    40   ar
    50    51    47    1
    51    52    49   ar
    52    53    50   ar
    53    54    51   ar
    54    55    51   ar
    55    56    52   ar
    56    57    54   ar
    57    58    55   ar
    58    59    57   ar
    59    11    12    1
    60    13    14    1
    61    16    17    1
    62    23    24   ar
    63    29    30   ar
    64    33    35    2
    65    34    37    1
    66    39    47    2
    67    41    48    2
    68    45    46    1
    69    53    56   ar
    70    58    59   ar
@<TRIPOS>SUBSTRUCTURE
     1 RES1        1 GROUP             0 ****  ****    0  
@<TRIPOS>CRYSIN
   12.1320   14.6220   13.5300   90.0000  127.8400   90.0000    14     1
