@<TRIPOS>MOLECULE
BUCDOS
    91    94     1     0     0
SMALL
NO_CHARGES
****
Generated from the CSD

@<TRIPOS>ATOM
     1 C1       3.5517  -3.2551   1.0756   C.2       1 RES1   0.0000
     2 C2       3.2837  -4.6669   0.6691   C.2       1 RES1   0.0000
     3 O1       2.3036  -5.2558   0.9997   O.2       1 RES1   0.0000
     4 O2       4.2380  -5.1812  -0.0906   O.3       1 RES1   0.0000
     5 C3       3.9913  -6.5304  -0.5378   C.3       1 RES1   0.0000
     6 C4       2.8924  -2.1378   0.5808   C.2       1 RES1   0.0000
     7 C5       2.0705  -2.1862  -0.6137   C.2       1 RES1   0.0000
     8 O3       1.1491  -1.4440  -0.9261   O.2       1 RES1   0.0000
     9 O4       2.3911  -3.1986  -1.4017   O.3       1 RES1   0.0000
    10 C6       1.6531  -3.3297  -2.6380   C.3       1 RES1   0.0000
    11 C7       3.2140  -1.0245   1.4334   C.2       1 RES1   0.0000
    12 C8       2.7317   0.3348   1.3700   C.2       1 RES1   0.0000
    13 O5       1.7640   0.7422   0.7348   O.2       1 RES1   0.0000
    14 O6       3.4278   1.1818   2.1127   O.3       1 RES1   0.0000
    15 C9       2.8896   2.5149   2.2519   C.3       1 RES1   0.0000
    16 C10      4.0873  -1.5005   2.4161   C.2       1 RES1   0.0000
    17 C11      4.7255  -0.7119   3.5087   C.2       1 RES1   0.0000
    18 O7       5.8608  -0.3187   3.5030   O.2       1 RES1   0.0000
    19 O8       3.8858  -0.5082   4.5197   O.3       1 RES1   0.0000
    20 C12      4.4273   0.2037   5.6531   C.3       1 RES1   0.0000
    21 C13      4.2887  -2.8800   2.2157   C.2       1 RES1   0.0000
    22 C14      4.9786  -3.8279   3.0694   C.2       1 RES1   0.0000
    23 O9       5.1396  -4.9956   2.8316   O.2       1 RES1   0.0000
    24 O10      5.4231  -3.2571   4.2050   O.3       1 RES1   0.0000
    25 C15      6.0541  -4.1284   5.1685   C.3       1 RES1   0.0000
    26 Fe1      0.0000   0.0000   0.0000   Fe        1 RES1   0.0000
    27 O11     -0.3584  -1.0931   1.8183   O.3       1 RES1   0.0000
    28 C16     -0.3265  -2.4827   1.9508   C.3       1 RES1   0.0000
    29 H1       3.8892  -7.0991   0.2264   H         1 RES1   0.0000
    30 H2       3.1787  -6.5546  -1.0416   H         1 RES1   0.0000
    31 H3       4.6712  -6.9176  -1.0869   H         1 RES1   0.0000
    32 H4       0.7105  -3.4286  -2.4229   H         1 RES1   0.0000
    33 H5       1.7375  -2.5412  -3.1475   H         1 RES1   0.0000
    34 H6       1.8540  -4.0538  -3.2268   H         1 RES1   0.0000
    35 H7       2.8051   2.9042   1.3926   H         1 RES1   0.0000
    36 H8       2.0245   2.4605   2.6493   H         1 RES1   0.0000
    37 H9       3.3811   3.1462   2.7965   H         1 RES1   0.0000
    38 H10      5.1798  -0.2622   6.0007   H         1 RES1   0.0000
    39 H11      4.7368   1.0689   5.3553   H         1 RES1   0.0000
    40 H12      3.8370   0.3630   6.3856   H         1 RES1   0.0000
    41 H13      5.4294  -4.8000   5.4232   H         1 RES1   0.0000
    42 H14      6.8039  -4.5378   4.7552   H         1 RES1   0.0000
    43 H15      6.3744  -3.7311   5.9780   H         1 RES1   0.0000
    44 H16     -0.9777  -2.8437   1.3020   H         1 RES1   0.0000
    45 H17      0.5374  -2.7832   1.6304   H         1 RES1   0.0000
    46 H18     -0.4883  -3.0050   2.7173   H         1 RES1   0.0000
    47 O3B     -1.1491   1.4440   0.9261   O.2       1 RES1   0.0000
    48 O5B     -1.7640  -0.7422  -0.7348   O.2       1 RES1   0.0000
    49 O11B     0.3584   1.0931  -1.8183   O.3       1 RES1   0.0000
    50 C5B     -2.0705   2.1862   0.6137   C.2       1 RES1   0.0000
    51 C8B     -2.7317  -0.3348  -1.3700   C.2       1 RES1   0.0000
    52 C16B     0.3265   2.4827  -1.9508   C.3       1 RES1   0.0000
    53 C4B     -2.8924   2.1378  -0.5808   C.2       1 RES1   0.0000
    54 O4B     -2.3911   3.1986   1.4017   O.3       1 RES1   0.0000
    55 C7B     -3.2140   1.0245  -1.4334   C.2       1 RES1   0.0000
    56 O6B     -3.4278  -1.1818  -2.1127   O.3       1 RES1   0.0000
    57 H16B     0.9777   2.8437  -1.3020   H         1 RES1   0.0000
    58 H17B    -0.5374   2.7832  -1.6304   H         1 RES1   0.0000
    59 H18B     0.4883   3.0050  -2.7173   H         1 RES1   0.0000
    60 C1B     -3.5517   3.2551  -1.0756   C.2       1 RES1   0.0000
    61 C6B     -1.6531   3.3297   2.6380   C.3       1 RES1   0.0000
    62 C10B    -4.0873   1.5005  -2.4161   C.2       1 RES1   0.0000
    63 C9B     -2.8896  -2.5149  -2.2519   C.3       1 RES1   0.0000
    64 C2B     -3.2837   4.6669  -0.6691   C.2       1 RES1   0.0000
    65 C13B    -4.2887   2.8800  -2.2157   C.2       1 RES1   0.0000
    66 H4B     -0.7105   3.4286   2.4229   H         1 RES1   0.0000
    67 H5B     -1.7375   2.5412   3.1475   H         1 RES1   0.0000
    68 H6B     -1.8540   4.0538   3.2268   H         1 RES1   0.0000
    69 C11B    -4.7255   0.7119  -3.5087   C.2       1 RES1   0.0000
    70 H7B     -2.8051  -2.9042  -1.3926   H         1 RES1   0.0000
    71 H8B     -2.0245  -2.4605  -2.6493   H         1 RES1   0.0000
    72 H9B     -3.3811  -3.1462  -2.7965   H         1 RES1   0.0000
    73 O1B     -2.3036   5.2558  -0.9997   O.2       1 RES1   0.0000
    74 O2B     -4.2380   5.1812   0.0906   O.3       1 RES1   0.0000
    75 C14B    -4.9786   3.8279  -3.0694   C.2       1 RES1   0.0000
    76 O7B     -5.8608   0.3187  -3.5030   O.2       1 RES1   0.0000
    77 O8B     -3.8858   0.5082  -4.5197   O.3       1 RES1   0.0000
    78 C3B     -3.9913   6.5304   0.5378   C.3       1 RES1   0.0000
    79 O9B     -5.1396   4.9956  -2.8316   O.2       1 RES1   0.0000
    80 O10B    -5.4231   3.2571  -4.2050   O.3       1 RES1   0.0000
    81 C12B    -4.4273  -0.2037  -5.6531   C.3       1 RES1   0.0000
    82 H1B     -3.8892   7.0991  -0.2264   H         1 RES1   0.0000
    83 H2B     -3.1787   6.5546   1.0416   H         1 RES1   0.0000
    84 H3B     -4.6712   6.9176   1.0869   H         1 RES1   0.0000
    85 C15B    -6.0541   4.1284  -5.1685   C.3       1 RES1   0.0000
    86 H10B    -5.1798   0.2622  -6.0007   H         1 RES1   0.0000
    87 H11B    -4.7368  -1.0689  -5.3553   H         1 RES1   0.0000
    88 H12B    -3.8370  -0.3630  -6.3856   H         1 RES1   0.0000
    89 H13B    -5.4294   4.8000  -5.4232   H         1 RES1   0.0000
    90 H14B    -6.8039   4.5378  -4.7552   H         1 RES1   0.0000
    91 H15B    -6.3744   3.7311  -5.9780   H         1 RES1   0.0000
@<TRIPOS>BOND
     1     1     2    1
     2     2     3    2
     3     4     2    1
     4     5     4    1
     5     6     1   un
     6     7     6   un
     7     8     7   un
     8     9     7    1
     9    10     9    1
    10    11     6    1
    11    12    11   un
    12    13    12   un
    13    14    12    1
    14    15    14    1
    15    16    11   un
    16    17    16    1
    17    18    17    2
    18    19    17    1
    19    20    19    1
    20    21     1   un
    21    22    21    1
    22    23    22    2
    23    24    22    1
    24    25    24    1
    25    26     8    1
    26    27    26    1
    27    28    27    1
    28    29     5    1
    29    30     5    1
    30    31     5    1
    31    32    10    1
    32    33    10    1
    33    34    10    1
    34    35    15    1
    35    36    15    1
    36    37    15    1
    37    38    20    1
    38    39    20    1
    39    40    20    1
    40    41    25    1
    41    42    25    1
    42    43    25    1
    43    44    28    1
    44    45    28    1
    45    46    28    1
    46    47    26    1
    47    48    26    1
    48    49    26    1
    49    50    47   un
    50    51    48   un
    51    52    49    1
    52    53    50   un
    53    54    50    1
    54    55    51   un
    55    56    51    1
    56    57    52    1
    57    58    52    1
    58    59    52    1
    59    60    53   un
    60    61    54    1
    61    62    55   un
    62    63    56    1
    63    64    60    1
    64    65    60   un
    65    66    61    1
    66    67    61    1
    67    68    61    1
    68    69    62    1
    69    70    63    1
    70    71    63    1
    71    72    63    1
    72    73    64    2
    73    74    64    1
    74    75    65    1
    75    76    69    2
    76    77    69    1
    77    78    74    1
    78    79    75    2
    79    80    75    1
    80    81    77    1
    81    82    78    1
    82    83    78    1
    83    84    78    1
    84    85    80    1
    85    86    81    1
    86    87    81    1
    87    88    81    1
    88    89    85    1
    89    90    85    1
    90    91    85    1
    91    13    26    1
    92    16    21   un
    93    53    55    1
    94    62    65   un
@<TRIPOS>SUBSTRUCTURE
     1 RES1        1 GROUP             0 ****  ****    0  
@<TRIPOS>CRYSIN
    8.3040   20.1680   11.8780   90.0000  107.6000   90.0000    14     1
