@<TRIPOS>MOLECULE
BUHQUQ
    80    80     5     0     0
SMALL
USER_CHARGES
****
Generated from the CSD

@<TRIPOS>ATOM
     1 Fe1      7.5196   5.3591   1.7342   Fe        1 RES1   0.0000
     2 O1       8.0294   3.4730   1.9942   O.3       1 RES1   0.0000
     3 O2       7.9485   5.8503   3.6164   O.3       1 RES1   0.0000
     4 O3       5.5916   5.0696   1.9953   O.3       1 RES1   0.0000
     5 O6       6.8690   5.2032  -0.1940   O.2       1 RES1   0.0000
     6 O7       7.4519   7.4383   1.6787   O.2       1 RES1   0.0000
     7 O8       9.4104   5.3705   0.9784   O.2       1 RES1   0.0000
     8 O10     10.3800   1.8719   3.7497   O.2       1 RES1   0.0000
     9 O11      5.7981   7.0247   5.8515   O.2       1 RES1   0.0000
    10 O12      3.5174   2.2419   1.0989   O.2       1 RES1   0.0000
    11 N1       5.8648   2.2642   5.5797   N.4       1 RES1   1.0000
    12 N2       8.8977   0.2740   3.1986   N.am      1 RES1   0.0000
    13 N3       7.4490   6.0911   7.0836   N.am      1 RES1   0.0000
    14 N4       2.6999   3.3635   2.8565   N.am      1 RES1   0.0000
    15 N5       7.8452   7.2118   3.8584   N.am      1 RES1   0.0000
    16 N6       9.2815   3.1954   1.4581   N.am      1 RES1   0.0000
    17 N7       4.9273   4.8359   0.8100   N.am      1 RES1   0.0000
    18 C1       7.2318   1.7581   5.1651   C.3       1 RES1   0.0000
    19 C2       5.9614   3.6922   6.0817   C.3       1 RES1   0.0000
    20 C3       4.8749   2.1745   4.4659   C.3       1 RES1   0.0000
    21 C5       7.2873   0.2558   5.0415   C.3       1 RES1   0.0000
    22 C6       3.4464   2.2570   4.8933   C.3       1 RES1   0.0000
    23 C7       6.5671   3.8044   7.4663   C.3       1 RES1   0.0000
    24 C8       6.6020   5.2620   7.9331   C.3       1 RES1   0.0000
    25 C9       2.4987   2.1994   3.7198   C.3       1 RES1   0.0000
    26 C10      8.6553  -0.2168   4.5522   C.3       1 RES1   0.0000
    27 C11      9.6935   1.3266   2.9172   C.2       1 RES1   0.0000
    28 C12      3.2369   3.3062   1.6403   C.2       1 RES1   0.0000
    29 C13      6.9874   6.8715   6.1073   C.2       1 RES1   0.0000
    30 C14      8.0460   7.5739   5.2461   C.3       1 RES1   0.0000
    31 C15      3.5100   4.6364   0.9678   C.3       1 RES1   0.0000
    32 C16      9.6375   1.8024   1.4933   C.3       1 RES1   0.0000
    33 C17      9.9418   4.2274   0.9518   C.2       1 RES1   0.0000
    34 C18      5.6381   4.9081  -0.3059   C.2       1 RES1   0.0000
    35 C19      7.5911   7.9961   2.8298   C.2       1 RES1   0.0000
    36 C20      7.4768   9.4835   2.9716   C.3       1 RES1   0.0000
    37 C21      5.0840   4.5648  -1.6339   C.3       1 RES1   0.0000
    38 C22     11.2906   4.0431   0.3421   C.3       1 RES1   0.0000
    39 H1       2.6509   4.3186   3.2519   H         1 RES1   0.0000
    40 H2       8.2054   6.1357   7.3416   H         1 RES1   0.0000
    41 H3       8.2772  -0.1207   2.6998   H         1 RES1   0.0000
    42 H4       7.4539   2.1404   4.3242   H         1 RES1   0.0000
    43 H5       6.5007   4.1880   5.4763   H         1 RES1   0.0000
    44 H6       5.0449   2.8867   3.8605   H         1 RES1   0.0000
    45 H7       5.6263   1.5943   6.1148   H         1 RES1   0.0000
    46 H8       7.8672   2.0334   5.8153   H         1 RES1   0.0000
    47 H9       5.0047   1.3441   4.0225   H         1 RES1   0.0000
    48 H10      5.0875   4.0641   6.1041   H         1 RES1   0.0000
    49 H11      6.0458   3.2952   8.0759   H         1 RES1   0.0000
    50 H12      3.2583   1.5290   5.4753   H         1 RES1   0.0000
    51 H13      7.1128  -0.1302   5.8920   H         1 RES1   0.0000
    52 H14      6.6233  -0.0281   4.4243   H         1 RES1   0.0000
    53 H15      3.3120   3.0751   5.3559   H         1 RES1   0.0000
    54 H16      7.4533   3.4623   7.4460   H         1 RES1   0.0000
    55 H17      6.9385   5.2921   8.8210   H         1 RES1   0.0000
    56 H18      1.6036   2.1951   4.0374   H         1 RES1   0.0000
    57 H19      8.6785  -1.1670   4.5522   H         1 RES1   0.0000
    58 H20      9.3292   0.1150   5.1331   H         1 RES1   0.0000
    59 H21      2.6623   1.4070   3.2221   H         1 RES1   0.0000
    60 H22      5.7187   5.6104   7.9171   H         1 RES1   0.0000
    61 H23      8.9138   7.3025   5.5232   H         1 RES1   0.0000
    62 H24      3.1530   5.3365   1.5018   H         1 RES1   0.0000
    63 H25      8.9880   1.2983   1.0190   H         1 RES1   0.0000
    64 H26     10.4890   1.6837   1.0882   H         1 RES1   0.0000
    65 H27      3.0951   4.6472   0.1140   H         1 RES1   0.0000
    66 H28      7.9632   8.5142   5.3452   H         1 RES1   0.0000
    67 H29      7.5380   9.7205   3.8893   H         1 RES1   0.0000
    68 H30      4.1491   4.4124  -1.5572   H         1 RES1   0.0000
    69 H31     11.4750   3.1156   0.2579   H         1 RES1   0.0000
    70 H32     11.3071   4.4494  -0.5159   H         1 RES1   0.0000
    71 H33      5.2396   5.2819  -2.2372   H         1 RES1   0.0000
    72 H34      8.1804   9.9032   2.4888   H         1 RES1   0.0000
    73 H35      6.6400   9.7723   2.6252   H         1 RES1   0.0000
    74 H36      5.5077   3.7800  -1.9601   H         1 RES1   0.0000
    75 H37     11.9469   4.4479   0.8974   H         1 RES1   0.0000
    76 Cl1      4.9493   0.3675   7.8287   Cl        2 RES2  -1.0000
    77 O4       7.9490   0.7815   8.6312   O.3       3 RES3   0.0000
    78 C4       8.5641  -0.4120   8.7826   C.2       3 RES3   0.0000
    79 O5       2.0021   0.0059   9.4029   O.3       4 RES4   0.0000
    80 O9       3.8875   6.0270   4.0012   O.3       5 RES5   0.0000
@<TRIPOS>BOND
     1     1     2    1
     2     2    16    1
     3     3     1    1
     4     4     1    1
     5     5     1    1
     6     6     1    1
     7     7     1    1
     8     8    27    2
     9     9    29    2
    10    10    28    2
    11    11    18    1
    12    12    26    1
    13    13    24    1
    14    14    25    1
    15    15     3    1
    16    16    32    1
    17    17     4    1
    18    18    21    1
    19    19    11    1
    20    20    11    1
    21    21    26    1
    22    22    20    1
    23    23    19    1
    24    24    23    1
    25    25    22    1
    26    26    57    1
    27    27    12   am
    28    28    14   am
    29    29    13   am
    30    30    15    1
    31    31    17    1
    32    32    27    1
    33    33     7    2
    34    34     5    2
    35    35     6    2
    36    36    35    1
    37    37    34    1
    38    38    33    1
    39    39    14    1
    40    40    13    1
    41    41    12    1
    42    42    18    1
    43    43    19    1
    44    44    20    1
    45    45    11    1
    46    46    18    1
    47    47    20    1
    48    48    19    1
    49    49    23    1
    50    50    22    1
    51    51    21    1
    52    52    21    1
    53    53    22    1
    54    54    23    1
    55    55    24    1
    56    56    25    1
    57    58    26    1
    58    59    25    1
    59    60    24    1
    60    61    30    1
    61    62    31    1
    62    63    32    1
    63    64    32    1
    64    65    31    1
    65    66    30    1
    66    67    36    1
    67    68    37    1
    68    69    38    1
    69    70    38    1
    70    71    37    1
    71    72    36    1
    72    73    36    1
    73    74    37    1
    74    75    38    1
    75    15    35   am
    76    16    33   am
    77    17    34   am
    78    28    31    1
    79    29    30    1
    80    77    78    1
@<TRIPOS>SUBSTRUCTURE
     1 RES1        1 GROUP             0 ****  ****    0  
     2 RES2       76 GROUP             0 ****  ****    0  
     3 RES3       77 GROUP             0 ****  ****    0  
     4 RES4       79 GROUP             0 ****  ****    0  
     5 RES5       80 GROUP             0 ****  ****    0  
@<TRIPOS>CRYSIN
   11.7110   13.2850   10.9740   93.0400  102.5600  101.1400     2     1
