@<TRIPOS>MOLECULE
BUJQII
    83    82     1     0     0
SMALL
NO_CHARGES
****
Generated from the CSD

@<TRIPOS>ATOM
     1 Fe1      8.0101   7.8209  12.1384   Fe        1 RES1   0.0000
     2 P1       8.7992   7.5152  14.1904   P.3       1 RES1   0.0000
     3 P2       7.6349   5.6364  11.9184   P.3       1 RES1   0.0000
     4 P3       7.9029   8.1184   9.9289   P.3       1 RES1   0.0000
     5 P4       7.7009   9.9939  12.5108   P.3       1 RES1   0.0000
     6 C1       9.9180   7.8449  11.7386   C.1       1 RES1   0.0000
     7 C2       6.1121   7.8021  12.5489   C.1       1 RES1   0.0000
     8 C3      11.1139   7.8515  11.4883   C.1       1 RES1   0.0000
     9 C4      12.5621   7.8475  11.1861   C.3       1 RES1   0.0000
    10 C5      12.7747   8.1088   9.6763   C.3       1 RES1   0.0000
    11 H1      12.4066   7.3599   9.1614   H         1 RES1   0.0000
    12 H2      13.7335   8.1929   9.4913   H         1 RES1   0.0000
    13 H3      12.3167   8.9365   9.4210   H         1 RES1   0.0000
    14 C6      13.1716   6.4986  11.5281   C.3       1 RES1   0.0000
    15 H4      13.0720   6.3293  12.4878   H         1 RES1   0.0000
    16 H5      14.1225   6.5017  11.2931   H         1 RES1   0.0000
    17 H6      12.7117   5.7950  11.0237   H         1 RES1   0.0000
    18 C7      13.2632   8.9607  11.9512   C.3       1 RES1   0.0000
    19 H7      12.8563   9.8220  11.7206   H         1 RES1   0.0000
    20 H8      14.2131   8.9733  11.7128   H         1 RES1   0.0000
    21 H9      13.1716   8.8039  12.9134   H         1 RES1   0.0000
    22 C8       4.9206   7.8050  12.8265   C.1       1 RES1   0.0000
    23 C9       3.4892   7.8175  13.2111   C.3       1 RES1   0.0000
    24 C10      2.8324   9.1058  12.7111   C.3       1 RES1   0.0000
    25 H10      3.3064   9.8799  13.0832   H         1 RES1   0.0000
    26 H11      1.8954   9.1279  12.9973   H         1 RES1   0.0000
    27 H12      2.8748   9.1363  11.7323   H         1 RES1   0.0000
    28 C11      2.7791   6.6048  12.6317   C.3       1 RES1   0.0000
    29 H13      2.8934   6.5943  11.6581   H         1 RES1   0.0000
    30 H14      1.8244   6.6521  12.8489   H         1 RES1   0.0000
    31 H15      3.1612   5.7887  13.0149   H         1 RES1   0.0000
    32 C12      3.3762   7.7743  14.7417   C.3       1 RES1   0.0000
    33 H16      3.8098   6.9624  15.0783   H         1 RES1   0.0000
    34 H17      2.4312   7.7712  15.0002   H         1 RES1   0.0000
    35 H18      3.8166   8.5621  15.1251   H         1 RES1   0.0000
    36 C13      9.9617   8.7734  14.8715   C.3       1 RES1   0.0000
    37 H19      9.5038   9.6369  14.9436   H         1 RES1   0.0000
    38 H20     10.7335   8.8628  14.2740   H         1 RES1   0.0000
    39 H21     10.2665   8.4905  15.7596   H         1 RES1   0.0000
    40 C14      9.9272   6.0989  14.4561   C.3       1 RES1   0.0000
    41 H22     10.2439   6.1031  15.3828   H         1 RES1   0.0000
    42 H23     10.6925   6.1725  13.8484   H         1 RES1   0.0000
    43 H24      9.4483   5.2628  14.2779   H         1 RES1   0.0000
    44 C15      7.6407   7.3137  15.5993   C.3       1 RES1   0.0000
    45 H25      8.1497   7.2474  16.4331   H         1 RES1   0.0000
    46 H26      7.1122   6.4986  15.4726   H         1 RES1   0.0000
    47 H27      7.0422   8.0888  15.6424   H         1 RES1   0.0000
    48 C16      6.3204   5.1304  10.7430   C.3       1 RES1   0.0000
    49 H28      6.2305   4.1543  10.7543   H         1 RES1   0.0000
    50 H29      6.5581   5.4269   9.8387   H         1 RES1   0.0000
    51 H30      5.4694   5.5394  11.0081   H         1 RES1   0.0000
    52 C17      9.0075   4.5131  11.4311   C.3       1 RES1   0.0000
    53 H31      9.5863   4.3499  12.2047   H         1 RES1   0.0000
    54 H32      9.5307   4.9284  10.7133   H         1 RES1   0.0000
    55 H33      8.6363   3.6631  11.1154   H         1 RES1   0.0000
    56 C18      6.9176   4.7121  13.3407   C.3       1 RES1   0.0000
    57 H34      6.7144   3.7936  13.0656   H         1 RES1   0.0000
    58 H35      6.0929   5.1534  13.6356   H         1 RES1   0.0000
    59 H36      7.5618   4.6970  14.0788   H         1 RES1   0.0000
    60 C19      8.7943   9.5638   9.2291   C.3       1 RES1   0.0000
    61 H37      9.7391   9.5191   9.4835   H         1 RES1   0.0000
    62 H38      8.4006  10.3910   9.5791   H         1 RES1   0.0000
    63 H39      8.7181   9.5528   8.2517   H         1 RES1   0.0000
    64 C20      6.2592   8.2823   9.1014   C.3       1 RES1   0.0000
    65 H40      6.3893   8.4022   8.1384   H         1 RES1   0.0000
    66 H41      5.7850   9.0585   9.4659   H         1 RES1   0.0000
    67 H42      5.7309   7.4725   9.2609   H         1 RES1   0.0000
    68 C21      8.7086   6.8625   8.8560   C.3       1 RES1   0.0000
    69 H43      8.5732   7.1012   7.9159   H         1 RES1   0.0000
    70 H44      8.3134   5.9822   9.0306   H         1 RES1   0.0000
    71 H45      9.6683   6.8330   9.0520   H         1 RES1   0.0000
    72 C22      6.4428  10.8806  11.5086   C.3       1 RES1   0.0000
    73 H46      6.3420  11.7950  11.8455   H         1 RES1   0.0000
    74 H47      5.5834  10.4131  11.5742   H         1 RES1   0.0000
    75 H48      6.7302  10.9063  10.5728   H         1 RES1   0.0000
    76 C23      9.1229  11.1469  12.3863   C.3       1 RES1   0.0000
    77 H49      9.3450  11.2902  11.4434   H         1 RES1   0.0000
    78 H50      9.8969  10.7623  12.8489   H         1 RES1   0.0000
    79 H51      8.8859  12.0033  12.8001   H         1 RES1   0.0000
    80 C24      6.9925  10.4881  14.1364   C.3       1 RES1   0.0000
    81 H52      6.9047  11.4637  14.1705   H         1 RES1   0.0000
    82 H53      7.5857  10.1880  14.8557   H         1 RES1   0.0000
    83 H54      6.1106  10.0755  14.2467   H         1 RES1   0.0000
@<TRIPOS>BOND
     1     1     2    1
     2     2    36    1
     3     3     1    1
     4     4     1    1
     5     5     1    1
     6     6     1    1
     7     7     1    1
     8     8     6    3
     9     9     8    1
    10    10     9    1
    11    11    10    1
    12    12    10    1
    13    13    10    1
    14    14     9    1
    15    15    14    1
    16    16    14    1
    17    17    14    1
    18    18     9    1
    19    19    18    1
    20    20    18    1
    21    21    18    1
    22    22     7    3
    23    23    22    1
    24    24    23    1
    25    25    24    1
    26    26    24    1
    27    27    24    1
    28    28    23    1
    29    29    28    1
    30    30    28    1
    31    31    28    1
    32    32    23    1
    33    33    32    1
    34    34    32    1
    35    35    32    1
    36    36    37    1
    37    38    36    1
    38    39    36    1
    39    40     2    1
    40    41    40    1
    41    42    40    1
    42    43    40    1
    43    44     2    1
    44    45    44    1
    45    46    44    1
    46    47    44    1
    47    48     3    1
    48    49    48    1
    49    50    48    1
    50    51    48    1
    51    52     3    1
    52    53    52    1
    53    54    52    1
    54    55    52    1
    55    56     3    1
    56    57    56    1
    57    58    56    1
    58    59    56    1
    59    60     4    1
    60    61    60    1
    61    62    60    1
    62    63    60    1
    63    64     4    1
    64    65    64    1
    65    66    64    1
    66    67    64    1
    67    68     4    1
    68    69    68    1
    69    70    68    1
    70    71    68    1
    71    72     5    1
    72    73    72    1
    73    74    72    1
    74    75    72    1
    75    76     5    1
    76    77    76    1
    77    78    76    1
    78    79    76    1
    79    80     5    1
    80    81    80    1
    81    82    80    1
    82    83    80    1
@<TRIPOS>SUBSTRUCTURE
     1 RES1        1 GROUP             0 ****  ****    0  
@<TRIPOS>CRYSIN
   15.0186   10.5172   20.2247   90.0000  105.1550   90.0000    14     1
