@<TRIPOS>MOLECULE
BUJQUU
   124   126     1     0     0
SMALL
USER_CHARGES
****
Generated from the CSD

@<TRIPOS>ATOM
     1 Fe1      5.5413   5.1247   7.2145   Fe        1 RES1  -1.0000
     2 N1       5.3764   3.3500   9.8182   N.2       1 RES1   0.0000
     3 N2       7.0315   7.1531   8.8295   N.1       1 RES1   0.0000
     4 N3       8.0130   3.9456   5.9891   N.1       1 RES1   0.0000
     5 N4       5.1282   7.1141   4.9845   N.1       1 RES1   0.0000
     6 N5       2.1295   4.0743   9.7494   N.pl3     1 RES1   0.0000
     7 N6       2.3750   6.0901   8.9765   N.pl3     1 RES1   1.0000
     8 C1       3.8970   3.9221   6.6311   C.2       1 RES1   0.0000
     9 C2       3.9349   4.2722   8.0529   C.2       1 RES1   0.0000
    10 C3       5.1975   3.9324   8.7010   C.2       1 RES1   0.0000
    11 C4       6.4370   6.3262   8.1981   C.1       1 RES1   0.0000
    12 C5       7.0243   4.3807   6.4336   C.1       1 RES1   0.0000
    13 C6       5.2567   6.3342   5.8785   C.1       1 RES1   0.0000
    14 C7       2.8286   4.8205   8.8571   C.2       1 RES1   0.0000
    15 C8       1.2257   4.8874  10.4311   C.2       1 RES1   0.0000
    16 C9       1.3802   6.1417   9.9508   C.2       1 RES1   0.0000
    17 C10      0.3158   4.4385  11.5369   C.3       1 RES1   0.0000
    18 H1      -0.2139   5.1999  11.8533   H         1 RES1   0.0000
    19 H2       0.8523   4.0838  12.2763   H         1 RES1   0.0000
    20 H3      -0.2844   3.7399  11.2026   H         1 RES1   0.0000
    21 C11      0.6446   7.3819  10.3330   C.3       1 RES1   0.0000
    22 H4      -0.0024   7.1732  11.0399   H         1 RES1   0.0000
    23 H5       0.1707   7.7346   9.5514   H         1 RES1   0.0000
    24 H6       1.2811   8.0511  10.6596   H         1 RES1   0.0000
    25 C12      2.2955   2.6047   9.8674   C.3       1 RES1   0.0000
    26 H7       3.0471   2.3457   9.2606   H         1 RES1   0.0000
    27 C13      1.0413   1.8862   9.3596   C.3       1 RES1   0.0000
    28 H8       0.8385   2.1869   8.4492   H         1 RES1   0.0000
    29 H9       0.2850   2.0929   9.9479   H         1 RES1   0.0000
    30 H10      1.1968   0.9191   9.3562   H         1 RES1   0.0000
    31 C14      2.6960   2.1860  11.2681   C.3       1 RES1   0.0000
    32 H11      3.5051   2.6710  11.5361   H         1 RES1   0.0000
    33 H12      2.8737   1.2228  11.2839   H         1 RES1   0.0000
    34 H13      1.9692   2.3947  11.8919   H         1 RES1   0.0000
    35 C15      2.9422   7.2394   8.2257   C.3       1 RES1   0.0000
    36 H14      3.6151   6.8606   7.5890   H         1 RES1   0.0000
    37 C16      3.6996   8.1831   9.1465   C.3       1 RES1   0.0000
    38 H15      4.3671   7.6778   9.6551   H         1 RES1   0.0000
    39 H16      3.0725   8.6086   9.7669   H         1 RES1   0.0000
    40 H17      4.1480   8.8712   8.6119   H         1 RES1   0.0000
    41 C17      1.8895   7.9341   7.3802   C.3       1 RES1   0.0000
    42 H18      1.4413   7.2751   6.8102   H         1 RES1   0.0000
    43 H19      2.3185   8.6125   6.8183   H         1 RES1   0.0000
    44 H20      1.2304   8.3637   7.9652   H         1 RES1   0.0000
    45 C18      4.1480   2.4899   6.0533   C.3       1 RES1   0.0000
    46 C19      4.6992   2.6339   4.6270   C.3       1 RES1   0.0000
    47 H21      4.8615   1.7450   4.2480   H         1 RES1   0.0000
    48 H22      5.5395   3.1374   4.6506   H         1 RES1   0.0000
    49 H23      4.0480   3.1119   4.0711   H         1 RES1   0.0000
    50 C20      2.8167   1.7169   5.9667   C.3       1 RES1   0.0000
    51 H24      2.9826   0.8211   5.6064   H         1 RES1   0.0000
    52 H25      2.1973   2.1977   5.3786   H         1 RES1   0.0000
    53 H26      2.4244   1.6412   6.8610   H         1 RES1   0.0000
    54 C21      5.1176   1.6290   6.8639   C.3       1 RES1   0.0000
    55 H27      5.2142   0.7535   6.4340   H         1 RES1   0.0000
    56 H28      4.7688   1.5118   7.7721   H         1 RES1   0.0000
    57 H29      5.9909   2.0713   6.9037   H         1 RES1   0.0000
    58 C22      6.7166   3.2164  10.4309   C.3       1 RES1   0.0000
    59 C23      7.8648   3.2137   9.4231   C.3       1 RES1   0.0000
    60 H30      7.7444   2.4740   8.7929   H         1 RES1   0.0000
    61 H31      8.7152   3.1031   9.8971   H         1 RES1   0.0000
    62 H32      7.8711   4.0623   8.9332   H         1 RES1   0.0000
    63 C24      6.8984   4.3670  11.4218   C.3       1 RES1   0.0000
    64 H33      6.1602   4.3631  12.0648   H         1 RES1   0.0000
    65 H34      6.9054   5.2185  10.9362   H         1 RES1   0.0000
    66 H35      7.7475   4.2563  11.8980   H         1 RES1   0.0000
    67 C25      6.6912   1.8861  11.1778   C.3       1 RES1   0.0000
    68 H36      5.9562   1.8901  11.8269   H         1 RES1   0.0000
    69 H37      7.5426   1.7588  11.6479   H         1 RES1   0.0000
    70 H38      6.5586   1.1552  10.5397   H         1 RES1   0.0000
    71 C26      2.8529   4.5848   5.8713   C.1       1 RES1   0.0000
    72 C27      1.9593   5.0277   5.1970   C.1       1 RES1   0.0000
    73 C28      0.8481   5.4678   4.3277   C.3       1 RES1   0.0000
    74 C29      1.0779   6.9037   3.8380   C.3       1 RES1   0.0000
    75 H39      1.1174   7.5093   4.6079   H         1 RES1   0.0000
    76 H40      0.3416   7.1702   3.2495   H         1 RES1   0.0000
    77 H41      1.9228   6.9488   3.3431   H         1 RES1   0.0000
    78 C30      0.7852   4.5404   3.1086   C.3       1 RES1   0.0000
    79 H42      0.6268   3.6204   3.4061   H         1 RES1   0.0000
    80 H43      1.6344   4.5845   2.6212   H         1 RES1   0.0000
    81 H44      0.0541   4.8246   2.5195   H         1 RES1   0.0000
    82 C31     -0.4695   5.3997   5.0947   C.3       1 RES1   0.0000
    83 H45     -0.6188   4.4836   5.4091   H         1 RES1   0.0000
    84 H46     -1.2053   5.6662   4.5042   H         1 RES1   0.0000
    85 H47     -0.4317   6.0072   5.8626   H         1 RES1   0.0000
    86 C32      8.3208   7.8343   8.8880   C.3       1 RES1   0.0000
    87 C33      8.1889   9.1387   8.1060   C.3       1 RES1   0.0000
    88 H48      7.5053   9.7021   8.5245   H         1 RES1   0.0000
    89 H49      7.9309   8.9408   7.1823   H         1 RES1   0.0000
    90 H50      9.0475   9.6100   8.1116   H         1 RES1   0.0000
    91 C34      9.3835   6.9400   8.2666   C.3       1 RES1   0.0000
    92 H51      9.4543   6.1101   8.7827   H         1 RES1   0.0000
    93 H52     10.2463   7.4044   8.2743   H         1 RES1   0.0000
    94 H53      9.1322   6.7284   7.3430   H         1 RES1   0.0000
    95 C35      8.6381   8.1167  10.3534   C.3       1 RES1   0.0000
    96 H54      8.7198   7.2692  10.8386   H         1 RES1   0.0000
    97 H55      7.9172   8.6498  10.7471   H         1 RES1   0.0000
    98 H56      9.4820   8.6116  10.4156   H         1 RES1   0.0000
    99 C36      5.7123   7.3620   3.6599   C.3       1 RES1   0.0000
   100 C37      5.6726   6.0601   2.8837   C.3       1 RES1   0.0000
   101 H57      4.7411   5.7819   2.7595   H         1 RES1   0.0000
   102 H58      6.1557   5.3684   3.3817   H         1 RES1   0.0000
   103 H59      6.0948   6.1885   2.0091   H         1 RES1   0.0000
   104 C38      4.9028   8.4411   2.9616   C.3       1 RES1   0.0000
   105 H60      3.9802   8.1314   2.8428   H         1 RES1   0.0000
   106 H61      5.2984   8.6311   2.0864   H         1 RES1   0.0000
   107 H62      4.9072   9.2553   3.5058   H         1 RES1   0.0000
   108 C39      7.1502   7.8081   3.8694   C.3       1 RES1   0.0000
   109 H63      7.1619   8.6507   4.3700   H         1 RES1   0.0000
   110 H64      7.5816   7.9414   2.9994   H         1 RES1   0.0000
   111 H65      7.6357   7.1222   4.3720   H         1 RES1   0.0000
   112 C40      9.2143   3.4007   5.4002   C.3       1 RES1   0.0000
   113 C41     10.2629   3.2608   6.4932   C.3       1 RES1   0.0000
   114 H66      9.9432   2.6327   7.1742   H         1 RES1   0.0000
   115 H67     10.4242   4.1358   6.9058   H         1 RES1   0.0000
   116 H68     11.0972   2.9257   6.1046   H         1 RES1   0.0000
   117 C42      9.6713   4.3798   4.3179   C.3       1 RES1   0.0000
   118 H69      9.8920   5.2410   4.7299   H         1 RES1   0.0000
   119 H70      8.9505   4.5052   3.6664   H         1 RES1   0.0000
   120 H71     10.4636   4.0211   3.8657   H         1 RES1   0.0000
   121 C43      8.8687   2.0478   4.7861   C.3       1 RES1   0.0000
   122 H72      8.5800   1.4325   5.4925   H         1 RES1   0.0000
   123 H73      9.6579   1.6823   4.3354   H         1 RES1   0.0000
   124 H74      8.1448   2.1605   4.1361   H         1 RES1   0.0000
@<TRIPOS>BOND
     1     1     8   un
     2     2    10    2
     3     3    11    3
     4     4    12    3
     5     5    13    3
     6     6    14    1
     7     7    14    2
     8     8     9    2
     9     9     1   un
    10    10     1    1
    11    11     1    1
    12    12     1    1
    13    13     1    1
    14    14     9    1
    15    15     6    1
    16    16     7    1
    17    17    15    1
    18    18    17    1
    19    19    17    1
    20    20    17    1
    21    21    16    1
    22    22    21    1
    23    23    21    1
    24    24    21    1
    25    25     6    1
    26    26    25    1
    27    27    25    1
    28    28    27    1
    29    29    27    1
    30    30    27    1
    31    31    25    1
    32    32    31    1
    33    33    31    1
    34    34    31    1
    35    35     7    1
    36    36    35    1
    37    37    35    1
    38    38    37    1
    39    39    37    1
    40    40    37    1
    41    41    35    1
    42    42    41    1
    43    43    41    1
    44    44    41    1
    45    45     8    1
    46    46    45    1
    47    47    46    1
    48    48    46    1
    49    49    46    1
    50    50    45    1
    51    51    50    1
    52    52    50    1
    53    53    50    1
    54    54    45    1
    55    55    54    1
    56    56    54    1
    57    57    54    1
    58    58     2    1
    59    59    58    1
    60    60    59    1
    61    61    59    1
    62    62    59    1
    63    63    58    1
    64    64    63    1
    65    65    63    1
    66    66    63    1
    67    67    58    1
    68    68    67    1
    69    69    67    1
    70    70    67    1
    71    71     8    1
    72    72    71    3
    73    73    72    1
    74    74    73    1
    75    75    74    1
    76    76    74    1
    77    77    74    1
    78    78    73    1
    79    79    78    1
    80    80    78    1
    81    81    78    1
    82    82    73    1
    83    83    82    1
    84    84    82    1
    85    85    82    1
    86    86     3    1
    87    87    86    1
    88    88    87    1
    89    89    87    1
    90    90    87    1
    91    91    86    1
    92    92    91    1
    93    93    91    1
    94    94    91    1
    95    95    86    1
    96    96    95    1
    97    97    95    1
    98    98    95    1
    99    99     5    1
   100   100    99    1
   101   101   100    1
   102   102   100    1
   103   103   100    1
   104   104    99    1
   105   105   104    1
   106   106   104    1
   107   107   104    1
   108   108    99    1
   109   109   108    1
   110   110   108    1
   111   111   108    1
   112   112     4    1
   113   113   112    1
   114   114   113    1
   115   115   113    1
   116   116   113    1
   117   117   112    1
   118   118   117    1
   119   119   117    1
   120   120   117    1
   121   121   112    1
   122   122   121    1
   123   123   121    1
   124   124   121    1
   125     9    10    1
   126    15    16    2
@<TRIPOS>SUBSTRUCTURE
     1 RES1        1 GROUP             0 ****  ****    0  
@<TRIPOS>CRYSIN
   22.5740    9.7981   20.4582   90.0000   96.2900   90.0000    14     1
