@<TRIPOS>MOLECULE
BUKVEJ
    78    83     2     0     0
SMALL
NO_CHARGES
****
Generated from the CSD

@<TRIPOS>ATOM
     1 Fe1      4.3469  -0.0085   4.8753   Fe        1 RES1   0.0000
     2 O1       5.0079   0.3576   6.6495   O.3       1 RES1   0.0000
     3 O2       5.0733  -1.7853   5.0624   O.3       1 RES1   0.0000
     4 O3       3.8846   3.5384   9.0477   O.2       1 RES1   0.0000
     5 O4       4.4913  -5.0364   2.5776   O.2       1 RES1   0.0000
     6 O5       1.9069   4.3950   0.8596   O.3       1 RES1   0.0000
     7 H1       1.7392   4.9551   1.4347   H         1 RES1   0.0000
     8 O6       2.1276   2.1704  -0.6888   O.3       1 RES1   0.0000
     9 H2       1.7926   2.8977  -0.8643   H         1 RES1   0.0000
    10 N1       3.6310   1.7353   4.6479   N.2       1 RES1   0.0000
    11 N2       3.6885  -0.3548   3.1431   N.2       1 RES1   0.0000
    12 N3       2.6469  -0.6847   5.6617   N.ar      1 RES1   0.0000
    13 N4       6.0546   0.6251   4.0587   N.ar      1 RES1   0.0000
    14 C1       4.7839   1.3873   7.3550   C.2       1 RES1   0.0000
    15 C2       4.0566   2.5304   6.9093   C.2       1 RES1   0.0000
    16 C3       3.5662   2.6433   5.5789   C.2       1 RES1   0.0000
    17 H3       3.1564   3.4473   5.3513   H         1 RES1   0.0000
    18 C4       3.1897   1.9621   3.3151   C.ar      1 RES1   0.0000
    19 C5       2.7474   3.1729   2.7745   C.ar      1 RES1   0.0000
    20 H4       2.7096   3.9306   3.3128   H         1 RES1   0.0000
    21 C6       2.3681   3.2582   1.4548   C.ar      1 RES1   0.0000
    22 C7       2.4593   2.1311   0.6255   C.ar      1 RES1   0.0000
    23 C8       2.8960   0.9308   1.1468   C.ar      1 RES1   0.0000
    24 H5       2.9615   0.1846   0.5958   H         1 RES1   0.0000
    25 C9       3.2387   0.8312   2.4894   C.ar      1 RES1   0.0000
    26 C10      3.6381  -1.5231   2.5614   C.2       1 RES1   0.0000
    27 H6       3.2258  -1.5647   1.7287   H         1 RES1   0.0000
    28 C11      4.1610  -2.7461   3.0938   C.2       1 RES1   0.0000
    29 C12      4.8847  -2.7964   4.3236   C.2       1 RES1   0.0000
    30 C13      5.4243   1.3212   8.7214   C.3       1 RES1   0.0000
    31 H7       4.7495   1.1468   9.3822   H         1 RES1   0.0000
    32 H8       5.8525   2.1587   8.9150   H         1 RES1   0.0000
    33 H9       6.0763   0.6169   8.7355   H         1 RES1   0.0000
    34 C14      3.7840   3.6368   7.8349   C.2       1 RES1   0.0000
    35 C15      3.3323   4.9688   7.2811   C.3       1 RES1   0.0000
    36 H10      2.4330   4.8914   6.9528   H         1 RES1   0.0000
    37 H11      3.9134   5.2307   6.5635   H         1 RES1   0.0000
    38 H12      3.3631   5.6305   7.9760   H         1 RES1   0.0000
    39 C16      5.4741  -4.0615   4.8813   C.3       1 RES1   0.0000
    40 H13      5.9051  -3.8719   5.7183   H         1 RES1   0.0000
    41 H14      6.1177  -4.4141   4.2629   H         1 RES1   0.0000
    42 H15      4.7762  -4.7059   5.0192   H         1 RES1   0.0000
    43 C17      4.0100  -3.9299   2.2702   C.2       1 RES1   0.0000
    44 C18      3.2430  -3.8725   0.9659   C.3       1 RES1   0.0000
    45 H16      3.7473  -3.3723   0.3194   H         1 RES1   0.0000
    46 H17      2.3961  -3.4444   1.1106   H         1 RES1   0.0000
    47 H18      3.0985  -4.7642   0.6403   H         1 RES1   0.0000
    48 C19      1.4433  -0.3536   5.1695   C.ar      1 RES1   0.0000
    49 H19      1.4007   0.2966   4.5060   H         1 RES1   0.0000
    50 C20      0.2719  -0.9288   5.5983   C.ar      1 RES1   0.0000
    51 H20     -0.5411  -0.6717   5.2257   H         1 RES1   0.0000
    52 C21      0.3111  -1.8850   6.5778   C.ar      1 RES1   0.0000
    53 H21     -0.4683  -2.3036   6.8654   H         1 RES1   0.0000
    54 C22      1.5292  -2.2140   7.1274   C.ar      1 RES1   0.0000
    55 H22      1.5862  -2.8446   7.8076   H         1 RES1   0.0000
    56 C23      2.6584  -1.5946   6.6547   C.ar      1 RES1   0.0000
    57 H23      3.4757  -1.8154   7.0402   H         1 RES1   0.0000
    58 C24      6.5664   0.0235   2.9670   C.ar      1 RES1   0.0000
    59 H24      6.1566  -0.7508   2.6550   H         1 RES1   0.0000
    60 C25      7.6612   0.5003   2.2968   C.ar      1 RES1   0.0000
    61 H25      7.9745   0.0645   1.5380   H         1 RES1   0.0000
    62 C26      8.2899   1.6273   2.7594   C.ar      1 RES1   0.0000
    63 H26      9.0237   1.9796   2.3086   H         1 RES1   0.0000
    64 C27      7.8147   2.2282   3.9017   C.ar      1 RES1   0.0000
    65 H27      8.2418   2.9743   4.2549   H         1 RES1   0.0000
    66 C28      6.7007   1.7065   4.5111   C.ar      1 RES1   0.0000
    67 H28      6.3796   2.1255   5.2766   H         1 RES1   0.0000
    68 N5       7.9788  -4.0195   2.0604   N.ar      2 RES2   0.0000
    69 C29      8.7690  -3.4682   2.9657   C.ar      2 RES2   0.0000
    70 H29      8.7705  -2.5409   3.0395   H         2 RES2   0.0000
    71 C30      9.5926  -4.1882   3.8099   C.ar      2 RES2   0.0000
    72 H30     10.1355  -3.7595   4.4313   H         2 RES2   0.0000
    73 C31      9.5832  -5.5412   3.7033   C.ar      2 RES2   0.0000
    74 H31     10.1264  -6.0575   4.2534   H         2 RES2   0.0000
    75 C32      8.7716  -6.1413   2.7827   C.ar      2 RES2   0.0000
    76 H32      8.7531  -7.0676   2.6947   H         2 RES2   0.0000
    77 C33      7.9809  -5.3412   1.9891   C.ar      2 RES2   0.0000
    78 H33      7.4187  -5.7495   1.3712   H         2 RES2   0.0000
@<TRIPOS>BOND
     1     1     2    1
     2     2    14    1
     3     3     1    1
     4     4    34    2
     5     5    43    2
     6     6     7    1
     7     8     9    1
     8    10     1    1
     9    11     1    1
    10    12     1    1
    11    13     1    1
    12    14    15    2
    13    15    16    1
    14    16    10    2
    15    17    16    1
    16    18    10    1
    17    19    18   ar
    18    20    19    1
    19    21     6    1
    20    22     8    1
    21    23    22   ar
    22    24    23    1
    23    25    11    1
    24    26    11    2
    25    27    26    1
    26    28    26    1
    27    29     3    1
    28    30    14    1
    29    31    30    1
    30    32    30    1
    31    33    30    1
    32    34    15    1
    33    35    34    1
    34    36    35    1
    35    37    35    1
    36    38    35    1
    37    39    29    1
    38    40    39    1
    39    41    39    1
    40    42    39    1
    41    43    28    1
    42    44    43    1
    43    45    44    1
    44    46    44    1
    45    47    44    1
    46    48    12   ar
    47    49    48    1
    48    50    48   ar
    49    51    50    1
    50    52    50   ar
    51    53    52    1
    52    54    52   ar
    53    55    54    1
    54    56    12   ar
    55    57    56    1
    56    58    13   ar
    57    59    58    1
    58    60    58   ar
    59    61    60    1
    60    62    60   ar
    61    63    62    1
    62    64    62   ar
    63    65    64    1
    64    66    13   ar
    65    67    66    1
    66    18    25   ar
    67    19    21   ar
    68    21    22   ar
    69    23    25   ar
    70    28    29    2
    71    54    56   ar
    72    64    66   ar
    73    68    69   ar
    74    69    70    1
    75    71    69   ar
    76    72    71    1
    77    73    71   ar
    78    74    73    1
    79    75    73   ar
    80    76    75    1
    81    77    68   ar
    82    78    77    1
    83    75    77   ar
@<TRIPOS>SUBSTRUCTURE
     1 RES1        1 GROUP             0 ****  ****    0  
     2 RES2       68 GROUP             0 ****  ****    0  
@<TRIPOS>CRYSIN
    8.7090   11.7670   16.6600  104.8940   94.7300  105.3800     2     1
