@<TRIPOS>MOLECULE
BUNSIN
    74    78     4     0     0
SMALL
USER_CHARGES
****
Generated from the CSD

@<TRIPOS>ATOM
     1 C1       3.4859   1.2069   5.7182   C.3       1 RES1   0.0000
     2 H1       3.5559   1.7254   4.8999   H         1 RES1   0.0000
     3 H2       3.3853   0.2748   5.4717   H         1 RES1   0.0000
     4 C2       4.7554   1.3727   6.5188   C.3       1 RES1   0.0000
     5 H3       5.4479   0.8301   6.1106   H         1 RES1   0.0000
     6 H4       4.6013   1.0299   7.4120   H         1 RES1   0.0000
     7 C3       5.2644   2.7964   6.6312   C.3       1 RES1   0.0000
     8 H5       6.1538   2.7723   7.0176   H         1 RES1   0.0000
     9 H6       5.3464   3.1633   5.7379   H         1 RES1   0.0000
    10 C4       4.5158   3.3630   8.8692   C.3       1 RES1   0.0000
    11 H7       5.3617   3.6817   9.2221   H         1 RES1   0.0000
    12 H8       4.5088   2.3969   8.9520   H         1 RES1   0.0000
    13 C5       3.3998   3.9282   9.6993   C.3       1 RES1   0.0000
    14 H9       3.4760   3.6152  10.6142   H         1 RES1   0.0000
    15 H10      3.4483   4.8972   9.7032   H         1 RES1   0.0000
    16 C6       0.9431   4.0600   9.7900   C.3       1 RES1   0.0000
    17 H11      0.9343   5.0204   9.6579   H         1 RES1   0.0000
    18 H12      1.0034   3.8914  10.7443   H         1 RES1   0.0000
    19 C7      -0.3415   3.4749   9.2635   C.3       1 RES1   0.0000
    20 H13     -1.0530   3.6973   9.8846   H         1 RES1   0.0000
    21 H14     -0.2545   2.5088   9.2576   H         1 RES1   0.0000
    22 C8      -0.7682   3.9155   7.8813   C.3       1 RES1   0.0000
    23 H15     -1.6795   3.6166   7.7393   H         1 RES1   0.0000
    24 H16     -0.7781   4.8844   7.8655   H         1 RES1   0.0000
    25 C9      -0.1164   1.9691   6.5681   C.3       1 RES1   0.0000
    26 H17     -0.9533   1.7934   6.1106   H         1 RES1   0.0000
    27 H18     -0.1598   1.5469   7.4396   H         1 RES1   0.0000
    28 C10      1.0193   1.3628   5.7774   C.3       1 RES1   0.0000
    29 H19      0.8929   0.4037   5.6985   H         1 RES1   0.0000
    30 H20      1.0400   1.7410   4.8841   H         1 RES1   0.0000
    31 C11     -0.3931   4.1450   5.5092   C.3       1 RES1   0.0000
    32 H21     -0.7690   5.0048   5.7557   H         1 RES1   0.0000
    33 H22     -1.1025   3.6237   5.0991   H         1 RES1   0.0000
    34 C12      0.6885   4.3730   4.4799   C.ar      1 RES1   0.0000
    35 C13      0.3170   4.7739   3.2160   C.ar      1 RES1   0.0000
    36 H23     -0.5804   4.8292   2.9794   H         1 RES1   0.0000
    37 C14      1.2976   5.0884   2.3208   C.ar      1 RES1   0.0000
    38 H24      1.0731   5.3802   1.4670   H         1 RES1   0.0000
    39 C15      2.6309   4.9694   2.6876   C.ar      1 RES1   0.0000
    40 H25      3.3176   5.1791   2.0960   H         1 RES1   0.0000
    41 C16      2.8926   4.5275   3.9673   C.ar      1 RES1   0.0000
    42 H26      3.7810   4.4141   4.2157   H         1 RES1   0.0000
    43 C17      4.9376   5.1026   7.2286   C.3       1 RES1   0.0000
    44 H27      5.2252   5.1904   6.3078   H         1 RES1   0.0000
    45 H28      5.7160   5.2343   7.7925   H         1 RES1   0.0000
    46 C18      3.9517   6.1835   7.5224   C.ar      1 RES1   0.0000
    47 C19      4.3171   7.4414   7.9286   C.ar      1 RES1   0.0000
    48 H29      5.2135   7.6284   8.0903   H         1 RES1   0.0000
    49 C20      3.3945   8.4118   8.0982   C.ar      1 RES1   0.0000
    50 H30      3.6543   9.2631   8.3683   H         1 RES1   0.0000
    51 C21      2.0829   8.1370   7.8694   C.ar      1 RES1   0.0000
    52 H31      1.4303   8.7943   7.9621   H         1 RES1   0.0000
    53 C22      1.7462   6.8337   7.4909   C.ar      1 RES1   0.0000
    54 H32      0.8497   6.6311   7.3528   H         1 RES1   0.0000
    55 N1       2.2850   1.6433   6.4673   N.3       1 RES1   0.0000
    56 N2       4.4322   3.7200   7.4376   N.3       1 RES1   0.0000
    57 N3       2.1162   3.4919   9.1255   N.3       1 RES1   0.0000
    58 N4       0.0466   3.4494   6.7455   N.3       1 RES1   0.0000
    59 N5       1.9574   4.2540   4.8684   N.ar      1 RES1   0.0000
    60 N6       2.6390   5.8761   7.3195   N.ar      1 RES1   0.0000
    61 Fe1      2.2588   3.7570   6.9666   Fe        1 RES1   2.0000
    62 H33      2.2170   1.1899   7.2050   H         1 RES1   0.0000
    63 H34      1.9877   2.7057   9.1294   H         1 RES1   0.0000
    64 F1       3.4669   0.8230  10.8429   F         2 RES2   0.0000
    65 F2       1.4823   0.6786  11.2984   F         2 RES2   0.0000
    66 F3       2.0914   0.4264   9.2771   F         2 RES2   0.0000
    67 F4       2.5337  -1.1361  10.7928   F         2 RES2   0.0000
    68 B1       2.4104   0.1615  10.5077   B         2 RES2  -1.0000
    69 F5      -0.8074   8.7702   6.5937   F         3 RES3   0.0000
    70 F6      -2.1481   7.2856   5.7478   F         3 RES3   0.0000
    71 F7      -2.1008   7.4881   7.8990   F         3 RES3   0.0000
    72 F8      -2.9112   9.0492   6.6765   F         3 RES3   0.0000
    73 B2      -1.9800   8.0789   6.6923   B         3 RES3  -1.0000
    74 O1      -3.6431   5.3377   4.0264   O.3       4 RES4   0.0000
@<TRIPOS>BOND
     1     1     2    1
     2     3     1    1
     3     4     1    1
     4     5     4    1
     5     6     4    1
     6     7     4    1
     7     8     7    1
     8     9     7    1
     9    10    11    1
    10    12    10    1
    11    13    10    1
    12    14    13    1
    13    15    13    1
    14    16    17    1
    15    18    16    1
    16    19    16    1
    17    20    19    1
    18    21    19    1
    19    22    19    1
    20    23    22    1
    21    24    22    1
    22    25    26    1
    23    27    25    1
    24    28    25    1
    25    29    28    1
    26    30    28    1
    27    31    32    1
    28    33    31    1
    29    34    31    1
    30    35    34   ar
    31    36    35    1
    32    37    35   ar
    33    38    37    1
    34    39    37   ar
    35    40    39    1
    36    41    39   ar
    37    42    41    1
    38    43    44    1
    39    45    43    1
    40    46    43    1
    41    47    46   ar
    42    48    47    1
    43    49    47   ar
    44    50    49    1
    45    51    49   ar
    46    52    51    1
    47    53    51   ar
    48    54    53    1
    49    55     1    1
    50    56     7    1
    51    57    13    1
    52    58    22    1
    53    59    34   ar
    54    60    46   ar
    55    61    55    1
    56    62    55    1
    57    63    57    1
    58    10    56    1
    59    16    57    1
    60    25    58    1
    61    28    55    1
    62    31    58    1
    63    41    59   ar
    64    43    56    1
    65    53    60   ar
    66    56    61    1
    67    57    61    1
    68    58    61    1
    69    59    61    1
    70    60    61    1
    71    64    68    1
    72    65    68    1
    73    66    68    1
    74    67    68    1
    75    69    73    1
    76    70    73    1
    77    71    73    1
    78    72    73    1
@<TRIPOS>SUBSTRUCTURE
     1 RES1        1 GROUP             0 ****  ****    0  
     2 RES2       64 GROUP             0 ****  ****    0  
     3 RES3       69 GROUP             0 ****  ****    0  
     4 RES4       74 GROUP             0 ****  ****    0  
@<TRIPOS>CRYSIN
    9.8859   14.1660   19.7180   90.0000   90.0580   90.0000   231     1
