@<TRIPOS>MOLECULE
BUPMIL02
    89    96     3     0     0
SMALL
USER_CHARGES
****
Generated from the CSD

@<TRIPOS>ATOM
     1 As1      6.9192   2.1241   7.4330   As        1 RES1  -1.0000
     2 F1       6.6403   2.6973   5.8320   F         1 RES1   0.0000
     3 F2       5.6508   3.1349   7.9994   F         1 RES1   0.0000
     4 F3       5.7620   0.8941   7.1953   F         1 RES1   0.0000
     5 F4       7.1972   1.5584   9.0277   F         1 RES1   0.0000
     6 F5       8.1631   1.1349   6.8353   F         1 RES1   0.0000
     7 F6       8.0325   3.3964   7.6844   F         1 RES1   0.0000
     8 As2      2.7477   1.6416  16.0664   As        2 RES2  -1.0000
     9 F7       3.1093   3.2379  16.5873   F         2 RES2   0.0000
    10 F8       1.4396   2.2427  15.1328   F         2 RES2   0.0000
    11 F9       2.3804   0.0512  15.5453   F         2 RES2   0.0000
    12 F10      3.7714   1.8546  14.6974   F         2 RES2   0.0000
    13 F11      1.7089   1.4315  17.4066   F         2 RES2   0.0000
    14 F12      4.0714   1.0587  16.9642   F         2 RES2   0.0000
    15 Fe1      3.7940   5.0246  11.4259   Fe        3 RES3   1.0000
    16 O1       3.1734   5.4143   9.5731   O.2       3 RES3   0.0000
    17 F13      6.1719   6.2298   6.8092   F         3 RES3   0.0000
    18 O2       3.3847   6.8700  11.9811   O.3       3 RES3   0.0000
    19 F14     -0.6073   7.6438  12.6493   F         3 RES3   0.0000
    20 N1       4.9914   4.8712  12.9761   N.ar      3 RES3   0.0000
    21 N2       2.0674   4.7654  12.0509   N.2       3 RES3   0.0000
    22 N3       5.4423   5.4058  10.6180   N.2       3 RES3   0.0000
    23 N4       3.6291   3.0973  11.1345   N.ar      3 RES3   0.0000
    24 N5       1.3906   5.8647  12.4930   N.2       3 RES3   0.0000
    25 N6       5.3747   5.7348   9.2918   N.am      3 RES3   0.0000
    26 N7       7.9118   6.2252   9.5049   N.ar      3 RES3   0.0000
    27 N8      -0.7497   4.5143  12.2406   N.ar      3 RES3   1.0000
    28 C1       6.5772   5.3410  11.2729   C.2       3 RES3   0.0000
    29 C2       3.8795   6.1244   7.4167   C.ar      3 RES3   0.0000
    30 C3       4.1252   5.7345   8.8157   C.2       3 RES3   0.0000
    31 C4       6.3100   5.1361  12.7051   C.ar      3 RES3   0.0000
    32 C5       7.9007   5.4857  10.6310   C.ar      3 RES3   0.0000
    33 C6       0.0220   3.4065  12.1712   C.ar      3 RES3   0.0000
    34 C7       2.3894   2.5844  11.3991   C.ar      3 RES3   0.0000
    35 C8       1.4587   3.5984  11.9231   C.2       3 RES3   0.0000
    36 C9       7.2281   5.3241  13.7278   C.ar      3 RES3   0.0000
    37 H1       8.1134   5.5321  13.5334   H         3 RES3   0.0000
    38 C10      1.6838   8.1978  12.9815   C.ar      3 RES3   0.0000
    39 C11      4.6101   4.7343  14.2506   C.ar      3 RES3   0.0000
    40 H2       3.7205   4.5360  14.4348   H         3 RES3   0.0000
    41 C12      2.5519   6.2826   7.0121   C.ar      3 RES3   0.0000
    42 H3       1.8657   6.1407   7.6236   H         3 RES3   0.0000
    43 C13      2.1954   6.9252  12.4343   C.2       3 RES3   0.0000
    44 C14      9.0428   4.8510  11.1090   C.ar      3 RES3   0.0000
    45 H4       9.0136   4.3210  11.8727   H         3 RES3   0.0000
    46 C15      4.8701   6.3531   6.4691   C.ar      3 RES3   0.0000
    47 C16      4.5798   2.2920  10.6522   C.ar      3 RES3   0.0000
    48 H5       5.4260   2.6452  10.4976   H         3 RES3   0.0000
    49 C17      4.3595   0.9555  10.3732   C.ar      3 RES3   0.0000
    50 H6       5.0406   0.4198  10.0360   H         3 RES3   0.0000
    51 C18      2.2449   6.6468   5.7172   C.ar      3 RES3   0.0000
    52 H7       1.3576   6.7475   5.4598   H         3 RES3   0.0000
    53 C19      6.8096   5.1981  15.0422   C.ar      3 RES3   0.0000
    54 H8       7.4108   5.3288  15.7396   H         3 RES3   0.0000
    55 C20      5.4990   4.8789  15.3083   C.ar      3 RES3   0.0000
    56 H9       5.2114   4.7601  16.1848   H         3 RES3   0.0000
    57 C21      2.5980   9.1390  13.4566   C.ar      3 RES3   0.0000
    58 H10      3.5089   8.9721  13.3805   H         3 RES3   0.0000
    59 C22      4.5789   6.7204   5.1666   C.ar      3 RES3   0.0000
    60 H11      5.2613   6.8669   4.5513   H         3 RES3   0.0000
    61 C23     10.2509   5.8180   9.2852   C.ar      3 RES3   0.0000
    62 H12     11.0445   5.9631   8.8230   H         3 RES3   0.0000
    63 C24     -2.7345   3.3020  12.5202   C.ar      3 RES3   0.0000
    64 H13     -3.6613   3.2715  12.5917   H         3 RES3   0.0000
    65 C25      9.0664   6.3856   8.8552   C.ar      3 RES3   0.0000
    66 H14      9.0752   6.9006   8.0809   H         3 RES3   0.0000
    67 C26      3.2618   6.8623   4.8014   C.ar      3 RES3   0.0000
    68 H15      3.0493   7.1056   3.9292   H         3 RES3   0.0000
    69 C27     10.2273   5.0336  10.4090   C.ar      3 RES3   0.0000
    70 H16     11.0079   4.6237  10.7039   H         3 RES3   0.0000
    71 C28      2.1687  10.3110  14.0395   C.ar      3 RES3   0.0000
    72 H17      2.7899  10.9256  14.3586   H         3 RES3   0.0000
    73 C29      3.1163   0.4432  10.6053   C.ar      3 RES3   0.0000
    74 H18      2.9393  -0.4498  10.4199   H         3 RES3   0.0000
    75 C30      2.1141   1.2612  11.1207   C.ar      3 RES3   0.0000
    76 H19      1.2639   0.9173  11.2763   H         3 RES3   0.0000
    77 C31      0.3351   8.4982  13.1150   C.ar      3 RES3   0.0000
    78 C32      0.8175  10.5741  14.1474   C.ar      3 RES3   0.0000
    79 H20      0.5296  11.3664  14.5414   H         3 RES3   0.0000
    80 C33     -2.0759   4.4946  12.4033   C.ar      3 RES3   0.0000
    81 H21     -2.5524   5.2925  12.4367   H         3 RES3   0.0000
    82 C34     -0.1018   9.6749  13.6769   C.ar      3 RES3   0.0000
    83 H22     -1.0119   9.8579  13.7374   H         3 RES3   0.0000
    84 C35     -0.6199   2.2194  12.3898   C.ar      3 RES3   0.0000
    85 H23     -0.1254   1.4337  12.4477   H         3 RES3   0.0000
    86 C36     -1.9996   2.1684  12.5291   C.ar      3 RES3   0.0000
    87 H24     -2.4226   1.3459  12.6287   H         3 RES3   0.0000
    88 H25      6.0464   6.0109   8.9601   H         3 RES3   0.0000
    89 H26     -0.3114   5.2775  12.2115   H         3 RES3   0.0000
@<TRIPOS>BOND
     1     1     2    1
     2     3     1    1
     3     4     1    1
     4     5     1    1
     5     6     1    1
     6     7     1    1
     7     8     9    1
     8    10     8    1
     9    11     8    1
    10    12     8    1
    11    13     8    1
    12    14     8    1
    13    15    16    1
    14    16    30    2
    15    17    46    1
    16    18    15    1
    17    19    77    1
    18    20    15    1
    19    21    15    1
    20    22    15    1
    21    23    15    1
    22    24    21    1
    23    25    22    1
    24    26    32   ar
    25    27    33   ar
    26    28    22    2
    27    29    30    1
    28    30    25   am
    29    31    20   ar
    30    32    28    1
    31    33    35    1
    32    34    23   ar
    33    35    21    2
    34    36    31   ar
    35    37    36    1
    36    38    43    1
    37    39    20   ar
    38    40    39    1
    39    41    29   ar
    40    42    41    1
    41    43    18    1
    42    44    32   ar
    43    45    44    1
    44    46    29   ar
    45    47    23   ar
    46    48    47    1
    47    49    47   ar
    48    50    49    1
    49    51    41   ar
    50    52    51    1
    51    53    36   ar
    52    54    53    1
    53    55    39   ar
    54    56    55    1
    55    57    38   ar
    56    58    57    1
    57    59    46   ar
    58    60    59    1
    59    61    62    1
    60    63    64    1
    61    65    26   ar
    62    66    65    1
    63    67    51   ar
    64    68    67    1
    65    69    44   ar
    66    70    69    1
    67    71    57   ar
    68    72    71    1
    69    73    49   ar
    70    74    73    1
    71    75    34   ar
    72    76    75    1
    73    77    38   ar
    74    78    71   ar
    75    79    78    1
    76    80    27   ar
    77    81    80    1
    78    82    77   ar
    79    83    82    1
    80    84    33   ar
    81    85    84    1
    82    86    63   ar
    83    87    86    1
    84    88    25    1
    85    89    27    1
    86    24    43    2
    87    28    31    1
    88    34    35    1
    89    53    55   ar
    90    59    67   ar
    91    61    65   ar
    92    61    69   ar
    93    63    80   ar
    94    73    75   ar
    95    78    82   ar
    96    84    86   ar
@<TRIPOS>SUBSTRUCTURE
     1 RES1        1 GROUP             0 ****  ****    0  
     2 RES2        8 GROUP             0 ****  ****    0  
     3 RES3       15 GROUP             0 ****  ****    0  
@<TRIPOS>CRYSIN
   16.2481   15.9441   16.6934   90.0000  116.1600   90.0000   231     1
