@<TRIPOS>MOLECULE
BUPMIL
    89    96     3     0     0
SMALL
USER_CHARGES
****
Generated from the CSD

@<TRIPOS>ATOM
     1 As1      1.9612   2.1258   7.5468   As        1 RES1  -1.0000
     2 F1       3.2293   3.1396   6.9838   F         1 RES1   0.0000
     3 F2       2.2453   2.6868   9.1516   F         1 RES1   0.0000
     4 F3       1.6739   1.5709   5.9470   F         1 RES1   0.0000
     5 F4       3.1090   0.8835   7.7770   F         1 RES1   0.0000
     6 F5       0.7082   1.1310   8.1410   F         1 RES1   0.0000
     7 F6       0.8502   3.4031   7.3004   F         1 RES1   0.0000
     8 As2      6.1333   1.6418  -1.0702   As        2 RES2  -1.0000
     9 F7       5.7803   3.2452  -1.5917   F         2 RES2   0.0000
    10 F8       7.4491   2.2342  -0.1452   F         2 RES2   0.0000
    11 F9       6.4900   0.0443  -0.5586   F         2 RES2   0.0000
    12 F10      5.1132   1.8574   0.3021   F         2 RES2   0.0000
    13 F11      7.1663   1.4244  -2.4224   F         2 RES2   0.0000
    14 F12      4.7974   1.0700  -1.9743   F         2 RES2   0.0000
    15 Fe1      5.0835   5.0162   3.5555   Fe        3 RES3   1.0000
    16 F13      2.7169   6.2109   8.1714   F         3 RES3   0.0000
    17 O1       5.4896   6.8596   3.0047   O.3       3 RES3   0.0000
    18 O2       5.7090   5.4051   5.4021   O.2       3 RES3   0.0000
    19 F14      9.4833   7.6332   2.3569   F         3 RES3   0.0000
    20 N1       3.8955   4.8667   2.0072   N.ar      3 RES3   0.0000
    21 N2       5.2408   3.0877   3.8496   N.ar      3 RES3   0.0000
    22 N3       3.5149   5.7243   5.6864   N.am      3 RES3   0.0000
    23 N4       6.8080   4.7518   2.9273   N.2       3 RES3   0.0000
    24 N5       7.4877   5.8541   2.4843   N.2       3 RES3   0.0000
    25 N6       3.4403   5.3880   4.3650   N.2       3 RES3   0.0000
    26 N7       0.9739   6.2118   5.4765   N.ar      3 RES3   0.0000
    27 N8       9.6312   4.5024   2.7511   N.ar      3 RES3   1.0000
    28 C1       2.3045   5.3270   3.7071   C.2       3 RES3   0.0000
    29 C2       5.0129   6.1120   7.5565   C.ar      3 RES3   0.0000
    30 C3       6.6804   6.9121   2.5497   C.2       3 RES3   0.0000
    31 C4       6.4870   2.5734   3.5816   C.ar      3 RES3   0.0000
    32 C5       4.7606   5.7235   6.1630   C.2       3 RES3   0.0000
    33 C6       2.5705   5.1250   2.2735   C.ar      3 RES3   0.0000
    34 C7       0.9792   5.4692   4.3506   C.ar      3 RES3   0.0000
    35 C8       8.8519   3.3939   2.8103   C.ar      3 RES3   0.0000
    36 C9       4.5084   0.9472   4.6087   C.ar      3 RES3   0.0000
    37 H1       3.8256   0.4139   4.9472   H         3 RES3   0.0000
    38 C10      7.4145   3.5840   3.0566   C.2       3 RES3   0.0000
    39 C11      7.1914   8.1823   2.0072   C.ar      3 RES3   0.0000
    40 C12     -0.1579   4.8341   3.8812   C.ar      3 RES3   0.0000
    41 H2      -0.1292   4.3022   3.1188   H         3 RES3   0.0000
    42 C13      4.2694   4.7266   0.7266   C.ar      3 RES3   0.0000
    43 H3       5.1575   4.5220   0.5403   H         3 RES3   0.0000
    44 C14      6.3359   6.2731   7.9675   C.ar      3 RES3   0.0000
    45 H4       7.0241   6.1247   7.3582   H         3 RES3   0.0000
    46 C15      4.0159   6.3448   8.5139   C.ar      3 RES3   0.0000
    47 C16      4.2922   2.2779   4.3253   C.ar      3 RES3   0.0000
    48 H5       3.4429   2.6291   4.4721   H         3 RES3   0.0000
    49 C17      1.6543   5.3068   1.2588   C.ar      3 RES3   0.0000
    50 H6       0.7686   5.5093   1.4555   H         3 RES3   0.0000
    51 C18     11.6151   3.2912   2.4787   C.ar      3 RES3   0.0000
    52 H7      12.5430   3.2609   2.4203   H         3 RES3   0.0000
    53 C19      8.5432   8.4835   1.8770   C.ar      3 RES3   0.0000
    54 C20      4.3079   6.7161   9.8026   C.ar      3 RES3   0.0000
    55 H8       3.6242   6.8700  10.4141   H         3 RES3   0.0000
    56 C21      6.2874   9.1220   1.5193   C.ar      3 RES3   0.0000
    57 H9       5.3745   8.9570   1.5966   H         3 RES3   0.0000
    58 C22     -1.3660   5.8038   5.6984   C.ar      3 RES3   0.0000
    59 H10     -2.1585   5.9545   6.1605   H         3 RES3   0.0000
    60 C23      6.6449   6.6476   9.2548   C.ar      3 RES3   0.0000
    61 H11      7.5338   6.7605   9.5052   H         3 RES3   0.0000
    62 C24     -0.1812   6.3738   6.1264   C.ar      3 RES3   0.0000
    63 H12     -0.1888   6.8922   6.8979   H         3 RES3   0.0000
    64 C25      2.0697   5.1844  -0.0629   C.ar      3 RES3   0.0000
    65 H13      1.4676   5.3098  -0.7610   H         3 RES3   0.0000
    66 C26     -1.3475   5.0124   4.5832   C.ar      3 RES3   0.0000
    67 H14     -2.1279   4.5958   4.2948   H         3 RES3   0.0000
    68 C27      5.6322   6.8578  10.1813   C.ar      3 RES3   0.0000
    69 H15      5.8438   7.0927  11.0556   H         3 RES3   0.0000
    70 C28     10.9552   4.4854   2.5940   C.ar      3 RES3   0.0000
    71 H16     11.4312   5.2843   2.5625   H         3 RES3   0.0000
    72 C29      6.7122  10.2891   0.9280   C.ar      3 RES3   0.0000
    73 H17      6.0897  10.8957   0.5955   H         3 RES3   0.0000
    74 C30      3.3897   4.8739  -0.3233   C.ar      3 RES3   0.0000
    75 H18      3.6828   4.7648  -1.1990   H         3 RES3   0.0000
    76 C31      8.0637  10.5614   0.8247   C.ar      3 RES3   0.0000
    77 H19      8.3495  11.3546   0.4332   H         3 RES3   0.0000
    78 C32      5.7650   0.4267   4.3782   C.ar      3 RES3   0.0000
    79 H20      5.9442  -0.4663   4.5669   H         3 RES3   0.0000
    80 C33      8.9860   9.6554   1.3052   C.ar      3 RES3   0.0000
    81 H21      9.8961   9.8349   1.2445   H         3 RES3   0.0000
    82 C34      6.7566   1.2420   3.8648   C.ar      3 RES3   0.0000
    83 H22      7.6071   0.8980   3.7081   H         3 RES3   0.0000
    84 C35      9.4958   2.2021   2.5865   C.ar      3 RES3   0.0000
    85 H23      9.0006   1.4169   2.5250   H         3 RES3   0.0000
    86 C36     10.8750   2.1511   2.4533   C.ar      3 RES3   0.0000
    87 H24     11.2987   1.3300   2.3436   H         3 RES3   0.0000
    88 H25      2.8034   5.9996   5.9872   H         3 RES3   0.0000
    89 H26      9.2075   5.2067   2.7541   H         3 RES3   0.0000
@<TRIPOS>BOND
     1     1     2    1
     2     3     1    1
     3     4     1    1
     4     5     1    1
     5     6     1    1
     6     7     1    1
     7     8     9    1
     8    10     8    1
     9    11     8    1
    10    12     8    1
    11    13     8    1
    12    14     8    1
    13    15    17    1
    14    16    46    1
    15    17    30    1
    16    18    15    1
    17    19    53    1
    18    20    15    1
    19    21    15    1
    20    22    25    1
    21    23    15    1
    22    24    23    1
    23    25    15    1
    24    26    34   ar
    25    27    35   ar
    26    28    25    2
    27    29    32    1
    28    30    24    2
    29    31    21   ar
    30    32    18    2
    31    33    20   ar
    32    34    28    1
    33    35    38    1
    34    36    37    1
    35    38    23    2
    36    39    30    1
    37    40    34   ar
    38    41    40    1
    39    42    20   ar
    40    43    42    1
    41    44    29   ar
    42    45    44    1
    43    46    29   ar
    44    47    21   ar
    45    48    47    1
    46    49    33   ar
    47    50    49    1
    48    51    52    1
    49    53    39   ar
    50    54    46   ar
    51    55    54    1
    52    56    39   ar
    53    57    56    1
    54    58    59    1
    55    60    44   ar
    56    61    60    1
    57    62    26   ar
    58    63    62    1
    59    64    49   ar
    60    65    64    1
    61    66    40   ar
    62    67    66    1
    63    68    54   ar
    64    69    68    1
    65    70    27   ar
    66    71    70    1
    67    72    56   ar
    68    73    72    1
    69    74    42   ar
    70    75    74    1
    71    76    72   ar
    72    77    76    1
    73    78    36   ar
    74    79    78    1
    75    80    53   ar
    76    81    80    1
    77    82    31   ar
    78    83    82    1
    79    84    35   ar
    80    85    84    1
    81    86    51   ar
    82    87    86    1
    83    88    22    1
    84    89    27    1
    85    22    32   am
    86    28    33    1
    87    31    38    1
    88    36    47   ar
    89    51    70   ar
    90    58    62   ar
    91    58    66   ar
    92    60    68   ar
    93    64    74   ar
    94    76    80   ar
    95    78    82   ar
    96    84    86   ar
@<TRIPOS>SUBSTRUCTURE
     1 RES1        1 GROUP             0 ****  ****    0  
     2 RES2        8 GROUP             0 ****  ****    0  
     3 RES3       15 GROUP             0 ****  ****    0  
@<TRIPOS>CRYSIN
   16.2200   15.9225   16.6736   90.0000  116.1410   90.0000   231     1
