@<TRIPOS>MOLECULE
BUQVOZ
    89    98     1     0     0
SMALL
NO_CHARGES
****
Generated from the CSD

@<TRIPOS>ATOM
     1 Fe1      0.0000  12.8605   4.0198   Fe        1 RES1   0.0000
     2 S1       3.4656  13.0240   7.2441   S.2       1 RES1   0.0000
     3 P1       1.3404  14.3300   2.9782   P.3       1 RES1   0.0000
     4 P2       0.9804  11.4079   2.5939   P.3       1 RES1   0.0000
     5 N1       1.4137  12.8742   5.3464   N.2       1 RES1   0.0000
     6 N2       3.3957  12.6425   2.1468   N.3       1 RES1   0.0000
     7 N3       1.6174  13.1541   0.5004   N.3       1 RES1   0.0000
     8 C1       2.2660  12.9312   6.1386   C.1       1 RES1   0.0000
     9 C2       3.1286  13.8032   2.9925   C.3       1 RES1   0.0000
    10 H1       3.6879  14.5597   2.6853   H         1 RES1   0.0000
    11 H2       3.3929  13.5904   3.9234   H         1 RES1   0.0000
    12 C3       1.1369  14.3812   1.1463   C.3       1 RES1   0.0000
    13 H3       0.1791  14.5089   0.9294   H         1 RES1   0.0000
    14 H4       1.6362  15.1557   0.7847   H         1 RES1   0.0000
    15 C4       3.0391  12.9121   0.7602   C.3       1 RES1   0.0000
    16 H5       3.3297  12.1430   0.2090   H         1 RES1   0.0000
    17 H6       3.5494  13.7039   0.4567   H         1 RES1   0.0000
    18 C5       0.8305  11.9520   0.8086   C.3       1 RES1   0.0000
    19 H7       1.1290  11.2125   0.2219   H         1 RES1   0.0000
    20 H8      -0.1219  12.1311   0.6062   H         1 RES1   0.0000
    21 C6       2.8313  11.3750   2.6344   C.3       1 RES1   0.0000
    22 H9       3.1370  11.2140   3.5616   H         1 RES1   0.0000
    23 H10      3.1596  10.6300   2.0710   H         1 RES1   0.0000
    24 C7       1.5348  16.0623   3.5032   C.ar      1 RES1   0.0000
    25 C8       1.1557  17.1259   2.6801   C.ar      1 RES1   0.0000
    26 H11      0.7647  16.9540   1.8314   H         1 RES1   0.0000
    27 C9       1.3516  18.4331   3.1022   C.ar      1 RES1   0.0000
    28 H12      1.0928  19.1541   2.5405   H         1 RES1   0.0000
    29 C10      1.9161  18.6915   4.3279   C.ar      1 RES1   0.0000
    30 H13      2.0472  19.5887   4.6084   H         1 RES1   0.0000
    31 C11      2.2945  17.6488   5.1538   C.ar      1 RES1   0.0000
    32 H14      2.6854  17.8322   5.9992   H         1 RES1   0.0000
    33 C12      2.1047  16.3337   4.7491   C.ar      1 RES1   0.0000
    34 H15      2.3618  15.6187   5.3191   H         1 RES1   0.0000
    35 C13      0.4230   9.6882   2.4011   C.ar      1 RES1   0.0000
    36 C14     -0.8851   9.4517   1.9848   C.ar      1 RES1   0.0000
    37 H16     -1.4827  10.1819   1.8749   H         1 RES1   0.0000
    38 C15     -1.3260   8.1636   1.7281   C.ar      1 RES1   0.0000
    39 H17     -2.2188   8.0147   1.4375   H         1 RES1   0.0000
    40 C16     -0.4669   7.0954   1.8945   C.ar      1 RES1   0.0000
    41 H18     -0.7647   6.2134   1.7076   H         1 RES1   0.0000
    42 C17      0.8222   7.3106   2.3322   C.ar      1 RES1   0.0000
    43 H19      1.4089   6.5734   2.4553   H         1 RES1   0.0000
    44 C18      1.2664   8.6020   2.5941   C.ar      1 RES1   0.0000
    45 H20      2.1525   8.7421   2.9072   H         1 RES1   0.0000
    46 S1C     -3.4656  13.0240   0.7956   S.2       1 RES1   0.0000
    47 P1C     -1.3404  14.3300   5.0615   P.3       1 RES1   0.0000
    48 P2C     -0.9804  11.4079   5.4458   P.3       1 RES1   0.0000
    49 N1C     -1.4137  12.8742   2.6933   N.2       1 RES1   0.0000
    50 N2C     -3.3957  12.6425   5.8929   N.3       1 RES1   0.0000
    51 N3C     -1.6174  13.1541   7.5393   N.3       1 RES1   0.0000
    52 C1C     -2.2660  12.9312   1.9011   C.1       1 RES1   0.0000
    53 C2C     -3.1286  13.8032   5.0472   C.3       1 RES1   0.0000
    54 H1C     -3.6879  14.5597   5.3544   H         1 RES1   0.0000
    55 H2C     -3.3929  13.5904   4.1163   H         1 RES1   0.0000
    56 C3C     -1.1369  14.3812   6.8934   C.3       1 RES1   0.0000
    57 H3C     -0.1791  14.5089   7.1103   H         1 RES1   0.0000
    58 H4C     -1.6362  15.1557   7.2550   H         1 RES1   0.0000
    59 C4C     -3.0391  12.9121   7.2795   C.3       1 RES1   0.0000
    60 H5C     -3.3297  12.1430   7.8307   H         1 RES1   0.0000
    61 H6C     -3.5494  13.7039   7.5830   H         1 RES1   0.0000
    62 C5C     -0.8305  11.9520   7.2311   C.3       1 RES1   0.0000
    63 H7C     -1.1290  11.2125   7.8178   H         1 RES1   0.0000
    64 H8C      0.1219  12.1311   7.4335   H         1 RES1   0.0000
    65 C6C     -2.8313  11.3750   5.4053   C.3       1 RES1   0.0000
    66 H9C     -3.1370  11.2140   4.4781   H         1 RES1   0.0000
    67 H10C    -3.1596  10.6300   5.9687   H         1 RES1   0.0000
    68 C7C     -1.5348  16.0623   4.5365   C.ar      1 RES1   0.0000
    69 C8C     -1.1557  17.1259   5.3596   C.ar      1 RES1   0.0000
    70 H11C    -0.7647  16.9540   6.2083   H         1 RES1   0.0000
    71 C9C     -1.3516  18.4331   4.9375   C.ar      1 RES1   0.0000
    72 H12C    -1.0928  19.1541   5.4992   H         1 RES1   0.0000
    73 C10C    -1.9161  18.6915   3.7118   C.ar      1 RES1   0.0000
    74 H13C    -2.0472  19.5887   3.4313   H         1 RES1   0.0000
    75 C11C    -2.2945  17.6488   2.8859   C.ar      1 RES1   0.0000
    76 H14C    -2.6854  17.8322   2.0405   H         1 RES1   0.0000
    77 C12C    -2.1047  16.3337   3.2906   C.ar      1 RES1   0.0000
    78 H15C    -2.3618  15.6187   2.7206   H         1 RES1   0.0000
    79 C13C    -0.4230   9.6882   5.6386   C.ar      1 RES1   0.0000
    80 C14C     0.8851   9.4517   6.0549   C.ar      1 RES1   0.0000
    81 H16C     1.4827  10.1819   6.1648   H         1 RES1   0.0000
    82 C15C     1.3260   8.1636   6.3116   C.ar      1 RES1   0.0000
    83 H17C     2.2188   8.0147   6.6022   H         1 RES1   0.0000
    84 C16C     0.4669   7.0954   6.1452   C.ar      1 RES1   0.0000
    85 H18C     0.7647   6.2134   6.3321   H         1 RES1   0.0000
    86 C17C    -0.8222   7.3106   5.7075   C.ar      1 RES1   0.0000
    87 H19C    -1.4089   6.5734   5.5844   H         1 RES1   0.0000
    88 C18C    -1.2664   8.6020   5.4456   C.ar      1 RES1   0.0000
    89 H20C    -2.1525   8.7421   5.1325   H         1 RES1   0.0000
@<TRIPOS>BOND
     1     1     3    1
     2     2     8    2
     3     3     9    1
     4     4     1    1
     5     5     1    1
     6     6     9    1
     7     7    12    1
     8     8     5    2
     9     9    10    1
    10    11     9    1
    11    12     3    1
    12    13    12    1
    13    14    12    1
    14    15     6    1
    15    16    15    1
    16    17    15    1
    17    18     4    1
    18    19    18    1
    19    20    18    1
    20    21     4    1
    21    22    21    1
    22    23    21    1
    23    24     3    1
    24    25    24   ar
    25    26    25    1
    26    27    25   ar
    27    28    27    1
    28    29    27   ar
    29    30    29    1
    30    31    29   ar
    31    32    31    1
    32    33    24   ar
    33    34    33    1
    34    35     4    1
    35    36    35   ar
    36    37    36    1
    37    38    36   ar
    38    39    38    1
    39    40    38   ar
    40    41    40    1
    41    42    40   ar
    42    43    42    1
    43    44    35   ar
    44    45    44    1
    45    46    52    2
    46    47     1    1
    47    48     1    1
    48    49     1    1
    49    50    53    1
    50    51    56    1
    51    52    49    2
    52    53    47    1
    53    54    53    1
    54    55    53    1
    55    56    47    1
    56    57    56    1
    57    58    56    1
    58    59    50    1
    59    60    59    1
    60    61    59    1
    61    62    48    1
    62    63    62    1
    63    64    62    1
    64    65    48    1
    65    66    65    1
    66    67    65    1
    67    68    47    1
    68    69    68   ar
    69    70    69    1
    70    71    69   ar
    71    72    71    1
    72    73    71   ar
    73    74    73    1
    74    75    73   ar
    75    76    75    1
    76    77    68   ar
    77    78    77    1
    78    79    48    1
    79    80    79   ar
    80    81    80    1
    81    82    80   ar
    82    83    82    1
    83    84    82   ar
    84    85    84    1
    85    86    84   ar
    86    87    86    1
    87    88    79   ar
    88    89    88    1
    89     6    21    1
    90     7    15    1
    91     7    18    1
    92    31    33   ar
    93    42    44   ar
    94    50    65    1
    95    51    59    1
    96    51    62    1
    97    75    77   ar
    98    86    88   ar
@<TRIPOS>SUBSTRUCTURE
     1 RES1        1 GROUP             0 ****  ****    0  
@<TRIPOS>CRYSIN
   15.0527   14.9361   16.0794   90.0000   90.0000   90.0000    60     1
