@<TRIPOS>MOLECULE
BUQVEP
    91   100     2     0     0
SMALL
NO_CHARGES
****
Generated from the CSD

@<TRIPOS>ATOM
     1 Fe1     -1.1053   8.2616   5.9820   Fe        1 RES1   0.0000
     2 S1      -1.1053   5.6019   5.9820   S.o2      1 RES1   0.0000
     3 P1      -0.0568   8.2017   3.9548   P.3       1 RES1   0.0000
     4 P2       0.4856   9.6717   6.4811   P.3       1 RES1   0.0000
     5 O1      -0.0493   6.5570   6.4598   O.3       1 RES1   0.0000
     6 O2      -0.5849   4.7958   4.8933   O.2       1 RES1   0.0000
     7 N1       2.4798   8.5189   4.9579   N.3       1 RES1   0.0000
     8 N2       1.4496  10.5581   3.9984   N.3       1 RES1   0.0000
     9 C1      -0.7280   7.3297   2.4957   C.ar      1 RES1   0.0000
    10 C2       0.0243   7.1655   1.3543   C.ar      1 RES1   0.0000
    11 H1       0.9353   7.4339   1.3567   H         1 RES1   0.0000
    12 C3      -0.5271   6.6077   0.1819   C.ar      1 RES1   0.0000
    13 H2       0.0052   6.4997  -0.5958   H         1 RES1   0.0000
    14 C4      -1.8461   6.2227   0.1842   C.ar      1 RES1   0.0000
    15 H3      -2.2325   5.8455  -0.5958   H         1 RES1   0.0000
    16 C5      -2.6023   6.3832   1.3136   C.ar      1 RES1   0.0000
    17 H4      -3.5173   6.1244   1.2993   H         1 RES1   0.0000
    18 C6      -2.0745   6.9095   2.4718   C.ar      1 RES1   0.0000
    19 H5      -2.6150   6.9888   3.2518   H         1 RES1   0.0000
    20 C7       1.6682   7.5447   4.2257   C.3       1 RES1   0.0000
    21 H6       1.6245   6.6984   4.7377   H         1 RES1   0.0000
    22 H7       2.0907   7.3527   3.3499   H         1 RES1   0.0000
    23 C8       0.4805   9.8150   3.1920   C.3       1 RES1   0.0000
    24 H8       0.8774   9.6307   2.3043   H         1 RES1   0.0000
    25 H9      -0.3190  10.3824   3.0532   H         1 RES1   0.0000
    26 C9       2.6742   9.7625   4.2233   C.3       1 RES1   0.0000
    27 H10      3.0744   9.5476   3.3427   H         1 RES1   0.0000
    28 H11      3.3244  10.3212   4.7186   H         1 RES1   0.0000
    29 C10      2.1051   8.7577   6.3433   C.3       1 RES1   0.0000
    30 H12      2.8155   9.2849   6.7884   H         1 RES1   0.0000
    31 H13      2.0303   7.8895   6.8147   H         1 RES1   0.0000
    32 C11      0.8951  11.0319   5.2713   C.3       1 RES1   0.0000
    33 H14      0.0717  11.5505   5.0871   H         1 RES1   0.0000
    34 H15      1.5468  11.6460   5.6925   H         1 RES1   0.0000
    35 C12      0.6004  10.5810   8.0350   C.ar      1 RES1   0.0000
    36 C13      1.0654   9.9812   9.2075   C.ar      1 RES1   0.0000
    37 H16      1.4333   9.1053   9.1692   H         1 RES1   0.0000
    38 C14      1.0007  10.6364  10.4254   C.ar      1 RES1   0.0000
    39 H17      1.2908  10.1971  11.2174   H         1 RES1   0.0000
    40 C15      0.5184  11.9240  10.4900   C.ar      1 RES1   0.0000
    41 H18      0.4736  12.3757  11.3251   H         1 RES1   0.0000
    42 C16      0.0988  12.5563   9.3391   C.ar      1 RES1   0.0000
    43 H19     -0.2269  13.4474   9.3821   H         1 RES1   0.0000
    44 C17      0.1473  11.9087   8.1331   C.ar      1 RES1   0.0000
    45 H20     -0.1298  12.3652   7.3459   H         1 RES1   0.0000
    46 P1A     -2.1539   8.2017   8.0092   P.3       1 RES1   0.0000
    47 P2A     -2.6963   9.6717   5.4828   P.3       1 RES1   0.0000
    48 O1A     -2.1614   6.5570   5.5041   O.3       1 RES1   0.0000
    49 O2A     -1.6258   4.7958   7.0707   O.2       1 RES1   0.0000
    50 N1A     -4.6905   8.5189   7.0061   N.3       1 RES1   0.0000
    51 N2A     -3.6603  10.5581   7.9656   N.3       1 RES1   0.0000
    52 C1A     -1.4827   7.3297   9.4683   C.ar      1 RES1   0.0000
    53 C2A     -2.2350   7.1655  10.6096   C.ar      1 RES1   0.0000
    54 H1A     -3.1460   7.4339  10.6073   H         1 RES1   0.0000
    55 C3A     -1.6836   6.6077  11.7821   C.ar      1 RES1   0.0000
    56 H2A     -2.2159   6.4997  12.5598   H         1 RES1   0.0000
    57 C4A     -0.3646   6.2227  11.7797   C.ar      1 RES1   0.0000
    58 H3A      0.0218   5.8455  12.5598   H         1 RES1   0.0000
    59 C5A      0.3916   6.3832  10.6503   C.ar      1 RES1   0.0000
    60 H4A      1.3066   6.1244  10.6647   H         1 RES1   0.0000
    61 C6A     -0.1362   6.9095   9.4922   C.ar      1 RES1   0.0000
    62 H5A      0.4043   6.9888   8.7122   H         1 RES1   0.0000
    63 C7A     -3.8789   7.5447   7.7383   C.3       1 RES1   0.0000
    64 H6A     -3.8352   6.6984   7.2262   H         1 RES1   0.0000
    65 H7A     -4.3013   7.3527   8.6141   H         1 RES1   0.0000
    66 C8A     -2.6912   9.8150   8.7720   C.3       1 RES1   0.0000
    67 H8A     -3.0881   9.6307   9.6597   H         1 RES1   0.0000
    68 H9A     -1.8917  10.3824   8.9108   H         1 RES1   0.0000
    69 C9A     -4.8848   9.7625   7.7407   C.3       1 RES1   0.0000
    70 H10A    -5.2851   9.5476   8.6212   H         1 RES1   0.0000
    71 H11A    -5.5351  10.3212   7.2454   H         1 RES1   0.0000
    72 C10A    -4.3158   8.7577   5.6207   C.3       1 RES1   0.0000
    73 H12A    -5.0262   9.2849   5.1756   H         1 RES1   0.0000
    74 H13A    -4.2410   7.8895   5.1493   H         1 RES1   0.0000
    75 C11A    -3.1058  11.0319   6.6926   C.3       1 RES1   0.0000
    76 H14A    -2.2824  11.5505   6.8769   H         1 RES1   0.0000
    77 H15A    -3.7575  11.6460   6.2715   H         1 RES1   0.0000
    78 C12A    -2.8110  10.5810   3.9290   C.ar      1 RES1   0.0000
    79 C13A    -3.2761   9.9812   2.7565   C.ar      1 RES1   0.0000
    80 H16A    -3.6440   9.1053   2.7948   H         1 RES1   0.0000
    81 C14A    -3.2114  10.6364   1.5386   C.ar      1 RES1   0.0000
    82 H17A    -3.5015  10.1971   0.7466   H         1 RES1   0.0000
    83 C15A    -2.7291  11.9240   1.4740   C.ar      1 RES1   0.0000
    84 H18A    -2.6843  12.3757   0.6389   H         1 RES1   0.0000
    85 C16A    -2.3094  12.5563   2.6249   C.ar      1 RES1   0.0000
    86 H19A    -1.9838  13.4474   2.5818   H         1 RES1   0.0000
    87 C17A    -2.3580  11.9087   3.8309   C.ar      1 RES1   0.0000
    88 H20A    -2.0809  12.3652   4.6181   H         1 RES1   0.0000
    89 O3       1.2744   3.8540   2.9264   O.3       2 RES2   0.0000
    90 H21      0.6513   4.2695   3.4026   H         2 RES2   0.0000
    91 H22      1.5551   3.0756   3.2686   H         2 RES2   0.0000
@<TRIPOS>BOND
     1     1     3    1
     2     2     5    1
     3     3     9    1
     4     4     1    1
     5     5     1    1
     6     6     2    2
     7     7    20    1
     8     8    23    1
     9     9    10   ar
    10    10    11    1
    11    12    10   ar
    12    13    12    1
    13    14    12   ar
    14    15    14    1
    15    16    14   ar
    16    17    16    1
    17    18     9   ar
    18    19    18    1
    19    20     3    1
    20    21    20    1
    21    22    20    1
    22    23     3    1
    23    24    23    1
    24    25    23    1
    25    26     7    1
    26    27    26    1
    27    28    26    1
    28    29     4    1
    29    30    29    1
    30    31    29    1
    31    32     4    1
    32    33    32    1
    33    34    32    1
    34    35     4    1
    35    36    35   ar
    36    37    36    1
    37    38    36   ar
    38    39    38    1
    39    40    38   ar
    40    41    40    1
    41    42    40   ar
    42    43    42    1
    43    44    35   ar
    44    45    44    1
    45    46     1    1
    46    47     1    1
    47    48     1    1
    48    49     2    2
    49    50    63    1
    50    51    66    1
    51    52    46    1
    52    53    52   ar
    53    54    53    1
    54    55    53   ar
    55    56    55    1
    56    57    55   ar
    57    58    57    1
    58    59    57   ar
    59    60    59    1
    60    61    52   ar
    61    62    61    1
    62    63    46    1
    63    64    63    1
    64    65    63    1
    65    66    46    1
    66    67    66    1
    67    68    66    1
    68    69    50    1
    69    70    69    1
    70    71    69    1
    71    72    47    1
    72    73    72    1
    73    74    72    1
    74    75    47    1
    75    76    75    1
    76    77    75    1
    77    78    47    1
    78    79    78   ar
    79    80    79    1
    80    81    79   ar
    81    82    81    1
    82    83    81   ar
    83    84    83    1
    84    85    83   ar
    85    86    85    1
    86    87    78   ar
    87    88    87    1
    88     2    48    1
    89     7    29    1
    90     8    26    1
    91     8    32    1
    92    16    18   ar
    93    42    44   ar
    94    50    72    1
    95    51    69    1
    96    51    75    1
    97    59    61   ar
    98    85    87   ar
    99    89    90    1
   100    91    89    1
@<TRIPOS>SUBSTRUCTURE
     1 RES1        1 GROUP             0 ****  ****    0  
     2 RES2       89 GROUP             0 ****  ****    0  
@<TRIPOS>CRYSIN
   15.4220    9.5514   24.3330   90.0000  100.4690   90.0000    15     1
