@<TRIPOS>MOLECULE
BUTHOO
   105   110     3     0     0
SMALL
USER_CHARGES
****
Generated from the CSD

@<TRIPOS>ATOM
     1 Fe1     -5.0921  -0.9100  10.3187   Fe        1 RES1   2.0000
     2 N1      -6.7379  -0.1016  11.5920   N.3       1 RES1   0.0000
     3 C1      -7.7817   0.4479  10.6718   C.3       1 RES1   0.0000
     4 H1      -8.4283   0.9988  11.1792   H         1 RES1   0.0000
     5 H2      -8.2741  -0.2910  10.2341   H         1 RES1   0.0000
     6 C2      -7.0643   1.3088   9.6143   C.ar      1 RES1   0.0000
     7 N2      -5.9600   0.7551   9.0974   N.ar      1 RES1   0.0000
     8 C3      -5.3638   1.3960   8.0707   C.ar      1 RES1   0.0000
     9 C4      -5.8650   2.6308   7.6093   C.ar      1 RES1   0.0000
    10 H3      -5.4357   3.0738   6.8866   H         1 RES1   0.0000
    11 C5      -6.9390   3.1819   8.1795   C.ar      1 RES1   0.0000
    12 H4      -7.2606   4.0243   7.8790   H         1 RES1   0.0000
    13 C6      -7.5883   2.5106   9.2228   C.ar      1 RES1   0.0000
    14 H5      -8.3612   2.8745   9.6415   H         1 RES1   0.0000
    15 N3      -4.2760   0.8526   7.4414   N.am      1 RES1   0.0000
    16 H6      -3.8580   1.3497   6.7423   H         1 RES1   0.0000
    17 C7      -3.6411  -0.3466   7.6839   C.2       1 RES1   0.0000
    18 O1      -3.9750  -1.0949   8.6479   O.2       1 RES1   0.0000
    19 N4      -2.6519  -0.6865   6.8630   N.am      1 RES1   0.0000
    20 H7      -2.6078  -0.2026   6.0208   H         1 RES1   0.0000
    21 C8      -1.8944  -1.8784   7.0771   C.3       1 RES1   0.0000
    22 H8      -2.4976  -2.6635   7.0676   H         1 RES1   0.0000
    23 H9      -1.4526  -1.8380   7.9618   H         1 RES1   0.0000
    24 C9      -0.8392  -2.0259   5.9794   C.3       1 RES1   0.0000
    25 H10     -1.2967  -2.0763   5.1029   H         1 RES1   0.0000
    26 H11     -0.2710  -1.2148   5.9734   H         1 RES1   0.0000
    27 C10      0.0398  -3.2228   6.1296   C.3       1 RES1   0.0000
    28 H12     -0.5308  -4.0292   6.2100   H         1 RES1   0.0000
    29 H13      0.5574  -3.1366   6.9694   H         1 RES1   0.0000
    30 C11      1.0302  -3.4238   4.9503   C.3       1 RES1   0.0000
    31 H14      0.5131  -3.5268   4.1128   H         1 RES1   0.0000
    32 H15      1.5896  -2.6123   4.8604   H         1 RES1   0.0000
    33 C12      1.9314  -4.6162   5.1123   C.3       1 RES1   0.0000
    34 H16      2.2787  -4.8740   4.2216   H         1 RES1   0.0000
    35 H17      1.3935  -5.3745   5.4542   H         1 RES1   0.0000
    36 C13      3.1237  -4.3972   6.0574   C.3       1 RES1   0.0000
    37 H18      3.6527  -5.2197   6.1118   H         1 RES1   0.0000
    38 H19      2.7930  -4.1611   6.9493   H         1 RES1   0.0000
    39 H20      3.6828  -3.6697   5.7132   H         1 RES1   0.0000
    40 C14     -6.2625   0.9659  12.5005   C.3       1 RES1   0.0000
    41 H21     -6.7684   0.9199  13.3498   H         1 RES1   0.0000
    42 H22     -6.4403   1.8478  12.0876   H         1 RES1   0.0000
    43 C15     -4.7922   0.8433  12.7914   C.ar      1 RES1   0.0000
    44 N5      -4.0981   0.0593  11.9457   N.ar      1 RES1   0.0000
    45 C16     -2.7399  -0.0566  12.1468   C.ar      1 RES1   0.0000
    46 C17     -2.1157   0.7090  13.1085   C.ar      1 RES1   0.0000
    47 H23     -1.1698   0.6702  13.1924   H         1 RES1   0.0000
    48 C18     -2.8204   1.5169  13.9341   C.ar      1 RES1   0.0000
    49 H24     -2.3761   2.0361  14.5941   H         1 RES1   0.0000
    50 C19     -4.2283   1.5763  13.8016   C.ar      1 RES1   0.0000
    51 H25     -4.7586   2.1027  14.3871   H         1 RES1   0.0000
    52 N6      -2.0271  -0.9465  11.3673   N.am      1 RES1   0.0000
    53 H26     -1.0631  -0.8153  11.3436   H         1 RES1   0.0000
    54 C20     -2.5096  -2.1946  11.0018   C.2       1 RES1   0.0000
    55 O2      -3.7302  -2.4761  11.0041   O.2       1 RES1   0.0000
    56 N7      -1.5714  -3.0760  10.6363   N.am      1 RES1   0.0000
    57 H27     -0.6876  -2.8692  10.9178   H         1 RES1   0.0000
    58 C21     -1.8933  -4.4088  10.1312   C.3       1 RES1   0.0000
    59 H28     -2.5732  -4.3481   9.4144   H         1 RES1   0.0000
    60 H29     -2.2536  -4.9732  10.8598   H         1 RES1   0.0000
    61 C22     -0.5472  -5.0375   9.5599   C.3       1 RES1   0.0000
    62 H30     -0.1335  -4.4035   8.9223   H         1 RES1   0.0000
    63 H31      0.0886  -5.1796  10.3051   H         1 RES1   0.0000
    64 C23     -0.7885  -6.2907   8.8951   C.3       1 RES1   0.0000
    65 H32     -1.4889  -6.1760   8.2055   H         1 RES1   0.0000
    66 H33     -1.1037  -6.9644   9.5492   H         1 RES1   0.0000
    67 C24      0.5254  -6.7711   8.2374   C.3       1 RES1   0.0000
    68 H34      0.3244  -7.6507   7.8305   H         1 RES1   0.0000
    69 H35      0.7017  -6.1501   7.4863   H         1 RES1   0.0000
    70 C25      1.7509  -6.9226   8.9164   C.3       1 RES1   0.0000
    71 H36      1.5834  -7.4128   9.7610   H         1 RES1   0.0000
    72 H37      2.0910  -6.0243   9.1565   H         1 RES1   0.0000
    73 C26      2.8091  -7.6417   8.1535   C.3       1 RES1   0.0000
    74 H38      3.6227  -7.6953   8.6964   H         1 RES1   0.0000
    75 H39      2.9997  -7.1563   7.3243   H         1 RES1   0.0000
    76 H40      2.4986  -8.5464   7.9394   H         1 RES1   0.0000
    77 C27     -7.2734  -1.2641  12.3301   C.3       1 RES1   0.0000
    78 H41     -8.1665  -1.0444  12.6956   H         1 RES1   0.0000
    79 H42     -6.6746  -1.4842  13.0883   H         1 RES1   0.0000
    80 C28     -7.3807  -2.4611  11.4016   C.ar      1 RES1   0.0000
    81 N8      -6.4919  -2.5086  10.4115   N.ar      1 RES1   0.0000
    82 C29     -6.4830  -3.5934   9.6131   C.ar      1 RES1   0.0000
    83 H43     -5.8204  -3.6599   8.9365   H         1 RES1   0.0000
    84 C30     -7.4071  -4.6095   9.7479   C.ar      1 RES1   0.0000
    85 H44     -7.4020  -5.3459   9.1482   H         1 RES1   0.0000
    86 C31     -8.3301  -4.5439  10.7557   C.ar      1 RES1   0.0000
    87 H45     -8.9614  -5.2448  10.8705   H         1 RES1   0.0000
    88 C32     -8.3429  -3.4448  11.6145   C.ar      1 RES1   0.0000
    89 H46     -8.9808  -3.3705  12.3148   H         1 RES1   0.0000
    90 O3      -3.1918   2.5909   5.4447   O.3       2 RES2  -1.0000
    91 O4      -1.8695   0.8088   4.4996   O.2       2 RES2   0.0000
    92 O5      -2.3329   2.7943   3.1878   O.2       2 RES2   0.0000
    93 S1      -2.1776   2.2154   4.4913   S.o2      2 RES2   0.0000
    94 C33     -0.6520   2.9811   5.1632   C.3       2 RES2   0.0000
    95 F1      -0.8137   4.2823   5.2129   F         2 RES2   0.0000
    96 F2       0.3747   2.7101   4.3920   F         2 RES2   0.0000
    97 F3      -0.4508   2.5208   6.3910   F         2 RES2   0.0000
    98 O6       0.7106  -0.2692  11.5412   O.3       3 RES3  -1.0000
    99 O7       1.3254  -2.5952  11.2265   O.2       3 RES3   0.0000
   100 O8       3.0148  -0.9578  11.8605   O.2       3 RES3   0.0000
   101 S2       1.7622  -1.2241  11.2231   S.o2      3 RES3   0.0000
   102 C34      2.0814  -0.9043   9.4783   C.3       3 RES3   0.0000
   103 F4       0.9723  -1.0599   8.7461   F         3 RES3   0.0000
   104 F5       2.4986   0.3499   9.2772   F         3 RES3   0.0000
   105 F6       3.0208  -1.7361   8.9815   F         3 RES3   0.0000
@<TRIPOS>BOND
     1     1     2    1
     2     2     3    1
     3     3     4    1
     4     5     3    1
     5     6     3    1
     6     7     1    1
     7     8     7   ar
     8     9     8   ar
     9    10     9    1
    10    11     9   ar
    11    12    11    1
    12    13     6   ar
    13    14    13    1
    14    15     8    1
    15    16    15    1
    16    17    15   am
    17    18     1    1
    18    19    17   am
    19    20    19    1
    20    21    19    1
    21    22    21    1
    22    23    21    1
    23    24    21    1
    24    25    24    1
    25    26    24    1
    26    27    24    1
    27    28    27    1
    28    29    27    1
    29    30    27    1
    30    31    30    1
    31    32    30    1
    32    33    30    1
    33    34    33    1
    34    35    33    1
    35    36    33    1
    36    37    36    1
    37    38    36    1
    38    39    36    1
    39    40     2    1
    40    41    40    1
    41    42    40    1
    42    43    40    1
    43    44     1    1
    44    45    44   ar
    45    46    45   ar
    46    47    46    1
    47    48    46   ar
    48    49    48    1
    49    50    43   ar
    50    51    50    1
    51    52    45    1
    52    53    52    1
    53    54    52   am
    54    55     1    1
    55    56    54   am
    56    57    56    1
    57    58    56    1
    58    59    58    1
    59    60    58    1
    60    61    58    1
    61    62    61    1
    62    63    61    1
    63    64    61    1
    64    65    64    1
    65    66    64    1
    66    67    64    1
    67    68    67    1
    68    69    67    1
    69    70    67    1
    70    71    70    1
    71    72    70    1
    72    73    70    1
    73    74    73    1
    74    75    73    1
    75    76    73    1
    76    77     2    1
    77    78    77    1
    78    79    77    1
    79    80    77    1
    80    81     1    1
    81    82    81   ar
    82    83    82    1
    83    84    82   ar
    84    85    84    1
    85    86    84   ar
    86    87    86    1
    87    88    80   ar
    88    89    88    1
    89     6     7   ar
    90    11    13   ar
    91    17    18    2
    92    43    44   ar
    93    48    50   ar
    94    54    55    2
    95    80    81   ar
    96    86    88   ar
    97    90    93    1
    98    91    93    2
    99    92    93    2
   100    93    94    1
   101    94    95    1
   102    96    94    1
   103    97    94    1
   104    98   101    1
   105    99   101    2
   106   100   101    2
   107   101   102    1
   108   102   103    1
   109   104   102    1
   110   105   102    1
@<TRIPOS>SUBSTRUCTURE
     1 RES1        1 GROUP             0 ****  ****    0  
     2 RES2       90 GROUP             0 ****  ****    0  
     3 RES3       98 GROUP             0 ****  ****    0  
@<TRIPOS>CRYSIN
   13.4717   14.1102   14.3911   98.3900  117.7700  110.2700     2     1
