@<TRIPOS>MOLECULE
BUTPOY
    88    94     4     0     0
SMALL
USER_CHARGES
****
Generated from the CSD

@<TRIPOS>ATOM
     1 Fe1      4.3373   7.0537   1.0488   Fe        1 RES1   2.0000
     2 N1       2.2714   7.3848   0.6480   N.ar      1 RES1   0.0000
     3 C1       1.8800   8.3032  -0.2292   C.ar      1 RES1   0.0000
     4 C2       0.5605   8.6798  -0.4353   C.ar      1 RES1   0.0000
     5 H1       0.3235   9.3349  -1.0828   H         1 RES1   0.0000
     6 C3      -0.4083   8.0447   0.3584   C.ar      1 RES1   0.0000
     7 C4      -0.0141   7.0767   1.2966   C.ar      1 RES1   0.0000
     8 H2      -0.6498   6.6364   1.8472   H         1 RES1   0.0000
     9 C5       1.3230   6.7899   1.3873   C.ar      1 RES1   0.0000
    10 N2       2.9655   8.8946  -0.9115   N.pl3     1 RES1   0.0000
    11 N3       4.2341   8.5971  -0.4760   N.2       1 RES1   0.0000
    12 C6       5.0336   9.3444  -1.2182   C.2       1 RES1   0.0000
    13 H3       5.9806   9.3656  -1.1366   H         1 RES1   0.0000
    14 C7       4.2970  10.1010  -2.1410   C.2       1 RES1   0.0000
    15 H4       4.6432  10.7054  -2.7885   H         1 RES1   0.0000
    16 C8       2.9889   9.7977  -1.9241   C.2       1 RES1   0.0000
    17 H5       2.2402  10.1482  -2.3902   H         1 RES1   0.0000
    18 N4       1.8442   5.8337   2.2836   N.pl3     1 RES1   0.0000
    19 N5       3.2056   5.7039   2.3731   N.2       1 RES1   0.0000
    20 C9       3.3888   4.6993   3.2192   C.2       1 RES1   0.0000
    21 H6       4.2407   4.3783   3.4884   H         1 RES1   0.0000
    22 C10      2.1656   4.1681   3.6714   C.2       1 RES1   0.0000
    23 H7       2.0365   3.4469   4.2759   H         1 RES1   0.0000
    24 C11      1.2010   4.9177   3.0500   C.2       1 RES1   0.0000
    25 H8       0.2606   4.8150   3.1392   H         1 RES1   0.0000
    26 S1      -2.1252   8.3323   0.2745   S.3       1 RES1   0.0000
    27 C12     -2.3136   9.8980  -0.6383   C.3       1 RES1   0.0000
    28 H9      -1.8134   9.8413  -1.5027   H         1 RES1   0.0000
    29 C13     -1.7826  11.0678   0.1769   C.3       1 RES1   0.0000
    30 H10     -1.8566  11.8918  -0.3491   H         1 RES1   0.0000
    31 H11     -0.8433  10.9073   0.4030   H         1 RES1   0.0000
    32 H12     -2.3057  11.1563   0.9998   H         1 RES1   0.0000
    33 C14     -3.8065  10.0361  -0.9228   C.3       1 RES1   0.0000
    34 H13     -4.3021  10.0408  -0.0769   H         1 RES1   0.0000
    35 H14     -4.1058   9.2806  -1.4719   H         1 RES1   0.0000
    36 H15     -3.9709  10.8742  -1.4027   H         1 RES1   0.0000
    37 N6       6.2802   6.7191   1.8348   N.ar      1 RES1   0.0000
    38 C15      7.0679   5.7476   1.3520   C.ar      1 RES1   0.0000
    39 C16      8.2643   5.3816   1.9118   C.ar      1 RES1   0.0000
    40 H16      8.7884   4.6781   1.5458   H         1 RES1   0.0000
    41 C17      8.6842   6.0923   3.0485   C.ar      1 RES1   0.0000
    42 C18      7.9155   7.1487   3.5391   C.ar      1 RES1   0.0000
    43 H17      8.1981   7.6681   4.2820   H         1 RES1   0.0000
    44 C19      6.7205   7.4025   2.8870   C.ar      1 RES1   0.0000
    45 N7       6.5224   5.1609   0.1944   N.pl3     1 RES1   0.0000
    46 N8       5.2674   5.5504  -0.2066   N.2       1 RES1   0.0000
    47 C20      5.0525   4.9201  -1.3566   C.2       1 RES1   0.0000
    48 H18      4.2569   4.9933  -1.8703   H         1 RES1   0.0000
    49 C21      6.1581   4.1304  -1.7103   C.2       1 RES1   0.0000
    50 H19      6.2484   3.5838  -2.4825   H         1 RES1   0.0000
    51 C22      7.0824   4.3133  -0.7121   C.2       1 RES1   0.0000
    52 H20      7.9478   3.9226  -0.6629   H         1 RES1   0.0000
    53 N9       5.8283   8.4224   3.2749   N.pl3     1 RES1   0.0000
    54 N10      4.6647   8.5641   2.5706   N.2       1 RES1   0.0000
    55 C23      4.0648   9.6182   3.1023   C.2       1 RES1   0.0000
    56 H21      3.2264   9.9629   2.8162   H         1 RES1   0.0000
    57 C24      4.8345  10.1612   4.1513   C.2       1 RES1   0.0000
    58 H22      4.6225  10.9155   4.6896   H         1 RES1   0.0000
    59 C25      5.9463   9.3751   4.2297   C.2       1 RES1   0.0000
    60 H23      6.6680   9.4766   4.8403   H         1 RES1   0.0000
    61 S2      10.1649   5.5148   3.7795   S.3       1 RES1   0.0000
    62 C26     10.6602   6.8253   4.9419   C.3       1 RES1   0.0000
    63 H24      9.8828   7.0602   5.5263   H         1 RES1   0.0000
    64 C27     11.1242   8.0695   4.1943   C.3       1 RES1   0.0000
    65 H25     11.3958   8.7565   4.8388   H         1 RES1   0.0000
    66 H26     10.3907   8.4118   3.6422   H         1 RES1   0.0000
    67 H27     11.8863   7.8417   3.6206   H         1 RES1   0.0000
    68 C28     11.7792   6.2422   5.8001   C.3       1 RES1   0.0000
    69 H28     12.5431   6.0167   5.2295   H         1 RES1   0.0000
    70 H29     11.4587   5.4336   6.2508   H         1 RES1   0.0000
    71 H30     12.0561   6.9032   6.4692   H         1 RES1   0.0000
    72 Cl1      7.6265   9.2846   7.6258   Cl        2 RES2   0.0000
    73 O1       8.5672   9.9499   8.4827   O.2       2 RES2   0.0000
    74 O2       6.6597  10.2155   7.1196   O.2       2 RES2   0.0000
    75 O3       6.9519   8.2560   8.3641   O.2       2 RES2   0.0000
    76 O4       8.3574   8.6916   6.5150   O.3       2 RES2  -1.0000
    77 Cl2      0.8209  11.5565   3.4662   Cl        3 RES3   0.0000
    78 O5       2.1222  12.1798   3.4662   O.2       3 RES3   0.0000
    79 O6      -0.1781  12.5197   3.0337   O.3       3 RES3  -1.0000
    80 O7       0.5036  11.1245   4.8159   O.2       3 RES3   0.0000
    81 O8       0.8232  10.4221   2.5827   O.2       3 RES3   0.0000
    82 C29      9.7615   6.4735   8.8024   C.3       4 RES4   0.0000
    83 H31      9.3359   5.5906   8.8378   H         4 RES4   0.0000
    84 H32     10.0774   6.6471   7.8919   H         4 RES4   0.0000
    85 H33      9.1112   7.1594   9.0593   H         4 RES4   0.0000
    86 N11     10.9171   6.5066   9.7437   N.pl3     4 RES4   0.0000
    87 O9      10.9958   7.4498  10.4989   O.2       4 RES4   0.0000
    88 O10     11.6955   5.5646   9.7434   O.2       4 RES4   0.0000
@<TRIPOS>BOND
     1     1     2    1
     2     2     3   ar
     3     3     4   ar
     4     4     5    1
     5     6     4   ar
     6     7     6   ar
     7     8     7    1
     8     9     2   ar
     9    10     3    1
    10    11     1    1
    11    12    11    2
    12    13    12    1
    13    14    12    1
    14    15    14    1
    15    16    10    1
    16    17    16    1
    17    18     9    1
    18    19     1    1
    19    20    19    2
    20    21    20    1
    21    22    20    1
    22    23    22    1
    23    24    18    1
    24    25    24    1
    25    26     6    1
    26    27    26    1
    27    28    27    1
    28    29    27    1
    29    30    29    1
    30    31    29    1
    31    32    29    1
    32    33    27    1
    33    34    33    1
    34    35    33    1
    35    36    33    1
    36    37     1    1
    37    38    37   ar
    38    39    38   ar
    39    40    39    1
    40    41    39   ar
    41    42    41   ar
    42    43    42    1
    43    44    37   ar
    44    45    38    1
    45    46     1    1
    46    47    46    2
    47    48    47    1
    48    49    47    1
    49    50    49    1
    50    51    45    1
    51    52    51    1
    52    53    44    1
    53    54     1    1
    54    55    54    2
    55    56    55    1
    56    57    55    1
    57    58    57    1
    58    59    53    1
    59    60    59    1
    60    61    41    1
    61    62    61    1
    62    63    62    1
    63    64    62    1
    64    65    64    1
    65    66    64    1
    66    67    64    1
    67    68    62    1
    68    69    68    1
    69    70    68    1
    70    71    68    1
    71     7     9   ar
    72    10    11    1
    73    14    16    2
    74    18    19    1
    75    22    24    2
    76    42    44   ar
    77    45    46    1
    78    49    51    2
    79    53    54    1
    80    57    59    2
    81    72    73    2
    82    74    72    2
    83    75    72    2
    84    76    72    1
    85    77    78    2
    86    79    77    1
    87    80    77    2
    88    81    77    2
    89    82    83    1
    90    84    82    1
    91    85    82    1
    92    86    82    1
    93    87    86    2
    94    88    86    2
@<TRIPOS>SUBSTRUCTURE
     1 RES1        1 GROUP             0 ****  ****    0  
     2 RES2       72 GROUP             0 ****  ****    0  
     3 RES3       77 GROUP             0 ****  ****    0  
     4 RES4       82 GROUP             0 ****  ****    0  
@<TRIPOS>CRYSIN
   20.5362   11.8044   15.7396   90.0000  102.2570   90.0000    14     1
