@<TRIPOS>MOLECULE
BUVTIW
   118   130     2     0     0
SMALL
USER_CHARGES
****
Generated from the CSD

@<TRIPOS>ATOM
     1 C1       9.5073  -0.5489  18.2610   C.ar      1 RES1   0.0000
     2 C2      10.5609  -1.4100  17.9743   C.ar      1 RES1   0.0000
     3 H1      11.1298  -1.2190  17.2630   H         1 RES1   0.0000
     4 C3      10.7752  -2.5419  18.7287   C.ar      1 RES1   0.0000
     5 H2      11.4793  -3.1137  18.5240   H         1 RES1   0.0000
     6 C4       9.9467  -2.8228  19.7780   C.ar      1 RES1   0.0000
     7 H3      10.0929  -3.5896  20.2824   H         1 RES1   0.0000
     8 C5       8.8956  -1.9888  20.1020   C.ar      1 RES1   0.0000
     9 H4       8.3519  -2.1866  20.8314   H         1 RES1   0.0000
    10 C6       8.6475  -0.8461  19.3366   C.ar      1 RES1   0.0000
    11 C7       6.6441  -0.1100  20.4792   C.2       1 RES1   0.0000
    12 C8       5.5691   0.9141  20.3784   C.ar      1 RES1   0.0000
    13 C9       4.4811   0.9519  21.2306   C.ar      1 RES1   0.0000
    14 H5       4.4096   0.3367  21.9239   H         1 RES1   0.0000
    15 C10      3.5105   1.8981  21.0494   C.ar      1 RES1   0.0000
    16 H6       2.7728   1.9329  21.6141   H         1 RES1   0.0000
    17 C11      3.6436   2.7972  20.0204   C.ar      1 RES1   0.0000
    18 H7       2.9946   3.4482  19.8748   H         1 RES1   0.0000
    19 C12      4.7451   2.7224  19.2097   C.ar      1 RES1   0.0000
    20 H8       4.8330   3.3337  18.5159   H         1 RES1   0.0000
    21 C13      8.5427   4.3439  18.7287   C.ar      1 RES1   0.0000
    22 C14      9.2878   5.4590  19.0902   C.ar      1 RES1   0.0000
    23 H9       9.7787   5.4484  19.8802   H         1 RES1   0.0000
    24 C15      9.3064   6.5860  18.2852   C.ar      1 RES1   0.0000
    25 H10      9.8055   7.3319  18.5322   H         1 RES1   0.0000
    26 C16      8.5805   6.5918  17.1182   C.ar      1 RES1   0.0000
    27 H11      8.5855   7.3521  16.5809   H         1 RES1   0.0000
    28 C17      7.8478   5.4985  16.7309   C.ar      1 RES1   0.0000
    29 H12      7.3672   5.5225  15.9368   H         1 RES1   0.0000
    30 C18      7.8209   4.3498  17.5217   C.ar      1 RES1   0.0000
    31 C19      6.3181   3.0309  16.1466   C.2       1 RES1   0.0000
    32 C20      5.9193   1.6087  15.9531   C.ar      1 RES1   0.0000
    33 C21      5.2849   1.1602  14.8081   C.ar      1 RES1   0.0000
    34 H13      5.0364   1.7600  14.1431   H         1 RES1   0.0000
    35 C22      5.0263  -0.1744  14.6649   C.ar      1 RES1   0.0000
    36 H14      4.6196  -0.4916  13.8930   H         1 RES1   0.0000
    37 C23      5.3733  -1.0381  15.6674   C.ar      1 RES1   0.0000
    38 H15      5.1927  -1.9464  15.5916   H         1 RES1   0.0000
    39 C24      5.9926  -0.5410  16.7850   C.ar      1 RES1   0.0000
    40 H16      6.2228  -1.1270  17.4696   H         1 RES1   0.0000
    41 N1       7.5665   0.0436  19.5117   N.am      1 RES1   0.0000
    42 N2       5.6978   1.8027  19.3812   N.ar      1 RES1   0.0000
    43 N3       7.1516   3.1532  17.1975   N.am      1 RES1   0.0000
    44 N4       6.2766   0.7581  16.9241   N.ar      1 RES1   0.0000
    45 O1       6.5812  -0.9691  21.3744   O.2       1 RES1   0.0000
    46 O2       5.8832   3.9060  15.3829   O.2       1 RES1   0.0000
    47 S1       9.2138   0.8710  17.2780   S.3       1 RES1  -1.0000
    48 S2       8.4654   2.9283  19.7506   S.3       1 RES1   0.0000
    49 Fe1      7.3915   1.5948  18.3433   Fe        1 RES1   0.0000
    50 C25     10.3636   6.1866  23.4575   C.ar      2 RES2   0.0000
    51 C26     11.6729   5.7724  23.6244   C.ar      2 RES2   0.0000
    52 H17     11.8860   5.1431  24.2748   H         2 RES2   0.0000
    53 C27     12.6597   6.2979  22.8216   C.ar      2 RES2   0.0000
    54 H18     13.5429   6.0276  22.9349   H         2 RES2   0.0000
    55 C28     12.3447   7.2219  21.8511   C.ar      2 RES2   0.0000
    56 H19     13.0169   7.5766  21.3152   H         2 RES2   0.0000
    57 C29     11.0516   7.6242  21.6663   C.ar      2 RES2   0.0000
    58 H20     10.8424   8.2389  20.9999   H         2 RES2   0.0000
    59 C30     10.0613   7.1126  22.4762   C.ar      2 RES2   0.0000
    60 H21      9.1821   7.3926  22.3615   H         2 RES2   0.0000
    61 C31      7.5320   5.4617  23.8195   C.ar      2 RES2   0.0000
    62 C32      7.4566   4.9671  22.5248   C.ar      2 RES2   0.0000
    63 H22      8.2360   4.7929  22.0489   H         2 RES2   0.0000
    64 C33      6.2258   4.7325  21.9438   C.ar      2 RES2   0.0000
    65 H23      6.1791   4.3978  21.0760   H         2 RES2   0.0000
    66 C34      5.0760   4.9900  22.6365   C.ar      2 RES2   0.0000
    67 H24      4.2499   4.8356  22.2365   H         2 RES2   0.0000
    68 C35      5.1352   5.4738  23.9163   C.ar      2 RES2   0.0000
    69 H25      4.3507   5.6370  24.3889   H         2 RES2   0.0000
    70 C36      6.3534   5.7192  24.5036   C.ar      2 RES2   0.0000
    71 H26      6.3875   6.0613  25.3673   H         2 RES2   0.0000
    72 C37      8.9288   7.0033  25.7907   C.ar      2 RES2   0.0000
    73 C38      8.3491   8.1922  25.3621   C.ar      2 RES2   0.0000
    74 H27      8.0293   8.2613  24.4922   H         2 RES2   0.0000
    75 C39      8.2461   9.2615  26.2136   C.ar      2 RES2   0.0000
    76 H28      7.8579  10.0550  25.9190   H         2 RES2   0.0000
    77 C40      8.7149   9.1631  27.4931   C.ar      2 RES2   0.0000
    78 H29      8.6443   9.8912  28.0660   H         2 RES2   0.0000
    79 C41      9.2873   8.0025  27.9377   C.ar      2 RES2   0.0000
    80 H30      9.6056   7.9471  28.8107   H         2 RES2   0.0000
    81 C42      9.3937   6.9101  27.0931   C.ar      2 RES2   0.0000
    82 H31      9.7753   6.1197  27.3974   H         2 RES2   0.0000
    83 C43      7.4213   2.9043  26.1891   C.ar      2 RES2   0.0000
    84 C44      6.5384   2.2074  25.3918   C.ar      2 RES2   0.0000
    85 H32      6.8563   1.6635  24.7096   H         2 RES2   0.0000
    86 C45      5.1742   2.3215  25.6119   C.ar      2 RES2   0.0000
    87 H33      4.5776   1.8521  25.0765   H         2 RES2   0.0000
    88 C46      4.7053   3.1227  26.6147   C.ar      2 RES2   0.0000
    89 H34      3.7878   3.1968  26.7533   H         2 RES2   0.0000
    90 C47      5.5674   3.8150  27.4184   C.ar      2 RES2   0.0000
    91 H35      5.2397   4.3529  28.1040   H         2 RES2   0.0000
    92 C48      6.9172   3.7122  27.2088   C.ar      2 RES2   0.0000
    93 H36      7.5050   4.1868  27.7535   H         2 RES2   0.0000
    94 C49     10.0003   2.6052  27.4521   C.ar      2 RES2   0.0000
    95 C50      9.4058   1.7683  28.3783   C.ar      2 RES2   0.0000
    96 H37      8.5788   1.3874  28.1910   H         2 RES2   0.0000
    97 C51     10.0307   1.4931  29.5819   C.ar      2 RES2   0.0000
    98 H38      9.6123   0.9496  30.2103   H         2 RES2   0.0000
    99 C52     11.2524   2.0166  29.8426   C.ar      2 RES2   0.0000
   100 H39     11.6725   1.8274  30.6506   H         2 RES2   0.0000
   101 C53     11.8759   2.8192  28.9278   C.ar      2 RES2   0.0000
   102 H40     12.7228   3.1564  29.1123   H         2 RES2   0.0000
   103 C54     11.2521   3.1366  27.7200   C.ar      2 RES2   0.0000
   104 H41     11.6692   3.6952  27.1039   H         2 RES2   0.0000
   105 C55      9.6182   1.6238  24.7588   C.ar      2 RES2   0.0000
   106 C56     10.1173   0.4286  25.2154   C.ar      2 RES2   0.0000
   107 H42     10.2559   0.3053  26.1255   H         2 RES2   0.0000
   108 C57     10.4135  -0.5882  24.3365   C.ar      2 RES2   0.0000
   109 H43     10.7533  -1.3941  24.6552   H         2 RES2   0.0000
   110 C58     10.2078  -0.4162  22.9898   C.ar      2 RES2   0.0000
   111 H44     10.4072  -1.1045  22.3968   H         2 RES2   0.0000
   112 C59      9.7131   0.7633  22.5237   C.ar      2 RES2   0.0000
   113 H45      9.5736   0.8800  21.6114   H         2 RES2   0.0000
   114 C60      9.4174   1.7825  23.3975   C.ar      2 RES2   0.0000
   115 H46      9.0796   2.5862  23.0708   H         2 RES2   0.0000
   116 N5       9.6743   4.3520  25.3542   N.1       2 RES2   1.0000
   117 P1       9.1224   5.6442  24.6381   P.3       2 RES2   0.0000
   118 P2       9.1908   2.9572  25.8864   P.3       2 RES2   0.0000
@<TRIPOS>BOND
     1     1     2   ar
     2     2     3    1
     3     4     2   ar
     4     5     4    1
     5     6     4   ar
     6     7     6    1
     7     8     6   ar
     8     9     8    1
     9    10     1   ar
    10    11    12    1
    11    12    13   ar
    12    13    14    1
    13    15    13   ar
    14    16    15    1
    15    17    15   ar
    16    18    17    1
    17    19    17   ar
    18    20    19    1
    19    21    22   ar
    20    22    23    1
    21    24    22   ar
    22    25    24    1
    23    26    24   ar
    24    27    26    1
    25    28    26   ar
    26    29    28    1
    27    30    21   ar
    28    31    32    1
    29    32    33   ar
    30    33    34    1
    31    35    33   ar
    32    36    35    1
    33    37    35   ar
    34    38    37    1
    35    39    37   ar
    36    40    39    1
    37    41    10    1
    38    42    12   ar
    39    43    30    1
    40    44    32   ar
    41    45    11    2
    42    46    31    2
    43    47     1    1
    44    48    21    1
    45    49    41    1
    46     8    10   ar
    47    11    41   am
    48    19    42   ar
    49    28    30   ar
    50    31    43   am
    51    39    44   ar
    52    42    49    1
    53    43    49    1
    54    44    49    1
    55    47    49    1
    56    48    49    1
    57    50    51   ar
    58    51    52    1
    59    53    51   ar
    60    54    53    1
    61    55    53   ar
    62    56    55    1
    63    57    55   ar
    64    58    57    1
    65    59    50   ar
    66    60    59    1
    67    61    62   ar
    68    62    63    1
    69    64    62   ar
    70    65    64    1
    71    66    64   ar
    72    67    66    1
    73    68    66   ar
    74    69    68    1
    75    70    61   ar
    76    71    70    1
    77    72    73   ar
    78    73    74    1
    79    75    73   ar
    80    76    75    1
    81    77    75   ar
    82    78    77    1
    83    79    77   ar
    84    80    79    1
    85    81    72   ar
    86    82    81    1
    87    83    84   ar
    88    84    85    1
    89    86    84   ar
    90    87    86    1
    91    88    86   ar
    92    89    88    1
    93    90    88   ar
    94    91    90    1
    95    92    83   ar
    96    93    92    1
    97    94    95   ar
    98    95    96    1
    99    97    95   ar
   100    98    97    1
   101    99    97   ar
   102   100    99    1
   103   101    99   ar
   104   102   101    1
   105   103    94   ar
   106   104   103    1
   107   105   106   ar
   108   106   107    1
   109   108   106   ar
   110   109   108    1
   111   110   108   ar
   112   111   110    1
   113   112   110   ar
   114   113   112    1
   115   114   105   ar
   116   115   114    1
   117   116   117    2
   118   117    50    1
   119   118    83    1
   120    57    59   ar
   121    61   117    1
   122    68    70   ar
   123    72   117    1
   124    79    81   ar
   125    90    92   ar
   126    94   118    1
   127   101   103   ar
   128   105   118    1
   129   112   114   ar
   130   116   118    2
@<TRIPOS>SUBSTRUCTURE
     1 RES1        1 GROUP             0 ****  ****    0  
     2 RES2       50 GROUP             0 ****  ****    0  
@<TRIPOS>CRYSIN
   16.8047   22.4493   27.1773   90.0000   90.0000   90.0000    61     1
