@<TRIPOS>MOLECULE
BUXSUJ
    96   103     1     0     0
SMALL
NO_CHARGES
****
Generated from the CSD

@<TRIPOS>ATOM
     1 Fe1      8.3026  20.9313  14.2731   Fe        1 RES1   0.0000
     2 B1       9.3779  22.5723  11.7367   B         1 RES1   0.0000
     3 O1       7.4333  21.3538  15.9721   O.3       1 RES1   0.0000
     4 O2       7.0494  19.4483  14.3073   O.3       1 RES1   0.0000
     5 N1      10.0601  23.0953  13.0054   N.ar      1 RES1   0.0000
     6 N2       9.6765  22.6024  14.2419   N.ar      1 RES1   0.0000
     7 N3       7.8592  22.7619  11.8686   N.ar      1 RES1   0.0000
     8 N4       7.1778  22.1814  12.9274   N.ar      1 RES1   0.0000
     9 N5       9.6958  21.0678  11.5706   N.ar      1 RES1   0.0000
    10 N6       9.1873  20.1669  12.4695   N.ar      1 RES1   0.0000
    11 N7       9.8773  19.8939  15.4111   N.2       1 RES1   0.0000
    12 N8       9.4995  19.3881  16.6214   N.pl3     1 RES1   0.0000
    13 H1       8.6808  19.3292  16.8788   H         1 RES1   0.0000
    14 C1      10.3600  23.2936  15.1661   C.ar      1 RES1   0.0000
    15 C2      11.1782  24.2391  14.5283   C.ar      1 RES1   0.0000
    16 H2      11.7485  24.8483  14.9390   H         1 RES1   0.0000
    17 C3      10.9731  24.0896  13.1800   C.ar      1 RES1   0.0000
    18 C4      10.2009  23.0464  16.6240   C.3       1 RES1   0.0000
    19 H3       9.5849  22.3222  16.7611   H         1 RES1   0.0000
    20 H4       9.8632  23.8382  17.0488   H         1 RES1   0.0000
    21 H5      11.0516  22.8180  17.0052   H         1 RES1   0.0000
    22 C5      11.5804  24.8282  12.0357   C.3       1 RES1   0.0000
    23 H6      11.2527  24.4661  11.2097   H         1 RES1   0.0000
    24 H7      12.5353  24.7391  12.0684   H         1 RES1   0.0000
    25 H8      11.3440  25.7579  12.0946   H         1 RES1   0.0000
    26 C6       5.8971  22.5565  12.7940   C.ar      1 RES1   0.0000
    27 C7       5.7596  23.3482  11.6892   C.ar      1 RES1   0.0000
    28 H9       4.9705  23.7304  11.3775   H         1 RES1   0.0000
    29 C8       7.0000  23.4732  11.1268   C.ar      1 RES1   0.0000
    30 C9       4.8385  22.1412  13.7729   C.3       1 RES1   0.0000
    31 H10      5.2278  21.5736  14.4442   H         1 RES1   0.0000
    32 H11      4.1458  21.6613  13.3130   H         1 RES1   0.0000
    33 H12      4.4646  22.9200  14.1914   H         1 RES1   0.0000
    34 C10      7.4117  24.2563   9.9150   C.3       1 RES1   0.0000
    35 H13      8.3541  24.1471   9.7690   H         1 RES1   0.0000
    36 H14      7.2148  25.1860  10.0501   H         1 RES1   0.0000
    37 H15      6.9314  23.9359   9.1478   H         1 RES1   0.0000
    38 C11      9.5442  18.9441  12.0416   C.ar      1 RES1   0.0000
    39 C12     10.2706  19.0748  10.8740   C.ar      1 RES1   0.0000
    40 H16     10.6286  18.3823  10.3683   H         1 RES1   0.0000
    41 C13     10.3657  20.4011  10.6022   C.ar      1 RES1   0.0000
    42 C14      9.1739  17.7242  12.7921   C.3       1 RES1   0.0000
    43 H17      8.6667  17.9684  13.5702   H         1 RES1   0.0000
    44 H18      9.9698  17.2600  13.0623   H         1 RES1   0.0000
    45 H19      8.6448  17.1508  12.2319   H         1 RES1   0.0000
    46 C15     11.0565  21.1095   9.4616   C.3       1 RES1   0.0000
    47 H20     11.4678  20.4615   8.8862   H         1 RES1   0.0000
    48 H21     11.7294  21.6986   9.8125   H         1 RES1   0.0000
    49 H22     10.4136  21.6182   8.9647   H         1 RES1   0.0000
    50 C16     10.5489  18.9886  17.3686   C.2       1 RES1   0.0000
    51 C17     11.6398  19.2300  16.5955   C.2       1 RES1   0.0000
    52 H23     12.5234  19.0533  16.8265   H         1 RES1   0.0000
    53 C18     11.2067  19.7847  15.4023   C.2       1 RES1   0.0000
    54 C19     10.3540  18.4225  18.7358   C.3       1 RES1   0.0000
    55 H24      9.4168  18.4038  18.9451   H         1 RES1   0.0000
    56 H25     10.8143  18.9700  19.3766   H         1 RES1   0.0000
    57 H26     10.7062  17.5302  18.7663   H         1 RES1   0.0000
    58 C20     12.0312  20.2474  14.2437   C.3       1 RES1   0.0000
    59 H27     11.4536  20.5893  13.5571   H         1 RES1   0.0000
    60 H28     12.5382  19.5088  13.8971   H         1 RES1   0.0000
    61 H29     12.6299  20.9399  14.5314   H         1 RES1   0.0000
    62 C21      6.4032  20.5405  16.2663   C.ar      1 RES1   0.0000
    63 C22      5.5540  20.6684  17.3884   C.ar      1 RES1   0.0000
    64 C23      4.4552  19.8134  17.4477   C.ar      1 RES1   0.0000
    65 H30      3.8593  19.9154  18.1560   H         1 RES1   0.0000
    66 C24      4.1947  18.8119  16.5050   C.ar      1 RES1   0.0000
    67 C25      5.0927  18.6452  15.4603   C.ar      1 RES1   0.0000
    68 H31      4.9673  17.9584  14.8452   H         1 RES1   0.0000
    69 C26      6.1840  19.5074  15.3324   C.ar      1 RES1   0.0000
    70 C27      5.8194  21.7302  18.4612   C.3       1 RES1   0.0000
    71 C28      4.7705  21.7403  19.5793   C.3       1 RES1   0.0000
    72 H32      3.9045  21.9113  19.2044   H         1 RES1   0.0000
    73 H33      4.9865  22.4286  20.2136   H         1 RES1   0.0000
    74 H34      4.7668  20.8882  20.0218   H         1 RES1   0.0000
    75 C29      5.8336  23.1341  17.8204   C.3       1 RES1   0.0000
    76 H35      4.9770  23.3137  17.4259   H         1 RES1   0.0000
    77 H36      6.5124  23.1700  17.1447   H         1 RES1   0.0000
    78 H37      6.0185  23.7908  18.4961   H         1 RES1   0.0000
    79 C30      7.2001  21.4572  19.1042   C.3       1 RES1   0.0000
    80 H38      7.8766  21.4658  18.4241   H         1 RES1   0.0000
    81 H39      7.1892  20.5980  19.5336   H         1 RES1   0.0000
    82 H40      7.3908  22.1369  19.7537   H         1 RES1   0.0000
    83 C31      2.9212  17.9656  16.5671   C.3       1 RES1   0.0000
    84 C32      3.2694  16.5085  16.4734   C.3       1 RES1   0.0000
    85 H41      3.7690  16.3490  15.6691   H         1 RES1   0.0000
    86 H42      2.4634  15.9869  16.4581   H         1 RES1   0.0000
    87 H43      3.7988  16.2556  17.2341   H         1 RES1   0.0000
    88 C33      2.0885  18.1667  17.7877   C.3       1 RES1   0.0000
    89 H44      2.5885  17.9023  18.5636   H         1 RES1   0.0000
    90 H45      1.2925  17.6322  17.7245   H         1 RES1   0.0000
    91 H46      1.8471  19.0921  17.8618   H         1 RES1   0.0000
    92 C34      2.0378  18.3823  15.3967   C.3       1 RES1   0.0000
    93 H47      2.5128  18.2501  14.5750   H         1 RES1   0.0000
    94 H48      1.8048  19.3105  15.4860   H         1 RES1   0.0000
    95 H49      1.2377  17.8506  15.3945   H         1 RES1   0.0000
    96 H50      9.7261  23.2347  10.8893   H         1 RES1   0.0000
@<TRIPOS>BOND
     1     1     3    1
     2     2     5    1
     3     3    62    1
     4     4     1    1
     5     5     6   ar
     6     6     1    1
     7     7     2    1
     8     8     1    1
     9     9     2    1
    10    10     1    1
    11    11     1    1
    12    12    11    1
    13    13    12    1
    14    14     6   ar
    15    15    14   ar
    16    16    15    1
    17    17     5   ar
    18    18    14    1
    19    19    18    1
    20    20    18    1
    21    21    18    1
    22    22    17    1
    23    23    22    1
    24    24    22    1
    25    25    22    1
    26    26     8   ar
    27    27    26   ar
    28    28    27    1
    29    29     7   ar
    30    30    26    1
    31    31    30    1
    32    32    30    1
    33    33    30    1
    34    34    29    1
    35    35    34    1
    36    36    34    1
    37    37    34    1
    38    38    10   ar
    39    39    38   ar
    40    40    39    1
    41    41     9   ar
    42    42    38    1
    43    43    42    1
    44    44    42    1
    45    45    42    1
    46    46    41    1
    47    47    46    1
    48    48    46    1
    49    49    46    1
    50    50    12    1
    51    51    50    2
    52    52    51    1
    53    53    11    2
    54    54    50    1
    55    55    54    1
    56    56    54    1
    57    57    54    1
    58    58    53    1
    59    59    58    1
    60    60    58    1
    61    61    58    1
    62    62    63   ar
    63    63    64   ar
    64    64    65    1
    65    66    64   ar
    66    67    66   ar
    67    68    67    1
    68    69     4    1
    69    70    63    1
    70    71    70    1
    71    72    71    1
    72    73    71    1
    73    74    71    1
    74    75    70    1
    75    76    75    1
    76    77    75    1
    77    78    75    1
    78    79    70    1
    79    80    79    1
    80    81    79    1
    81    82    79    1
    82    83    66    1
    83    84    83    1
    84    85    84    1
    85    86    84    1
    86    87    84    1
    87    88    83    1
    88    89    88    1
    89    90    88    1
    90    91    88    1
    91    92    83    1
    92    93    92    1
    93    94    92    1
    94    95    92    1
    95    96     2    1
    96     7     8   ar
    97     9    10   ar
    98    15    17   ar
    99    27    29   ar
   100    39    41   ar
   101    51    53    1
   102    62    69   ar
   103    67    69   ar
@<TRIPOS>SUBSTRUCTURE
     1 RES1        1 GROUP             0 ****  ****    0  
@<TRIPOS>CRYSIN
   13.5180   14.3690   21.8440   90.0000   93.8000   90.0000   231     1
