@<TRIPOS>MOLECULE
BUXTIY
    78    84     2     0     0
SMALL
NO_CHARGES
****
Generated from the CSD

@<TRIPOS>ATOM
     1 Fe1      2.3927   6.6956  10.0547   Fe        1 RES1   0.0000
     2 Cl1      2.5217   1.7759   9.7828   Cl        1 RES1   0.0000
     3 Cl2      0.2133   0.4715  11.4844   Cl        1 RES1   0.0000
     4 Cl3     -1.8271   2.3097  12.9781   Cl        1 RES1   0.0000
     5 Cl4     -1.4906   5.4288  12.8379   Cl        1 RES1   0.0000
     6 O1       2.4717   4.7444   9.8794   O.3       1 RES1   0.0000
     7 O2       0.8720   6.2570  11.2023   O.3       1 RES1   0.0000
     8 N1       2.2587   8.7897  10.3240   N.ar      1 RES1   0.0000
     9 N2       3.4163   9.5209  10.2104   N.ar      1 RES1   0.0000
    10 N3       3.9396   6.9456   8.6238   N.ar      1 RES1   0.0000
    11 N4       4.8648   7.9491   8.8402   N.ar      1 RES1   0.0000
    12 N5       3.9647   6.8498  11.5020   N.ar      1 RES1   0.0000
    13 N6       4.9040   7.8372  11.3330   N.ar      1 RES1   0.0000
    14 N7       1.0002   6.9676   8.3493   N.2       1 RES1   0.0000
    15 N8      -0.0323   6.1177   8.1937   N.pl3     1 RES1   0.0000
    16 H1      -0.2224   5.4943   8.7523   H         1 RES1   0.0000
    17 B1       4.7816   8.7858  10.1333   B         1 RES1   0.0000
    18 H2       5.5120   9.4397  10.1522   H         1 RES1   0.0000
    19 C1      -0.1714   9.2269  10.6066   C.3       1 RES1   0.0000
    20 H3      -0.2173   8.2677  10.5904   H         1 RES1   0.0000
    21 H4      -0.6898   9.5848   9.8830   H         1 RES1   0.0000
    22 H5      -0.5219   9.5486  11.4412   H         1 RES1   0.0000
    23 C2       1.2571   9.6623  10.4633   C.ar      1 RES1   0.0000
    24 C3       1.7751  10.9368  10.4470   C.ar      1 RES1   0.0000
    25 H6       1.2941  11.7282  10.5363   H         1 RES1   0.0000
    26 C4       3.1327  10.8270  10.2739   C.ar      1 RES1   0.0000
    27 C5       4.1577  11.9015  10.1346   C.3       1 RES1   0.0000
    28 H7       5.0252  11.5041  10.0264   H         1 RES1   0.0000
    29 H8       4.1539  12.4518  10.9218   H         1 RES1   0.0000
    30 H9       3.9545  12.4403   9.3664   H         1 RES1   0.0000
    31 C6       3.4583   5.2382   6.8912   C.3       1 RES1   0.0000
    32 H10      2.7468   5.0093   7.4944   H         1 RES1   0.0000
    33 H11      4.0317   4.4783   6.7681   H         1 RES1   0.0000
    34 H12      3.0885   5.5004   6.0445   H         1 RES1   0.0000
    35 C7       4.2446   6.3664   7.4579   C.ar      1 RES1   0.0000
    36 C8       5.3523   6.9983   6.9237   C.ar      1 RES1   0.0000
    37 H13      5.7650   6.7989   6.1135   H         1 RES1   0.0000
    38 C9       5.7279   7.9664   7.8069   C.ar      1 RES1   0.0000
    39 C10      6.8821   8.9262   7.7474   C.3       1 RES1   0.0000
    40 H14      6.8706   9.4889   8.5251   H         1 RES1   0.0000
    41 H15      6.8070   9.4698   6.9588   H         1 RES1   0.0000
    42 H16      7.7067   8.4358   7.7190   H         1 RES1   0.0000
    43 C11      3.5809   4.9769  13.0764   C.3       1 RES1   0.0000
    44 H17      2.8190   4.8251  12.5124   H         1 RES1   0.0000
    45 H18      3.2861   5.1289  13.9785   H         1 RES1   0.0000
    46 H19      4.1544   4.2080  13.0534   H         1 RES1   0.0000
    47 C12      4.3256   6.1648  12.5922   C.ar      1 RES1   0.0000
    48 C13      5.4817   6.7139  13.1305   C.ar      1 RES1   0.0000
    49 H20      5.9300   6.4285  13.8933   H         1 RES1   0.0000
    50 C14      5.8349   7.7618  12.3149   C.ar      1 RES1   0.0000
    51 C15      7.0252   8.6472  12.3907   C.3       1 RES1   0.0000
    52 H21      6.9926   9.2896  11.6779   H         1 RES1   0.0000
    53 H22      7.8226   8.1195  12.3095   H         1 RES1   0.0000
    54 H23      7.0301   9.1052  13.2346   H         1 RES1   0.0000
    55 C16      1.9480   8.8481   7.0183   C.3       1 RES1   0.0000
    56 H24      2.5827   8.8787   7.7379   H         1 RES1   0.0000
    57 H25      1.4937   9.6924   6.9561   H         1 RES1   0.0000
    58 H26      2.4063   8.6698   6.1933   H         1 RES1   0.0000
    59 C17      0.9527   7.7666   7.2794   C.2       1 RES1   0.0000
    60 C18     -0.1176   7.4073   6.4787   C.2       1 RES1   0.0000
    61 H27     -0.3688   7.8134   5.6807   H         1 RES1   0.0000
    62 C19     -0.7347   6.3463   7.0738   C.2       1 RES1   0.0000
    63 C20     -1.9101   5.5380   6.6545   C.3       1 RES1   0.0000
    64 H28     -2.0822   4.8603   7.3119   H         1 RES1   0.0000
    65 H29     -1.7279   5.1239   5.8078   H         1 RES1   0.0000
    66 H30     -2.6778   6.1086   6.5734   H         1 RES1   0.0000
    67 C21      1.5334   4.1340  10.5647   C.ar      1 RES1   0.0000
    68 C22      1.3844   2.7462  10.6445   C.ar      1 RES1   0.0000
    69 C23      0.3641   2.1893  11.3925   C.ar      1 RES1   0.0000
    70 C24     -0.5289   2.9968  12.0755   C.ar      1 RES1   0.0000
    71 C25     -0.3817   4.3955  12.0322   C.ar      1 RES1   0.0000
    72 C26      0.6395   4.9576  11.2870   C.ar      1 RES1   0.0000
    73 N9      -2.2040   3.7370   9.3501   N.1       2 RES2   0.0000
    74 C27     -4.4019   4.3353  10.4186   C.3       2 RES2   0.0000
    75 H31     -5.1048   4.2676   9.7681   H         2 RES2   0.0000
    76 H32     -4.3724   5.2294  10.7662   H         2 RES2   0.0000
    77 H33     -4.5700   3.7180  11.1355   H         2 RES2   0.0000
    78 C28     -3.1620   4.0230   9.8086   C.1       2 RES2   0.0000
@<TRIPOS>BOND
     1     1     6    1
     2     2    68    1
     3     3    69    1
     4     4    70    1
     5     5    71    1
     6     6    67    1
     7     7     1    1
     8     8     1    1
     9     9     8   ar
    10    10     1    1
    11    11    10   ar
    12    12     1    1
    13    13    12   ar
    14    14     1    1
    15    15    14    1
    16    16    15    1
    17    17     9    1
    18    18    17    1
    19    19    20    1
    20    21    19    1
    21    22    19    1
    22    23     8   ar
    23    24    23   ar
    24    25    24    1
    25    26     9   ar
    26    27    26    1
    27    28    27    1
    28    29    27    1
    29    30    27    1
    30    31    32    1
    31    33    31    1
    32    34    31    1
    33    35    10   ar
    34    36    35   ar
    35    37    36    1
    36    38    11   ar
    37    39    38    1
    38    40    39    1
    39    41    39    1
    40    42    39    1
    41    43    44    1
    42    45    43    1
    43    46    43    1
    44    47    12   ar
    45    48    47   ar
    46    49    48    1
    47    50    13   ar
    48    51    50    1
    49    52    51    1
    50    53    51    1
    51    54    51    1
    52    55    56    1
    53    57    55    1
    54    58    55    1
    55    59    14    2
    56    60    59    1
    57    61    60    1
    58    62    15    1
    59    63    62    1
    60    64    63    1
    61    65    63    1
    62    66    63    1
    63    67    68   ar
    64    68    69   ar
    65    69    70   ar
    66    70    71   ar
    67    71    72   ar
    68    72     7    1
    69    11    17    1
    70    13    17    1
    71    19    23    1
    72    24    26   ar
    73    31    35    1
    74    36    38   ar
    75    43    47    1
    76    48    50   ar
    77    55    59    1
    78    60    62    2
    79    67    72   ar
    80    73    78    3
    81    74    75    1
    82    76    74    1
    83    77    74    1
    84    78    74    1
@<TRIPOS>SUBSTRUCTURE
     1 RES1        1 GROUP             0 ****  ****    0  
     2 RES2       73 GROUP             0 ****  ****    0  
@<TRIPOS>CRYSIN
   10.5894   12.4130   14.4680  101.9660  102.9850  105.0070     2     1
