@<TRIPOS>MOLECULE
BUXTAQ
   106   112     4     0     0
SMALL
USER_CHARGES
****
Generated from the CSD

@<TRIPOS>ATOM
     1 Fe1      3.7350  11.1380   4.9670   Fe        1 RES1   2.0000
     2 N1       2.8423   9.1978   4.5538   N.2       1 RES1   0.0000
     3 N2       2.9477   8.7498   3.2614   N.pl3     1 RES1   0.0000
     4 N3       5.3138  10.4662   3.5981   N.2       1 RES1   0.0000
     5 N4       4.8900   9.8709   2.4388   N.pl3     1 RES1   0.0000
     6 N5       2.7304  11.7539   3.1670   N.2       1 RES1   0.0000
     7 N6       2.7430  10.8495   2.1239   N.pl3     1 RES1   0.0000
     8 C1       2.0560   8.2564   6.6996   C.3       1 RES1   0.0000
     9 H1       2.3010   9.1265   7.0194   H         1 RES1   0.0000
    10 H2       2.5613   7.5894   7.1694   H         1 RES1   0.0000
    11 H3       1.1190   8.1129   6.8486   H         1 RES1   0.0000
    12 C2       2.3500   8.1633   5.2253   C.2       1 RES1   0.0000
    13 C3       2.1499   7.0737   4.3799   C.2       1 RES1   0.0000
    14 H4       1.8159   6.2395   4.6184   H         1 RES1   0.0000
    15 C4       2.5403   7.4676   3.1342   C.2       1 RES1   0.0000
    16 C5       2.5684   6.7405   1.8348   C.3       1 RES1   0.0000
    17 H5       2.9069   7.3221   1.1504   H         1 RES1   0.0000
    18 H6       1.6788   6.4600   1.6053   H         1 RES1   0.0000
    19 H7       3.1358   5.9700   1.9113   H         1 RES1   0.0000
    20 C6       7.4878  11.1215   4.5747   C.3       1 RES1   0.0000
    21 H8       6.9281  11.4187   5.2959   H         1 RES1   0.0000
    22 H9       7.9757  11.8687   4.2190   H         1 RES1   0.0000
    23 H10      8.1058  10.4630   4.8995   H         1 RES1   0.0000
    24 C7       6.6427  10.5245   3.5018   C.2       1 RES1   0.0000
    25 C8       7.0495   9.9739   2.2838   C.2       1 RES1   0.0000
    26 H11      7.9252   9.8995   1.9799   H         1 RES1   0.0000
    27 C9       5.9288   9.5655   1.6212   C.2       1 RES1   0.0000
    28 C10      5.7634   8.9193   0.2921   C.3       1 RES1   0.0000
    29 H12      4.8308   8.7678   0.1222   H         1 RES1   0.0000
    30 H13      6.2291   8.0795   0.2841   H         1 RES1   0.0000
    31 H14      6.1244   9.4918  -0.3894   H         1 RES1   0.0000
    32 C11      1.7155  13.9528   3.5852   C.3       1 RES1   0.0000
    33 H15      2.1497  13.8401   4.4336   H         1 RES1   0.0000
    34 H16      0.7680  14.0361   3.7173   H         1 RES1   0.0000
    35 H17      2.0498  14.7445   3.1571   H         1 RES1   0.0000
    36 C12      1.9935  12.7708   2.7259   C.2       1 RES1   0.0000
    37 C13      1.5458  12.5220   1.4285   C.2       1 RES1   0.0000
    38 H18      1.0201  13.0872   0.9090   H         1 RES1   0.0000
    39 C14      2.0210  11.2964   1.0620   C.2       1 RES1   0.0000
    40 C15      1.8369  10.4918  -0.1679   C.3       1 RES1   0.0000
    41 H19      2.3187   9.6656  -0.0854   H         1 RES1   0.0000
    42 H20      2.1712  10.9821  -0.9239   H         1 RES1   0.0000
    43 H21      0.9030  10.3071  -0.2931   H         1 RES1   0.0000
    44 C16      3.4855   9.6201   2.2372   C.3       1 RES1   0.0000
    45 H22      3.3962   9.1488   1.3818   H         1 RES1   0.0000
    46 N1B      4.6278  13.0782   5.3803   N.2       1 RES1   0.0000
    47 N2B      4.5224  13.5262   6.6727   N.pl3     1 RES1   0.0000
    48 N3B      2.1563  11.8098   6.3360   N.2       1 RES1   0.0000
    49 N4B      2.5801  12.4051   7.4953   N.pl3     1 RES1   0.0000
    50 N5B      4.7397  10.5221   6.7671   N.2       1 RES1   0.0000
    51 N6B      4.7271  11.4265   7.8102   N.pl3     1 RES1   0.0000
    52 C1B      5.4141  14.0196   3.2345   C.3       1 RES1   0.0000
    53 H1B      5.1690  13.1495   2.9147   H         1 RES1   0.0000
    54 H2B      4.9088  14.6866   2.7647   H         1 RES1   0.0000
    55 H3B      6.3511  14.1631   3.0855   H         1 RES1   0.0000
    56 C2B      5.1201  14.1127   4.7088   C.2       1 RES1   0.0000
    57 C3B      5.3202  15.2023   5.5542   C.2       1 RES1   0.0000
    58 H4B      5.6542  16.0365   5.3157   H         1 RES1   0.0000
    59 C4B      4.9298  14.8084   6.7999   C.2       1 RES1   0.0000
    60 C5B      4.9017  15.5355   8.0993   C.3       1 RES1   0.0000
    61 H5B      4.5631  14.9539   8.7837   H         1 RES1   0.0000
    62 H6B      5.7913  15.8160   8.3287   H         1 RES1   0.0000
    63 H7B      4.3343  16.3060   8.0228   H         1 RES1   0.0000
    64 C6B     -0.0177  11.1545   5.3594   C.3       1 RES1   0.0000
    65 H8B      0.5420  10.8573   4.6382   H         1 RES1   0.0000
    66 H9B     -0.5056  10.4073   5.7151   H         1 RES1   0.0000
    67 H10B    -0.6357  11.8130   5.0346   H         1 RES1   0.0000
    68 C7B      0.8274  11.7515   6.4323   C.2       1 RES1   0.0000
    69 C8B      0.4206  12.3021   7.6502   C.2       1 RES1   0.0000
    70 H11B    -0.4551  12.3765   7.9542   H         1 RES1   0.0000
    71 C9B      1.5413  12.7105   8.3129   C.2       1 RES1   0.0000
    72 C10B     1.7067  13.3567   9.6420   C.3       1 RES1   0.0000
    73 H12B     2.6393  13.5082   9.8119   H         1 RES1   0.0000
    74 H13B     1.2410  14.1965   9.6500   H         1 RES1   0.0000
    75 H14B     1.3456  12.7842  10.3235   H         1 RES1   0.0000
    76 C11B     5.7546   8.3232   6.3489   C.3       1 RES1   0.0000
    77 H15B     5.3204   8.4359   5.5005   H         1 RES1   0.0000
    78 H16B     6.7021   8.2399   6.2168   H         1 RES1   0.0000
    79 H17B     5.4203   7.5315   6.7770   H         1 RES1   0.0000
    80 C12B     5.4766   9.5052   7.2082   C.2       1 RES1   0.0000
    81 C13B     5.9242   9.7540   8.5056   C.2       1 RES1   0.0000
    82 H18B     6.4500   9.1888   9.0251   H         1 RES1   0.0000
    83 C14B     5.4491  10.9796   8.8721   C.2       1 RES1   0.0000
    84 C15B     5.6332  11.7842  10.1020   C.3       1 RES1   0.0000
    85 H19B     5.1514  12.6104  10.0195   H         1 RES1   0.0000
    86 H20B     5.2989  11.2939  10.8580   H         1 RES1   0.0000
    87 H21B     6.5671  11.9689  10.2272   H         1 RES1   0.0000
    88 C16B     3.9845  12.6559   7.6969   C.3       1 RES1   0.0000
    89 H22B     4.0739  13.1272   8.5523   H         1 RES1   0.0000
    90 B1      -1.9393   7.4535   7.8022   B         2 RES2  -1.0000
    91 F1      -1.9795   6.4057   6.9390   F         2 RES2   0.0000
    92 F2      -2.0165   8.6197   7.1069   F         2 RES2   0.0000
    93 F3      -0.7666   7.4103   8.5235   F         2 RES2   0.0000
    94 F4      -2.9824   7.3943   8.6814   F         2 RES2   0.0000
    95 N7      -0.4456   9.0218   2.1259   N.1       3 RES3   0.0000
    96 C17     -0.8796   8.3223   2.8749   C.1       3 RES3   0.0000
    97 C18     -1.4417   7.4179   3.8505   C.3       3 RES3   0.0000
    98 H23     -0.7462   6.8632   4.2111   H         3 RES3   0.0000
    99 H24     -2.1040   6.8655   3.4292   H         3 RES3   0.0000
   100 H25     -1.8486   7.9213   4.5578   H         3 RES3   0.0000
   101 N8       1.4239  16.0588   6.9966   N.1       4 RES4   0.0000
   102 C19      1.0154  16.5912   6.0985   C.1       4 RES4   0.0000
   103 C20      0.4970  17.2773   4.9512   C.3       4 RES4   0.0000
   104 H26      0.1231  18.1193   5.2233   H         4 RES4   0.0000
   105 H27     -0.1860  16.7426   4.5399   H         4 RES4   0.0000
   106 H28      1.2049  17.4310   4.3223   H         4 RES4   0.0000
@<TRIPOS>BOND
     1     1     2    1
     2     2     3    1
     3     3    15    1
     4     4     1    1
     5     5     4    1
     6     6     1    1
     7     7     6    1
     8     8     9    1
     9    10     8    1
    10    11     8    1
    11    12     2    2
    12    13    12    1
    13    14    13    1
    14    15    13    2
    15    16    15    1
    16    17    16    1
    17    18    16    1
    18    19    16    1
    19    20    21    1
    20    22    20    1
    21    23    20    1
    22    24     4    2
    23    25    24    1
    24    26    25    1
    25    27     5    1
    26    28    27    1
    27    29    28    1
    28    30    28    1
    29    31    28    1
    30    32    33    1
    31    34    32    1
    32    35    32    1
    33    36     6    2
    34    37    36    1
    35    38    37    1
    36    39     7    1
    37    40    39    1
    38    41    40    1
    39    42    40    1
    40    43    40    1
    41    44     3    1
    42    45    44    1
    43    46     1    1
    44    47    46    1
    45    48     1    1
    46    49    48    1
    47    50     1    1
    48    51    50    1
    49    52    53    1
    50    54    52    1
    51    55    52    1
    52    56    46    2
    53    57    56    1
    54    58    57    1
    55    59    47    1
    56    60    59    1
    57    61    60    1
    58    62    60    1
    59    63    60    1
    60    64    65    1
    61    66    64    1
    62    67    64    1
    63    68    48    2
    64    69    68    1
    65    70    69    1
    66    71    49    1
    67    72    71    1
    68    73    72    1
    69    74    72    1
    70    75    72    1
    71    76    77    1
    72    78    76    1
    73    79    76    1
    74    80    50    2
    75    81    80    1
    76    82    81    1
    77    83    51    1
    78    84    83    1
    79    85    84    1
    80    86    84    1
    81    87    84    1
    82    88    47    1
    83    89    88    1
    84     5    44    1
    85     7    44    1
    86     8    12    1
    87    20    24    1
    88    25    27    2
    89    32    36    1
    90    37    39    2
    91    49    88    1
    92    51    88    1
    93    52    56    1
    94    57    59    2
    95    64    68    1
    96    69    71    2
    97    76    80    1
    98    81    83    2
    99    90    91    1
   100    92    90    1
   101    93    90    1
   102    94    90    1
   103    95    96    3
   104    96    97    1
   105    97    98    1
   106    99    97    1
   107   100    97    1
   108   101   102    3
   109   102   103    1
   110   103   104    1
   111   105   103    1
   112   106   103    1
@<TRIPOS>SUBSTRUCTURE
     1 RES1        1 GROUP             0 ****  ****    0  
     2 RES2       90 GROUP             0 ****  ****    0  
     3 RES3       95 GROUP             0 ****  ****    0  
     4 RES4      101 GROUP             0 ****  ****    0  
@<TRIPOS>CRYSIN
   11.2564   22.2760   10.6312   90.0000  110.8640   90.0000    14     1
