@<TRIPOS>MOLECULE
BUXTEU
    75    79     3     0     0
SMALL
NO_CHARGES
****
Generated from the CSD

@<TRIPOS>ATOM
     1 Fe1      8.1227   4.7414   9.0869   Fe        1 RES1   0.0000
     2 Cl1     12.2925  -0.5405   8.6228   Cl        1 RES1   0.0000
     3 B1       7.5155   7.8210   8.5234   B         1 RES1   0.0000
     4 H1       7.3240   8.7661   8.3525   H         1 RES1   0.0000
     5 O1       7.6782   3.0323   8.3041   O.3       1 RES1   0.0000
     6 O2       9.9080   3.9243   9.2397   O.3       1 RES1   0.0000
     7 N1       6.2312   5.6941   8.9865   N.ar      1 RES1   0.0000
     8 N2       6.1949   7.0433   8.7187   N.ar      1 RES1   0.0000
     9 N3       8.5569   5.8774   7.3207   N.ar      1 RES1   0.0000
    10 N4       8.2477   7.2103   7.3223   N.ar      1 RES1   0.0000
    11 N5       8.7858   6.4271  10.2044   N.ar      1 RES1   0.0000
    12 N6       8.4018   7.6789   9.7821   N.ar      1 RES1   0.0000
    13 C1       4.6186   3.8492   9.2929   C.3       1 RES1   0.0000
    14 H2       5.4248   3.3437   9.4185   H         1 RES1   0.0000
    15 H3       4.1338   3.4956   8.5429   H         1 RES1   0.0000
    16 H4       4.0764   3.7875  10.0831   H         1 RES1   0.0000
    17 C2       4.9617   5.2766   9.0351   C.ar      1 RES1   0.0000
    18 C3       4.1175   6.3449   8.8045   C.ar      1 RES1   0.0000
    19 H5       3.1879   6.3255   8.7968   H         1 RES1   0.0000
    20 C4       4.9142   7.4407   8.5882   C.ar      1 RES1   0.0000
    21 C5       4.5328   8.8397   8.2229   C.3       1 RES1   0.0000
    22 H6       5.3246   9.3773   8.1413   H         1 RES1   0.0000
    23 H7       3.9670   9.2060   8.9069   H         1 RES1   0.0000
    24 H8       4.0624   8.8343   7.3861   H         1 RES1   0.0000
    25 C6       9.5549   4.2351   5.7436   C.3       1 RES1   0.0000
    26 H9       9.4039   3.6318   6.4742   H         1 RES1   0.0000
    27 H10     10.4926   4.2605   5.5377   H         1 RES1   0.0000
    28 H11      9.0650   3.9374   4.9742   H         1 RES1   0.0000
    29 C7       9.0955   5.5993   6.1244   C.ar      1 RES1   0.0000
    30 C8       9.1356   6.7595   5.3744   C.ar      1 RES1   0.0000
    31 H12      9.4653   6.8471   4.5091   H         1 RES1   0.0000
    32 C9       8.6029   7.7529   6.1374   C.ar      1 RES1   0.0000
    33 C10      8.4014   9.2060   5.8252   C.3       1 RES1   0.0000
    34 H13      7.9975   9.6420   6.5791   H         1 RES1   0.0000
    35 H14      7.8272   9.2916   5.0597   H         1 RES1   0.0000
    36 H15      9.2496   9.6147   5.6361   H         1 RES1   0.0000
    37 C11     10.1520   5.4574  12.0429   C.3       1 RES1   0.0000
    38 H16      9.9062   4.6322  11.6219   H         1 RES1   0.0000
    39 H17      9.8246   5.4672  12.9458   H         1 RES1   0.0000
    40 H18     11.1088   5.5431  12.0494   H         1 RES1   0.0000
    41 C12      9.5580   6.5970  11.2877   C.ar      1 RES1   0.0000
    42 C13      9.6688   7.9590  11.5533   C.ar      1 RES1   0.0000
    43 H19     10.1441   8.3516  12.2502   H         1 RES1   0.0000
    44 C14      8.9400   8.6137  10.5882   C.ar      1 RES1   0.0000
    45 C15      8.7416  10.0776  10.3901   C.3       1 RES1   0.0000
    46 H20      8.1818  10.2239   9.6232   H         1 RES1   0.0000
    47 H21      9.5920  10.5003  10.2502   H         1 RES1   0.0000
    48 H22      8.3217  10.4516  11.1686   H         1 RES1   0.0000
    49 C16      8.6883   2.1524   8.3486   C.ar      1 RES1   0.0000
    50 C17      8.6027   0.8326   7.9146   C.ar      1 RES1   0.0000
    51 H23      7.8046   0.5041   7.5701   H         1 RES1   0.0000
    52 C18      9.7160   0.0088   8.0001   C.ar      1 RES1   0.0000
    53 H24      9.6660  -0.8719   7.7087   H         1 RES1   0.0000
    54 C19     10.8884   0.4963   8.5170   C.ar      1 RES1   0.0000
    55 C20     10.9982   1.8007   8.9639   C.ar      1 RES1   0.0000
    56 H25     11.7961   2.1117   9.3253   H         1 RES1   0.0000
    57 C21      9.9027   2.6335   8.8667   C.ar      1 RES1   0.0000
    58 O3       7.4332   4.0160  10.9792   O.3       1 RES1   0.0000
    59 H26      7.2921   4.5582  11.5792   H         1 RES1   0.0000
    60 C22      7.5636   2.7190  11.5352   C.3       1 RES1   0.0000
    61 H27      7.1547   2.6995  12.4030   H         1 RES1   0.0000
    62 H28      8.4949   2.4971  11.6155   H         1 RES1   0.0000
    63 H29      7.1312   2.0806  10.9639   H         1 RES1   0.0000
    64 O4      12.1865   5.2391   8.3706   O.3       2 RES2   0.0000
    65 H30     11.5232   4.8404   8.6426   H         2 RES2   0.0000
    66 C23     11.9031   6.6096   8.2760   C.3       2 RES2   0.0000
    67 H31     11.7261   6.9619   9.1517   H         2 RES2   0.0000
    68 H32     11.1320   6.7400   7.7177   H         2 RES2   0.0000
    69 H33     12.6552   7.0670   7.8939   H         2 RES2   0.0000
    70 O5       6.3200   5.5415  12.8085   O.3       3 RES3   0.0000
    71 H34      5.8101   5.2628  13.3875   H         3 RES3   0.0000
    72 C24      6.0889   6.8743  12.5986   C.3       3 RES3   0.0000
    73 H35      5.8132   7.2850  13.4212   H         3 RES3   0.0000
    74 H36      5.3984   6.9794  11.9406   H         3 RES3   0.0000
    75 H37      6.8949   7.2928  12.2865   H         3 RES3   0.0000
@<TRIPOS>BOND
     1     1     5    1
     2     2    54    1
     3     3     4    1
     4     5    49    1
     5     6     1    1
     6     7     1    1
     7     8     3    1
     8     9     1    1
     9    10     3    1
    10    11     1    1
    11    12     3    1
    12    13    14    1
    13    15    13    1
    14    16    13    1
    15    17     7   ar
    16    18    17   ar
    17    19    18    1
    18    20     8   ar
    19    21    20    1
    20    22    21    1
    21    23    21    1
    22    24    21    1
    23    25    26    1
    24    27    25    1
    25    28    25    1
    26    29     9   ar
    27    30    29   ar
    28    31    30    1
    29    32    10   ar
    30    33    32    1
    31    34    33    1
    32    35    33    1
    33    36    33    1
    34    37    38    1
    35    39    37    1
    36    40    37    1
    37    41    11   ar
    38    42    41   ar
    39    43    42    1
    40    44    12   ar
    41    45    44    1
    42    46    45    1
    43    47    45    1
    44    48    45    1
    45    49    50   ar
    46    50    51    1
    47    52    50   ar
    48    53    52    1
    49    54    52   ar
    50    55    54   ar
    51    56    55    1
    52    57     6    1
    53    58     1    1
    54    59    58    1
    55    60    58    1
    56    61    60    1
    57    62    60    1
    58    63    60    1
    59     7     8   ar
    60     9    10   ar
    61    11    12   ar
    62    13    17    1
    63    18    20   ar
    64    25    29    1
    65    30    32   ar
    66    37    41    1
    67    42    44   ar
    68    49    57   ar
    69    55    57   ar
    70    64    65    1
    71    66    64    1
    72    67    66    1
    73    68    66    1
    74    69    66    1
    75    70    71    1
    76    72    70    1
    77    73    72    1
    78    74    72    1
    79    75    72    1
@<TRIPOS>SUBSTRUCTURE
     1 RES1        1 GROUP             0 ****  ****    0  
     2 RES2       64 GROUP             0 ****  ****    0  
     3 RES3       70 GROUP             0 ****  ****    0  
@<TRIPOS>CRYSIN
   11.7434   19.4630   13.2620   90.0000  102.3810   90.0000   231     1
