@<TRIPOS>MOLECULE
CABXIO
    83    86     1     0     0
SMALL
NO_CHARGES
****
Generated from the CSD

@<TRIPOS>ATOM
     1 Fe1      0.0000   0.0000   0.0000   Fe        1 RES1   0.0000
     2 P1      -0.3891   0.8114   2.0123   P.3       1 RES1   0.0000
     3 P2      -1.8875   0.9635  -0.5959   P.3       1 RES1   0.0000
     4 O1       3.9566   7.5897  -1.7163   O.3       1 RES1   0.0000
     5 C1       1.0035   1.5945  -0.4378   C.1       1 RES1   0.0000
     6 C2       1.6100   2.5968  -0.6882   C.1       1 RES1   0.0000
     7 C3       2.2550   3.8490  -0.9484   C.ar      1 RES1   0.0000
     8 C4       1.6333   5.0446  -0.6420   C.ar      1 RES1   0.0000
     9 C5       2.2228   6.2587  -0.9092   C.ar      1 RES1   0.0000
    10 C6       3.4717   6.3116  -1.4799   C.ar      1 RES1   0.0000
    11 C7       4.1227   5.1702  -1.8030   C.ar      1 RES1   0.0000
    12 C8       3.5331   3.9389  -1.5219   C.ar      1 RES1   0.0000
    13 C9       5.2477   7.7289  -2.2381   C.3       1 RES1   0.0000
    14 C10      0.7023   2.0698   2.7402   C.3       1 RES1   0.0000
    15 C11     -0.6101  -0.3017   3.4270   C.3       1 RES1   0.0000
    16 C12     -1.9276   1.7435   1.9961   C.3       1 RES1   0.0000
    17 C13     -2.7519   1.5576   0.8868   C.3       1 RES1   0.0000
    18 C14     -1.8836   2.4454  -1.6142   C.3       1 RES1   0.0000
    19 C15     -3.2405   0.0406  -1.3540   C.3       1 RES1   0.0000
    20 H1       0.7475   5.0214  -0.2614   H         1 RES1   0.0000
    21 H2       1.7776   7.0785  -0.6472   H         1 RES1   0.0000
    22 H3       5.0132   5.2122  -2.2010   H         1 RES1   0.0000
    23 H4       3.9749   3.1189  -1.7580   H         1 RES1   0.0000
    24 H5       5.8681   7.3267  -1.6248   H         1 RES1   0.0000
    25 H6       5.2797   7.2894  -3.0950   H         1 RES1   0.0000
    26 H7       5.4332   8.6724  -2.3382   H         1 RES1   0.0000
    27 H8       1.5761   1.7249   2.8151   H         1 RES1   0.0000
    28 H9       0.6708   2.8569   2.1760   H         1 RES1   0.0000
    29 H10      0.3394   2.2995   3.6212   H         1 RES1   0.0000
    30 H11     -0.9761   0.1891   4.1704   H         1 RES1   0.0000
    31 H12     -1.1494  -1.0409   3.1874   H         1 RES1   0.0000
    32 H13      0.2932  -0.6330   3.6990   H         1 RES1   0.0000
    33 H14     -2.3817   1.4959   2.8134   H         1 RES1   0.0000
    34 H15     -1.6576   2.6746   2.0421   H         1 RES1   0.0000
    35 H16     -3.1930   2.3813   0.6993   H         1 RES1   0.0000
    36 H17     -3.4247   0.8788   1.1432   H         1 RES1   0.0000
    37 H18     -1.2295   3.0590  -1.3188   H         1 RES1   0.0000
    38 H19     -1.7269   2.1929  -2.5483   H         1 RES1   0.0000
    39 H20     -2.7805   2.8614  -1.5725   H         1 RES1   0.0000
    40 H21     -3.9784   0.6307  -1.5335   H         1 RES1   0.0000
    41 H22     -2.9224  -0.3418  -2.2030   H         1 RES1   0.0000
    42 H23     -3.5118  -0.6773  -0.7714   H         1 RES1   0.0000
    43 P1B      0.3891  -0.8114  -2.0123   P.3       1 RES1   0.0000
    44 P2B      1.8875  -0.9635   0.5959   P.3       1 RES1   0.0000
    45 O1B     -3.9566  -7.5897   1.7163   O.3       1 RES1   0.0000
    46 C1B     -1.0035  -1.5945   0.4378   C.1       1 RES1   0.0000
    47 C2B     -1.6100  -2.5968   0.6882   C.1       1 RES1   0.0000
    48 C3B     -2.2550  -3.8490   0.9484   C.ar      1 RES1   0.0000
    49 C4B     -1.6333  -5.0446   0.6420   C.ar      1 RES1   0.0000
    50 C5B     -2.2228  -6.2587   0.9092   C.ar      1 RES1   0.0000
    51 C6B     -3.4717  -6.3116   1.4799   C.ar      1 RES1   0.0000
    52 C7B     -4.1227  -5.1702   1.8030   C.ar      1 RES1   0.0000
    53 C8B     -3.5331  -3.9389   1.5219   C.ar      1 RES1   0.0000
    54 C9B     -5.2477  -7.7289   2.2381   C.3       1 RES1   0.0000
    55 C10B    -0.7023  -2.0698  -2.7402   C.3       1 RES1   0.0000
    56 C11B     0.6101   0.3017  -3.4270   C.3       1 RES1   0.0000
    57 C12B     1.9276  -1.7435  -1.9961   C.3       1 RES1   0.0000
    58 C13B     2.7519  -1.5576  -0.8868   C.3       1 RES1   0.0000
    59 C14B     1.8836  -2.4454   1.6142   C.3       1 RES1   0.0000
    60 C15B     3.2405  -0.0406   1.3540   C.3       1 RES1   0.0000
    61 H1B     -0.7475  -5.0214   0.2614   H         1 RES1   0.0000
    62 H2B     -1.7776  -7.0785   0.6472   H         1 RES1   0.0000
    63 H3B     -5.0132  -5.2122   2.2010   H         1 RES1   0.0000
    64 H4B     -3.9749  -3.1189   1.7580   H         1 RES1   0.0000
    65 H5B     -5.8681  -7.3267   1.6248   H         1 RES1   0.0000
    66 H6B     -5.2797  -7.2894   3.0950   H         1 RES1   0.0000
    67 H7B     -5.4332  -8.6724   2.3382   H         1 RES1   0.0000
    68 H8B     -1.5761  -1.7249  -2.8151   H         1 RES1   0.0000
    69 H9B     -0.6708  -2.8569  -2.1760   H         1 RES1   0.0000
    70 H10B    -0.3394  -2.2995  -3.6212   H         1 RES1   0.0000
    71 H11B     0.9761  -0.1891  -4.1704   H         1 RES1   0.0000
    72 H12B     1.1494   1.0409  -3.1874   H         1 RES1   0.0000
    73 H13B    -0.2932   0.6330  -3.6990   H         1 RES1   0.0000
    74 H14B     2.3817  -1.4959  -2.8134   H         1 RES1   0.0000
    75 H15B     1.6576  -2.6746  -2.0421   H         1 RES1   0.0000
    76 H16B     3.1930  -2.3813  -0.6993   H         1 RES1   0.0000
    77 H17B     3.4247  -0.8788  -1.1432   H         1 RES1   0.0000
    78 H18B     1.2295  -3.0590   1.3188   H         1 RES1   0.0000
    79 H19B     1.7269  -2.1929   2.5483   H         1 RES1   0.0000
    80 H20B     2.7805  -2.8614   1.5725   H         1 RES1   0.0000
    81 H21B     3.9784  -0.6307   1.5335   H         1 RES1   0.0000
    82 H22B     2.9224   0.3418   2.2030   H         1 RES1   0.0000
    83 H23B     3.5118   0.6773   0.7714   H         1 RES1   0.0000
@<TRIPOS>BOND
     1     1     2    1
     2     2    14    1
     3     3     1    1
     4     4    10    1
     5     5     1    1
     6     6     5    3
     7     7     6    1
     8     8     7   ar
     9     9     8   ar
    10    10     9   ar
    11    11    10   ar
    12    12     7   ar
    13    13     4    1
    14    14    27    1
    15    15     2    1
    16    16     2    1
    17    17     3    1
    18    18     3    1
    19    19     3    1
    20    20     8    1
    21    21     9    1
    22    22    11    1
    23    23    12    1
    24    24    13    1
    25    25    13    1
    26    26    13    1
    27    28    14    1
    28    29    14    1
    29    30    15    1
    30    31    15    1
    31    32    15    1
    32    33    16    1
    33    34    16    1
    34    35    17    1
    35    36    17    1
    36    37    18    1
    37    38    18    1
    38    39    18    1
    39    40    19    1
    40    41    19    1
    41    42    19    1
    42    43     1    1
    43    44     1    1
    44    45    51    1
    45    46     1    1
    46    47    46    3
    47    48    47    1
    48    49    48   ar
    49    50    49   ar
    50    51    50   ar
    51    52    51   ar
    52    53    48   ar
    53    54    45    1
    54    55    43    1
    55    56    43    1
    56    57    43    1
    57    58    44    1
    58    59    44    1
    59    60    44    1
    60    61    49    1
    61    62    50    1
    62    63    52    1
    63    64    53    1
    64    65    54    1
    65    66    54    1
    66    67    54    1
    67    68    55    1
    68    69    55    1
    69    70    55    1
    70    71    56    1
    71    72    56    1
    72    73    56    1
    73    74    57    1
    74    75    57    1
    75    76    58    1
    76    77    58    1
    77    78    59    1
    78    79    59    1
    79    80    59    1
    80    81    60    1
    81    82    60    1
    82    83    60    1
    83    11    12   ar
    84    16    17    1
    85    52    53   ar
    86    57    58    1
@<TRIPOS>SUBSTRUCTURE
     1 RES1        1 GROUP             0 ****  ****    0  
@<TRIPOS>CRYSIN
    9.4160   12.3130   13.9880   90.0000   90.2200   90.0000    14     1
