@<TRIPOS>MOLECULE
CACRON
    45    48     2     0     0
SMALL
USER_CHARGES
****
Generated from the CSD

@<TRIPOS>ATOM
     1 Fe1     10.9995   3.3953   4.4620   Fe        1 RES1   1.0000
     2 P1      12.1563   1.9040   3.1908   P.3       1 RES1   0.0000
     3 P2       9.8883   4.8477   5.8130   P.3       1 RES1   0.0000
     4 O1      13.3224   3.6315   6.1527   O.2       1 RES1   0.0000
     5 O2       9.6061   1.1371   5.6501   O.2       1 RES1   0.0000
     6 N1      10.1186   4.1964   2.8458   N.2       1 RES1   0.0000
     7 C1      11.1242   0.6757   2.2464   C.3       1 RES1   0.0000
     8 C2      13.3154   0.8351   4.1884   C.3       1 RES1   0.0000
     9 C3      13.2013   2.6186   1.8589   C.3       1 RES1   0.0000
    10 C4      10.1851   6.6470   5.5192   C.3       1 RES1   0.0000
    11 C5       8.0729   4.7308   5.7598   C.3       1 RES1   0.0000
    12 C6      10.3031   4.6553   7.5782   C.3       1 RES1   0.0000
    13 C7      12.3674   3.5329   5.4585   C.1       1 RES1   0.0000
    14 C8      10.2141   2.0598   5.1987   C.1       1 RES1   0.0000
    15 C9      11.1655   4.7552   3.0886   C.2       1 RES1   0.0000
    16 C10     11.9964   5.8788   2.5541   C.3       1 RES1   0.0000
    17 C11      8.9991   4.3059   1.8163   C.3       1 RES1   0.0000
    18 C12      9.7687   4.2536   0.4035   C.3       1 RES1   0.0000
    19 C13      8.0627   3.1312   2.0378   C.3       1 RES1   0.0000
    20 C14      8.3512   5.6853   1.9547   C.3       1 RES1   0.0000
    21 B1       3.2008   3.3990   6.3720   B         2 RES2  -1.0000
    22 C15      3.1382   3.2407   4.7175   C.ar      2 RES2   0.0000
    23 C16      4.2945   3.3162   3.9424   C.ar      2 RES2   0.0000
    24 C17      4.2014   3.3393   2.5509   C.ar      2 RES2   0.0000
    25 C18      2.9522   3.2870   1.9334   C.ar      2 RES2   0.0000
    26 C19      1.7960   3.2127   2.7074   C.ar      2 RES2   0.0000
    27 C20      1.8860   3.1896   4.1000   C.ar      2 RES2   0.0000
    28 C21      2.1456   2.3484   7.1609   C.ar      2 RES2   0.0000
    29 C22      1.8020   2.6539   8.4789   C.ar      2 RES2   0.0000
    30 C23      0.9900   1.7847   9.2082   C.ar      2 RES2   0.0000
    31 C24      0.5187   0.6099   8.6195   C.ar      2 RES2   0.0000
    32 C25      0.8623   0.3044   7.3025   C.ar      2 RES2   0.0000
    33 C26      1.6742   1.1736   6.5732   C.ar      2 RES2   0.0000
    34 C27      2.8385   4.9913   6.6594   C.ar      2 RES2   0.0000
    35 C28      3.8410   5.9628   6.6552   C.ar      2 RES2   0.0000
    36 C29      3.5062   7.3093   6.7989   C.ar      2 RES2   0.0000
    37 C30      2.1690   7.6842   6.9458   C.ar      2 RES2   0.0000
    38 C31      1.1695   6.7127   6.9501   C.ar      2 RES2   0.0000
    39 C32      1.5043   5.3651   6.8064   C.ar      2 RES2   0.0000
    40 C33      4.6780   2.9498   7.0566   C.ar      2 RES2   0.0000
    41 C34      5.1688   3.6279   8.1734   C.ar      2 RES2   0.0000
    42 C35      6.3436   3.2005   8.7888   C.ar      2 RES2   0.0000
    43 C36      7.0335   2.0964   8.2862   C.ar      2 RES2   0.0000
    44 C37      6.5457   1.4195   7.1683   C.ar      2 RES2   0.0000
    45 C38      5.3680   1.8468   6.5530   C.ar      2 RES2   0.0000
@<TRIPOS>BOND
     1     1     2    1
     2     2     7    1
     3     3     1    1
     4     4    13    3
     5     5    14    3
     6     6     1    1
     7     8     2    1
     8     9     2    1
     9    10     3    1
    10    11     3    1
    11    12     3    1
    12    13     1    1
    13    14     1    1
    14    15     1    1
    15    16    15    1
    16    17     6    1
    17    18    17    1
    18    19    17    1
    19    20    17    1
    20     6    15    2
    21    21    22    1
    22    22    23   ar
    23    23    24   ar
    24    24    25   ar
    25    25    26   ar
    26    26    27   ar
    27    27    22   ar
    28    28    21    1
    29    29    28   ar
    30    30    29   ar
    31    31    30   ar
    32    32    31   ar
    33    33    28   ar
    34    34    21    1
    35    35    34   ar
    36    36    35   ar
    37    37    36   ar
    38    38    37   ar
    39    39    34   ar
    40    40    21    1
    41    41    40   ar
    42    42    41   ar
    43    43    42   ar
    44    44    43   ar
    45    45    40   ar
    46    32    33   ar
    47    38    39   ar
    48    44    45   ar
@<TRIPOS>SUBSTRUCTURE
     1 RES1        1 GROUP             0 ****  ****    0  
     2 RES2       21 GROUP             0 ****  ****    0  
@<TRIPOS>CRYSIN
   29.8320   12.1740   10.6500   90.0000   91.4500   90.0000   231     1
