@<TRIPOS>MOLECULE
CAHNIM
   152   166     2     0     0
SMALL
USER_CHARGES
****
Generated from the CSD

@<TRIPOS>ATOM
     1 Fe1      2.7810   5.0117  13.0828   Fe        1 RES1   1.0000
     2 O1       3.7408   6.9065  13.6664   O.3       1 RES1   0.0000
     3 O2       1.8734   3.1169  12.5390   O.3       1 RES1   0.0000
     4 N1       4.5521   4.3977  12.3231   N.2       1 RES1   0.0000
     5 N2       3.2644   4.2804  14.8961   N.2       1 RES1   0.0000
     6 N3       1.0214   5.6422  13.8494   N.2       1 RES1   0.0000
     7 N4       2.2827   5.7281  11.2715   N.2       1 RES1   0.0000
     8 C1       5.0014   4.5366  11.0206   C.2       1 RES1   0.0000
     9 C2       6.3379   4.0110  10.9101   C.2       1 RES1   0.0000
    10 H1       6.8687   3.9769  10.1231   H         1 RES1   0.0000
    11 C3       6.6962   3.5714  12.1532   C.2       1 RES1   0.0000
    12 H2       7.5276   3.1803  12.3951   H         1 RES1   0.0000
    13 C4       5.5863   3.8094  13.0214   C.2       1 RES1   0.0000
    14 C5       5.5430   3.4673  14.3735   C.2       1 RES1   0.0000
    15 C6       4.4634   3.6639  15.2222   C.2       1 RES1   0.0000
    16 C7       4.4471   3.2789  16.6013   C.2       1 RES1   0.0000
    17 H3       5.1485   2.8391  17.0688   H         1 RES1   0.0000
    18 C8       3.2566   3.6507  17.1170   C.2       1 RES1   0.0000
    19 H4       2.9630   3.5173  18.0107   H         1 RES1   0.0000
    20 C9       2.5101   4.2903  16.0565   C.2       1 RES1   0.0000
    21 C10      1.2493   4.8555  16.1774   C.2       1 RES1   0.0000
    22 C11      0.5631   5.4819  15.1442   C.2       1 RES1   0.0000
    23 C12     -0.7607   6.0438  15.2482   C.2       1 RES1   0.0000
    24 H5      -1.2981   6.0668  16.0316   H         1 RES1   0.0000
    25 C13     -1.1035   6.5330  14.0376   C.2       1 RES1   0.0000
    26 H6      -1.9174   6.9685  13.8128   H         1 RES1   0.0000
    27 C14      0.0010   6.2685  13.1524   C.2       1 RES1   0.0000
    28 C15      0.0204   6.5726  11.7893   C.2       1 RES1   0.0000
    29 C16      1.0796   6.3165  10.9260   C.2       1 RES1   0.0000
    30 C17      1.0736   6.6206   9.5171   C.2       1 RES1   0.0000
    31 H7       0.3671   7.0350   9.0363   H         1 RES1   0.0000
    32 C18      2.2479   6.2107   9.0049   C.2       1 RES1   0.0000
    33 H8       2.5264   6.2780   8.0991   H         1 RES1   0.0000
    34 C19      3.0028   5.6471  10.1001   C.2       1 RES1   0.0000
    35 C20      4.2879   5.1067   9.9726   C.2       1 RES1   0.0000
    36 C21      4.9177   5.1348   8.6209   C.ar      1 RES1   0.0000
    37 C22      5.3268   6.3264   8.0272   C.ar      1 RES1   0.0000
    38 C23      5.8934   6.4008   6.7750   C.ar      1 RES1   0.0000
    39 H9       6.1466   7.2356   6.4008   H         1 RES1   0.0000
    40 C24      6.0817   5.2174   6.0770   C.ar      1 RES1   0.0000
    41 H10      6.4880   5.2427   5.2184   H         1 RES1   0.0000
    42 C25      5.6902   3.9994   6.6090   C.ar      1 RES1   0.0000
    43 H11      5.8075   3.1933   6.1216   H         1 RES1   0.0000
    44 C26      5.1259   3.9928   7.8612   C.ar      1 RES1   0.0000
    45 C27      6.7658   2.8442  14.9696   C.ar      1 RES1   0.0000
    46 C28      7.7257   3.5747  15.6461   C.ar      1 RES1   0.0000
    47 C29      8.8205   2.9913  16.2554   C.ar      1 RES1   0.0000
    48 H12      9.4548   3.5257  16.7197   H         1 RES1   0.0000
    49 C30      8.9786   1.6378  16.1798   C.ar      1 RES1   0.0000
    50 H13      9.7238   1.2320  16.6056   H         1 RES1   0.0000
    51 C31      8.0673   0.8396  15.4905   C.ar      1 RES1   0.0000
    52 H14      8.1894  -0.0998  15.4208   H         1 RES1   0.0000
    53 C32      6.9775   1.4676  14.9117   C.ar      1 RES1   0.0000
    54 C33      0.5933   4.7712  17.5166   C.ar      1 RES1   0.0000
    55 C34      0.2712   5.8884  18.2801   C.ar      1 RES1   0.0000
    56 C35     -0.3739   5.8537  19.4977   C.ar      1 RES1   0.0000
    57 H15     -0.5965   6.6480  19.9675   H         1 RES1   0.0000
    58 C36     -0.6857   4.5779  20.0103   C.ar      1 RES1   0.0000
    59 H16     -1.1200   4.5076  20.8520   H         1 RES1   0.0000
    60 C37     -0.3769   3.4491  19.3233   C.ar      1 RES1   0.0000
    61 H17     -0.5834   2.5951  19.6849   H         1 RES1   0.0000
    62 C38      0.2457   3.5549  18.0871   C.ar      1 RES1   0.0000
    63 C39     -1.2063   7.1725  11.1641   C.ar      1 RES1   0.0000
    64 C40     -2.0387   6.4437  10.3413   C.ar      1 RES1   0.0000
    65 C41     -3.1018   6.9874   9.6506   C.ar      1 RES1   0.0000
    66 H18     -3.6408   6.4519   9.0798   H         1 RES1   0.0000
    67 C42     -3.3586   8.3393   9.8152   C.ar      1 RES1   0.0000
    68 H19     -4.0826   8.7361   9.3443   H         1 RES1   0.0000
    69 C43     -2.5817   9.1260  10.6529   C.ar      1 RES1   0.0000
    70 H20     -2.7694  10.0498  10.7732   H         1 RES1   0.0000
    71 C44     -1.5247   8.5211  11.3062   C.ar      1 RES1   0.0000
    72 C45      6.0573   7.3560  12.9916   C.3       1 RES1   0.0000
    73 H21      6.6034   7.9414  12.4262   H         1 RES1   0.0000
    74 H22      6.2163   6.4213  12.7434   H         1 RES1   0.0000
    75 H23      6.3001   7.4904  13.9314   H         1 RES1   0.0000
    76 C46      4.5908   7.6882  12.7958   C.3       1 RES1   0.0000
    77 H24      4.4476   8.6511  12.9778   H         1 RES1   0.0000
    78 H25      4.3403   7.5160  11.8536   H         1 RES1   0.0000
    79 C47      3.6085   7.4915  14.9872   C.3       1 RES1   0.0000
    80 H26      4.4774   7.8827  15.2546   H         1 RES1   0.0000
    81 H27      3.3870   6.7760  15.6352   H         1 RES1   0.0000
    82 C48      2.5490   8.5575  15.0538   C.3       1 RES1   0.0000
    83 H28      2.7439   9.2539  14.3921   H         1 RES1   0.0000
    84 H29      2.5390   8.9533  15.9505   H         1 RES1   0.0000
    85 H30      1.6733   8.1613  14.8622   H         1 RES1   0.0000
    86 C49      3.2788   1.3568  11.5724   C.3       1 RES1   0.0000
    87 H31      3.5060   0.9153  10.7276   H         1 RES1   0.0000
    88 H32      2.9465   0.6905  12.2100   H         1 RES1   0.0000
    89 H33      4.0764   1.7910  11.9395   H         1 RES1   0.0000
    90 C50      2.2148   2.3881  11.3277   C.3       1 RES1   0.0000
    91 H34      2.5332   3.0274  10.6420   H         1 RES1   0.0000
    92 H35      1.4041   1.9427  10.9756   H         1 RES1   0.0000
    93 C51      0.8642   2.4426  13.3278   C.3       1 RES1   0.0000
    94 H36      0.9448   2.7348  14.2705   H         1 RES1   0.0000
    95 H37      1.0304   1.4674  13.2985   H         1 RES1   0.0000
    96 C52     -0.5429   2.7170  12.8464   C.3       1 RES1   0.0000
    97 H38     -0.6466   2.3807  11.9318   H         1 RES1   0.0000
    98 H39     -0.7103   3.6829  12.8598   H         1 RES1   0.0000
    99 H40     -1.1834   2.2665  13.4350   H         1 RES1   0.0000
   100 F1       5.1692   7.4684   8.7405   F         1 RES1   0.0000
   101 F2       4.7196   2.8128   8.3831   F         1 RES1   0.0000
   102 F3       7.5533   4.9167  15.7431   F         1 RES1   0.0000
   103 F4       6.0695   0.7387  14.2293   F         1 RES1   0.0000
   104 F5       0.6138   7.1031  17.7790   F         1 RES1   0.0000
   105 F6       0.5106   2.4245  17.4095   F         1 RES1   0.0000
   106 F7      -0.7496   9.2681  12.1224   F         1 RES1   0.0000
   107 F8      -1.7918   5.1166  10.2023   F         1 RES1   0.0000
   108 B1       5.2593  13.1486  12.9871   B         2 RES2  -1.0000
   109 C53      4.1300  14.1121  13.6966   C.ar      2 RES2   0.0000
   110 C54      2.8531  14.4343  13.2550   C.ar      2 RES2   0.0000
   111 C55      2.0011  15.3053  13.9052   C.ar      2 RES2   0.0000
   112 C56      2.4087  15.9498  15.0496   C.ar      2 RES2   0.0000
   113 C57      3.6944  15.7284  15.5123   C.ar      2 RES2   0.0000
   114 C58      4.4870  14.8409  14.8403   C.ar      2 RES2   0.0000
   115 C59      6.3453  14.2806  12.4617   C.ar      2 RES2   0.0000
   116 C60      5.9771  15.1466  11.4545   C.ar      2 RES2   0.0000
   117 C61      6.7148  16.1977  10.9769   C.ar      2 RES2   0.0000
   118 C62      7.9520  16.4440  11.5446   C.ar      2 RES2   0.0000
   119 C63      8.3841  15.6441  12.5736   C.ar      2 RES2   0.0000
   120 C64      7.5981  14.5765  13.0051   C.ar      2 RES2   0.0000
   121 C65      4.6741  12.2132  11.7606   C.ar      2 RES2   0.0000
   122 C66      5.2726  11.9967  10.5195   C.ar      2 RES2   0.0000
   123 C67      4.8020  11.0993   9.5660   C.ar      2 RES2   0.0000
   124 C68      3.6896  10.3357   9.8343   C.ar      2 RES2   0.0000
   125 C69      3.0568  10.4960  11.0643   C.ar      2 RES2   0.0000
   126 C70      3.5753  11.3951  11.9845   C.ar      2 RES2   0.0000
   127 C71      5.8484  12.0198  14.0390   C.ar      2 RES2   0.0000
   128 C72      6.9665  11.2612  13.6727   C.ar      2 RES2   0.0000
   129 C73      7.4526  10.1986  14.3988   C.ar      2 RES2   0.0000
   130 C74      6.8202   9.8052  15.5622   C.ar      2 RES2   0.0000
   131 C75      5.6909  10.4977  15.9670   C.ar      2 RES2   0.0000
   132 C76      5.2424  11.5637  15.2049   C.ar      2 RES2   0.0000
   133 F9       2.3651  13.8873  12.1033   F         2 RES2   0.0000
   134 F10      0.7656  15.5367  13.4145   F         2 RES2   0.0000
   135 F11      1.5940  16.8076  15.6801   F         2 RES2   0.0000
   136 F12      4.1485  16.3993  16.5850   F         2 RES2   0.0000
   137 F13      5.7310  14.6492  15.3616   F         2 RES2   0.0000
   138 F14      4.7518  14.9916  10.8695   F         2 RES2   0.0000
   139 F15      6.2786  16.9860   9.9767   F         2 RES2   0.0000
   140 F16      8.7222  17.4570  11.1021   F         2 RES2   0.0000
   141 F17      9.5774  15.8705  13.1511   F         2 RES2   0.0000
   142 F18      8.1026  13.8625  14.0338   F         2 RES2   0.0000
   143 F19      6.3793  12.6957  10.1510   F         2 RES2   0.0000
   144 F20      5.4404  10.9555   8.3932   F         2 RES2   0.0000
   145 F21      3.2098   9.4797   8.9325   F         2 RES2   0.0000
   146 F22      1.9964   9.7309  11.3731   F         2 RES2   0.0000
   147 F23      2.9321  11.4581  13.1701   F         2 RES2   0.0000
   148 F24      7.6262  11.5670  12.5262   F         2 RES2   0.0000
   149 F25      8.5239   9.4962  13.9683   F         2 RES2   0.0000
   150 F26      7.2504   8.7525  16.2675   F         2 RES2   0.0000
   151 F27      5.0607  10.1341  17.0834   F         2 RES2   0.0000
   152 F28      4.1378  12.1747  15.6877   F         2 RES2   0.0000
@<TRIPOS>BOND
     1     1     2    1
     2     2    76    1
     3     3     1    1
     4     4     1    1
     5     5     1    1
     6     6     1    1
     7     7     1    1
     8     8     4    1
     9     9     8    2
    10    10     9    1
    11    11     9    1
    12    12    11    1
    13    13     4    1
    14    14    13    1
    15    15     5    1
    16    16    15    1
    17    17    16    1
    18    18    16    2
    19    19    18    1
    20    20     5    2
    21    21    20    1
    22    22     6    1
    23    23    22    1
    24    24    23    1
    25    25    23    2
    26    26    25    1
    27    27     6    1
    28    28    27    2
    29    29     7    2
    30    30    29    1
    31    31    30    1
    32    32    30    2
    33    33    32    1
    34    34     7    1
    35    35     8    1
    36    36    35    1
    37    37    36   ar
    38    38    37   ar
    39    39    38    1
    40    40    38   ar
    41    41    40    1
    42    42    40   ar
    43    43    42    1
    44    44    36   ar
    45    45    14    1
    46    46    45   ar
    47    47    46   ar
    48    48    47    1
    49    49    47   ar
    50    50    49    1
    51    51    49   ar
    52    52    51    1
    53    53    45   ar
    54    54    21    1
    55    55    54   ar
    56    56    55   ar
    57    57    56    1
    58    58    56   ar
    59    59    58    1
    60    60    58   ar
    61    61    60    1
    62    62    54   ar
    63    63    28    1
    64    64    63   ar
    65    65    64   ar
    66    66    65    1
    67    67    65   ar
    68    68    67    1
    69    69    67   ar
    70    70    69    1
    71    71    63   ar
    72    72    73    1
    73    74    72    1
    74    75    72    1
    75    76    72    1
    76    77    76    1
    77    78    76    1
    78    79     2    1
    79    80    79    1
    80    81    79    1
    81    82    79    1
    82    83    82    1
    83    84    82    1
    84    85    82    1
    85    86    87    1
    86    88    86    1
    87    89    86    1
    88    90     3    1
    89    91    90    1
    90    92    90    1
    91    93     3    1
    92    94    93    1
    93    95    93    1
    94    96    93    1
    95    97    96    1
    96    98    96    1
    97    99    96    1
    98   100    37    1
    99   101    44    1
   100   102    46    1
   101   103    53    1
   102   104    55    1
   103   105    62    1
   104   106    71    1
   105   107    64    1
   106    11    13    2
   107    14    15    2
   108    18    20    1
   109    21    22    2
   110    25    27    1
   111    28    29    1
   112    32    34    1
   113    34    35    2
   114    42    44   ar
   115    51    53   ar
   116    60    62   ar
   117    69    71   ar
   118    86    90    1
   119   108   109    1
   120   109   110   ar
   121   110   111   ar
   122   111   112   ar
   123   112   113   ar
   124   113   114   ar
   125   114   109   ar
   126   115   108    1
   127   116   115   ar
   128   117   116   ar
   129   118   117   ar
   130   119   118   ar
   131   120   115   ar
   132   121   108    1
   133   122   121   ar
   134   123   122   ar
   135   124   123   ar
   136   125   124   ar
   137   126   121   ar
   138   127   108    1
   139   128   127   ar
   140   129   128   ar
   141   130   129   ar
   142   131   130   ar
   143   132   127   ar
   144   133   110    1
   145   134   111    1
   146   135   112    1
   147   136   113    1
   148   137   114    1
   149   138   116    1
   150   139   117    1
   151   140   118    1
   152   141   119    1
   153   142   120    1
   154   143   122    1
   155   144   123    1
   156   145   124    1
   157   146   125    1
   158   147   126    1
   159   148   128    1
   160   149   129    1
   161   150   130    1
   162   151   131    1
   163   152   132    1
   164   119   120   ar
   165   125   126   ar
   166   131   132   ar
@<TRIPOS>SUBSTRUCTURE
     1 RES1        1 GROUP             0 ****  ****    0  
     2 RES2      108 GROUP             0 ****  ****    0  
@<TRIPOS>CRYSIN
   11.5004   16.5266   34.6671   90.0000   91.2980   90.0000   231     1
