@<TRIPOS>MOLECULE
CAJFEZ
   142   150     4     0     0
SMALL
USER_CHARGES
****
Generated from the CSD

@<TRIPOS>ATOM
     1 C1       5.9618   8.8390  12.3104   C.3       1 RES1   0.0000
     2 C2       6.9523  10.6778  13.7246   C.3       1 RES1   0.0000
     3 C3       7.1825   9.2845  13.1362   C.3       1 RES1   0.0000
     4 C4       7.4518   8.2728  14.2222   C.2       1 RES1   0.0000
     5 C5       6.4566   8.1148  15.3360   C.3       1 RES1   0.0000
     6 C6       8.8890   6.5991  15.1999   C.3       1 RES1   0.0000
     7 C7       9.8830   5.6247  14.6150   C.3       1 RES1   0.0000
     8 C8      11.9967   6.8689  14.5626   C.2       1 RES1   0.0000
     9 C9      12.0407   8.2036  14.7075   C.2       1 RES1   0.0000
    10 C10     11.3362   5.4117  12.6700   C.3       1 RES1   0.0000
    11 C11     10.2064   5.1880  11.6888   C.3       1 RES1   0.0000
    12 C12     12.2293   8.5603  10.9311   C.1       1 RES1   0.0000
    13 C13     13.3901   9.0023  10.1804   C.3       1 RES1   0.0000
    14 N1       8.5418   7.5824  14.1471   N.2       1 RES1   0.0000
    15 N2      10.8739   6.3240  13.7490   N.3       1 RES1   0.0000
    16 N3       9.3185   6.3932  11.6242   N.3       1 RES1   0.0000
    17 N4      10.9698   9.0112  14.1261   N.pl3     1 RES1   0.0000
    18 N5      11.3351   8.2231  11.5631   N.1       1 RES1   0.0000
    19 S1       8.6493   9.3945  12.0310   S.3       1 RES1   0.0000
    20 Fe1      9.9127   7.8628  12.8464   Fe        1 RES1   2.0000
    21 H1       6.1402   7.9622  11.9088   H         1 RES1   0.0000
    22 H2       5.7900   9.4939  11.6015   H         1 RES1   0.0000
    23 H3       5.1772   8.7769  12.8935   H         1 RES1   0.0000
    24 H4       6.1290  10.6778  14.2536   H         1 RES1   0.0000
    25 H5       6.8724  11.3292  12.9965   H         1 RES1   0.0000
    26 H6       7.7101  10.9192  14.2972   H         1 RES1   0.0000
    27 H7       6.1039   7.2008  15.3325   H         1 RES1   0.0000
    28 H8       5.7216   8.7503  15.2103   H         1 RES1   0.0000
    29 H9       6.8975   8.2906  16.1950   H         1 RES1   0.0000
    30 H10      8.0761   6.1181  15.4984   H         1 RES1   0.0000
    31 H11      9.2829   7.0606  15.9820   H         1 RES1   0.0000
    32 H12     10.3587   5.1596  15.3483   H         1 RES1   0.0000
    33 H13      9.4013   4.9449  14.0807   H         1 RES1   0.0000
    34 H14     12.6465   6.3009  14.9607   H         1 RES1   0.0000
    35 H15     12.7563   8.6154  15.1772   H         1 RES1   0.0000
    36 H16     11.6184   4.5473  13.0611   H         1 RES1   0.0000
    37 H17     12.1125   5.8110  12.2039   H         1 RES1   0.0000
    38 H18     10.5781   5.0034  10.7914   H         1 RES1   0.0000
    39 H19      9.6748   4.4000  11.9699   H         1 RES1   0.0000
    40 H20     13.5212   9.9643  10.3183   H         1 RES1   0.0000
    41 H21     13.2497   8.8266   9.2271   H         1 RES1   0.0000
    42 H22     14.1840   8.5177  10.4894   H         1 RES1   0.0000
    43 H66      8.4611   6.1447  11.8495   H         1 RES1   0.0000
    44 H67      9.3022   6.7073  10.7600   H         1 RES1   0.0000
    45 H68     11.3268   9.7318  13.6792   H         1 RES1   0.0000
    46 H69     10.4191   9.3271  14.7913   H         1 RES1   0.0000
    47 C14      5.8699   3.4824   8.0731   C.ar      2 RES2   0.0000
    48 C15      6.2266   3.7663   6.7462   C.ar      2 RES2   0.0000
    49 C16      5.8471   2.9623   5.6759   C.ar      2 RES2   0.0000
    50 C17      5.0991   1.8264   5.8959   C.ar      2 RES2   0.0000
    51 C18      4.7292   1.5087   7.1914   C.ar      2 RES2   0.0000
    52 C19      5.1139   2.3251   8.2477   C.ar      2 RES2   0.0000
    53 C20      6.6607   3.7876  10.6797   C.ar      2 RES2   0.0000
    54 C21      7.3109   2.5470  10.6989   C.ar      2 RES2   0.0000
    55 C22      7.8088   1.9772  11.8599   C.ar      2 RES2   0.0000
    56 C23      7.6584   2.6109  13.0786   C.ar      2 RES2   0.0000
    57 C24      7.0362   3.8444  13.1083   C.ar      2 RES2   0.0000
    58 C25      6.5670   4.4213  11.9368   C.ar      2 RES2   0.0000
    59 C26      7.3693   5.5572   8.9129   C.ar      2 RES2   0.0000
    60 C27      8.6089   5.0514   8.4886   C.ar      2 RES2   0.0000
    61 C28      9.6835   5.8643   8.1534   C.ar      2 RES2   0.0000
    62 C29      9.5529   7.2469   8.2442   C.ar      2 RES2   0.0000
    63 C30      8.3568   7.7847   8.6754   C.ar      2 RES2   0.0000
    64 C31      7.2922   6.9487   9.0054   C.ar      2 RES2   0.0000
    65 C32      4.7323   5.3300   9.4995   C.ar      2 RES2   0.0000
    66 C33      3.8521   5.1987  10.5854   C.ar      2 RES2   0.0000
    67 C34      2.6598   5.9069  10.6797   C.ar      2 RES2   0.0000
    68 C35      2.2777   6.7641   9.6688   C.ar      2 RES2   0.0000
    69 C36      3.0918   6.8884   8.5549   C.ar      2 RES2   0.0000
    70 C37      4.2832   6.1926   8.4851   C.ar      2 RES2   0.0000
    71 B1       6.1488   4.5278   9.3092   B         2 RES2  -1.0000
    72 H23      6.7513   4.5384   6.5698   H         2 RES2   0.0000
    73 H24      6.1060   3.1966   4.7908   H         2 RES2   0.0000
    74 H25      4.8390   1.2708   5.1714   H         2 RES2   0.0000
    75 H26      4.2137   0.7277   7.3590   H         2 RES2   0.0000
    76 H27      4.8476   2.0837   9.1276   H         2 RES2   0.0000
    77 H28      7.4139   2.0766   9.8801   H         2 RES2   0.0000
    78 H29      8.2600   1.1430  11.8180   H         2 RES2   0.0000
    79 H30      7.9765   2.2080  13.8782   H         2 RES2   0.0000
    80 H31      6.9258   4.2988  13.9358   H         2 RES2   0.0000
    81 H32      6.1672   5.2803  11.9822   H         2 RES2   0.0000
    82 H33      8.7182   4.1107   8.4275   H         2 RES2   0.0000
    83 H34     10.5026   5.4791   7.8653   H         2 RES2   0.0000
    84 H35     10.2783   7.8149   8.0102   H         2 RES2   0.0000
    85 H36      8.2584   8.7254   8.7487   H         2 RES2   0.0000
    86 H37      6.4806   7.3410   9.3057   H         2 RES2   0.0000
    87 H38      4.0830   4.6005  11.2873   H         2 RES2   0.0000
    88 H39      2.1052   5.7986  11.4444   H         2 RES2   0.0000
    89 H40      1.4704   7.2611   9.7352   H         2 RES2   0.0000
    90 H41      2.8317   7.4528   7.8374   H         2 RES2   0.0000
    91 H42      4.8256   6.3027   7.7134   H         2 RES2   0.0000
    92 C38     12.4554   3.8657  17.2024   C.ar      3 RES3   0.0000
    93 C39     13.2607   3.8196  16.0536   C.ar      3 RES3   0.0000
    94 C40     12.9609   3.0085  14.9642   C.ar      3 RES3   0.0000
    95 C41     11.8339   2.2169  14.9711   C.ar      3 RES3   0.0000
    96 C42     11.0286   2.2115  16.0990   C.ar      3 RES3   0.0000
    97 C43     11.3480   3.0067  17.1867   C.ar      3 RES3   0.0000
    98 C44     14.1125   5.7258  18.2482   C.ar      3 RES3   0.0000
    99 C45     13.9508   6.9558  17.5970   C.ar      3 RES3   0.0000
   100 C46     15.0145   7.7812  17.2496   C.ar      3 RES3   0.0000
   101 C47     16.3048   7.4067  17.5586   C.ar      3 RES3   0.0000
   102 C48     16.5127   6.2139  18.2133   C.ar      3 RES3   0.0000
   103 C49     15.4363   5.3992  18.5555   C.ar      3 RES3   0.0000
   104 C50     11.5692   5.7116  18.9972   C.ar      3 RES3   0.0000
   105 C51     10.2849   5.7507  18.4403   C.ar      3 RES3   0.0000
   106 C52      9.2870   6.6026  18.8942   C.ar      3 RES3   0.0000
   107 C53      9.5371   7.4759  19.9313   C.ar      3 RES3   0.0000
   108 C54     10.8018   7.4936  20.5039   C.ar      3 RES3   0.0000
   109 C55     11.7806   6.6275  20.0430   C.ar      3 RES3   0.0000
   110 C56     13.1766   3.6421  19.7113   C.ar      3 RES3   0.0000
   111 C57     14.0100   2.5488  19.4215   C.ar      3 RES3   0.0000
   112 C58     14.4286   1.6400  20.3765   C.ar      3 RES3   0.0000
   113 C59     14.0065   1.7678  21.6859   C.ar      3 RES3   0.0000
   114 C60     13.1527   2.7990  22.0089   C.ar      3 RES3   0.0000
   115 C61     12.7492   3.7095  21.0417   C.ar      3 RES3   0.0000
   116 B2      12.8145   4.7425  18.5433   B         3 RES3  -1.0000
   117 H43     14.0393   4.3627  16.0187   H         3 RES3   0.0000
   118 H44     13.5373   2.9996  14.2099   H         3 RES3   0.0000
   119 H45     11.6126   1.6826  14.2169   H         3 RES3   0.0000
   120 H46     10.2539   1.6613  16.1252   H         3 RES3   0.0000
   121 H47     10.7921   2.9676  17.9566   H         3 RES3   0.0000
   122 H48     13.0690   7.2398  17.3822   H         3 RES3   0.0000
   123 H49     14.8516   8.6012  16.7991   H         3 RES3   0.0000
   124 H50     17.0389   7.9622  17.3246   H         3 RES3   0.0000
   125 H51     17.3967   5.9441  18.4333   H         3 RES3   0.0000
   126 H52     15.6102   4.5881  19.0182   H         3 RES3   0.0000
   127 H53     10.0888   5.1667  17.7175   H         3 RES3   0.0000
   128 H54      8.4286   6.5831  18.4874   H         3 RES3   0.0000
   129 H55      8.8553   8.0563  20.2490   H         3 RES3   0.0000
   130 H56     10.9949   8.0971  21.2110   H         3 RES3   0.0000
   131 H57     12.6363   6.6541  20.4533   H         3 RES3   0.0000
   132 H58     14.3033   2.4298  18.5241   H         3 RES3   0.0000
   133 H59     15.0051   0.9247  20.1320   H         3 RES3   0.0000
   134 H60     14.3006   1.1572  22.3511   H         3 RES3   0.0000
   135 H61     12.8385   2.8878  22.8993   H         3 RES3   0.0000
   136 H62     12.1584   4.4089  21.2948   H         3 RES3   0.0000
   137 C62     14.9051   5.5838  23.0006   C.1       4 RES4   0.0000
   138 C63     15.7200   4.4674  23.4283   C.3       4 RES4   0.0000
   139 N6      14.2641   6.4393  22.6793   N.1       4 RES4   0.0000
   140 H63     15.3335   4.0734  24.2384   H         4 RES4   0.0000
   141 H64     16.6292   4.7798  23.6169   H         4 RES4   0.0000
   142 H65     15.7472   3.7930  22.7177   H         4 RES4   0.0000
@<TRIPOS>BOND
     1     1     3    1
     2     2     3    1
     3     3     4    1
     4     4     5    1
     5     5    27    1
     6     6     7    1
     7     7    15    1
     8     8     9    2
     9     9    17    1
    10    10    11    1
    11    11    16    1
    12    12    13    1
    13    13    40    1
    14    14     4    2
    15    15     8    1
    16    16    20    1
    17    17    20    1
    18    18    12    3
    19    19     3    1
    20    20    14    1
    21    21     1    1
    22    22     1    1
    23    23     1    1
    24    24     2    1
    25    25     2    1
    26    26     2    1
    27    28     5    1
    28    29     5    1
    29    30     6    1
    30    31     6    1
    31    32     7    1
    32    33     7    1
    33    34     8    1
    34    35     9    1
    35    36    10    1
    36    37    10    1
    37    38    11    1
    38    39    11    1
    39    41    13    1
    40    42    13    1
    41    43    16    1
    42    44    16    1
    43    45    17    1
    44    46    17    1
    45     6    14    1
    46    10    15    1
    47    15    20    1
    48    18    20    1
    49    19    20    1
    50    47    48   ar
    51    48    49   ar
    52    49    50   ar
    53    50    51   ar
    54    51    52   ar
    55    52    47   ar
    56    53    54   ar
    57    54    55   ar
    58    55    56   ar
    59    56    57   ar
    60    57    58   ar
    61    58    53   ar
    62    59    60   ar
    63    60    61   ar
    64    61    62   ar
    65    62    63   ar
    66    63    64   ar
    67    64    59   ar
    68    65    66   ar
    69    66    67   ar
    70    67    68   ar
    71    68    69   ar
    72    69    70   ar
    73    70    65   ar
    74    71    47    1
    75    72    48    1
    76    73    49    1
    77    74    50    1
    78    75    51    1
    79    76    52    1
    80    77    54    1
    81    78    55    1
    82    79    56    1
    83    80    57    1
    84    81    58    1
    85    82    60    1
    86    83    61    1
    87    84    62    1
    88    85    63    1
    89    86    64    1
    90    87    66    1
    91    88    67    1
    92    89    68    1
    93    90    69    1
    94    91    70    1
    95    53    71    1
    96    59    71    1
    97    65    71    1
    98    92    93   ar
    99    93    94   ar
   100    94    95   ar
   101    95    96   ar
   102    96    97   ar
   103    97    92   ar
   104    98    99   ar
   105    99   100   ar
   106   100   101   ar
   107   101   102   ar
   108   102   103   ar
   109   103    98   ar
   110   104   105   ar
   111   105   106   ar
   112   106   107   ar
   113   107   108   ar
   114   108   109   ar
   115   109   104   ar
   116   110   111   ar
   117   111   112   ar
   118   112   113   ar
   119   113   114   ar
   120   114   115   ar
   121   115   110   ar
   122   116    92    1
   123   117    93    1
   124   118    94    1
   125   119    95    1
   126   120    96    1
   127   121    97    1
   128   122    99    1
   129   123   100    1
   130   124   101    1
   131   125   102    1
   132   126   103    1
   133   127   105    1
   134   128   106    1
   135   129   107    1
   136   130   108    1
   137   131   109    1
   138   132   111    1
   139   133   112    1
   140   134   113    1
   141   135   114    1
   142   136   115    1
   143    98   116    1
   144   104   116    1
   145   110   116    1
   146   137   138    1
   147   138   140    1
   148   139   137    3
   149   141   138    1
   150   142   138    1
@<TRIPOS>SUBSTRUCTURE
     1 RES1        1 GROUP             0 ****  ****    0  
     2 RES2       47 GROUP             0 ****  ****    0  
     3 RES3       92 GROUP             0 ****  ****    0  
     4 RES4      137 GROUP             0 ****  ****    0  
@<TRIPOS>CRYSIN
   17.4180   17.7490   17.9930   90.0000  103.9930   90.0000    14     1
