@<TRIPOS>MOLECULE
CAKDOJ
    85    90     1     0     0
SMALL
NO_CHARGES
****
Generated from the CSD

@<TRIPOS>ATOM
     1 Fe1      5.6187   7.2547   7.1593   Fe        1 RES1   0.0000
     2 O1       4.7905   8.2629   8.5107   O.3       1 RES1   0.0000
     3 O2       5.9315   6.0904   5.2983   O.3       1 RES1   0.0000
     4 O3       6.3610   5.8203   8.1559   O.3       1 RES1   0.0000
     5 O4       4.8833   8.6018   5.7670   O.2       1 RES1   0.0000
     6 O5       7.3546   8.2049   6.9522   O.2       1 RES1   0.0000
     7 N1       3.7526   6.1115   6.9114   N.3       1 RES1   0.0000
     8 C1       3.5405   8.4211   8.9466   C.ar      1 RES1   0.0000
     9 C2       3.2973   9.1829  10.1257   C.ar      1 RES1   0.0000
    10 C3       4.4516   9.8960  10.8474   C.3       1 RES1   0.0000
    11 C4       5.4538   8.8674  11.3917   C.3       1 RES1   0.0000
    12 H1       5.7923   8.3198  10.6537   H         1 RES1   0.0000
    13 H2       5.0081   8.2917  12.0480   H         1 RES1   0.0000
    14 H3       6.2010   9.3355  11.8215   H         1 RES1   0.0000
    15 C5       5.1608  10.8672   9.8894   C.3       1 RES1   0.0000
    16 H4       5.8943  11.3130  10.3610   H         1 RES1   0.0000
    17 H5       4.5208  11.5377   9.5717   H         1 RES1   0.0000
    18 H6       5.5183  10.3699   9.1257   H         1 RES1   0.0000
    19 C6       3.9474  10.7153  12.0454   C.3       1 RES1   0.0000
    20 H7       4.7071  11.1515  12.4856   H         1 RES1   0.0000
    21 H8       3.4983  10.1218  12.6812   H         1 RES1   0.0000
    22 H9       3.3165  11.3973  11.7329   H         1 RES1   0.0000
    23 C7       1.9827   9.2514  10.5919   C.ar      1 RES1   0.0000
    24 H10      1.8089   9.7591  11.3755   H         1 RES1   0.0000
    25 C8       0.9111   8.6130   9.9662   C.ar      1 RES1   0.0000
    26 C9      -0.4964   8.7132  10.5191   C.3       1 RES1   0.0000
    27 H11     -0.4571   8.8721  11.4852   H         1 RES1   0.0000
    28 H12     -0.9763   7.8774  10.3442   H         1 RES1   0.0000
    29 H13     -0.9657   9.4548  10.0853   H         1 RES1   0.0000
    30 C10      1.1729   7.8938   8.8135   C.ar      1 RES1   0.0000
    31 H14      0.4589   7.4445   8.3758   H         1 RES1   0.0000
    32 C11      2.4552   7.8103   8.2786   C.ar      1 RES1   0.0000
    33 C12      2.6219   7.0970   6.9537   C.3       1 RES1   0.0000
    34 H15      1.7799   6.6207   6.7437   H         1 RES1   0.0000
    35 H16      2.7666   7.7745   6.2470   H         1 RES1   0.0000
    36 C13      3.7282   5.3427   5.6371   C.3       1 RES1   0.0000
    37 H17      2.8093   5.3499   5.2692   H         1 RES1   0.0000
    38 H18      3.9752   4.4021   5.8193   H         1 RES1   0.0000
    39 C14      4.6747   5.9146   4.6182   C.3       1 RES1   0.0000
    40 H19      4.7773   5.2938   3.8537   H         1 RES1   0.0000
    41 H20      4.3384   6.7822   4.2801   H         1 RES1   0.0000
    42 C15      6.9863   6.4983   4.4046   C.3       1 RES1   0.0000
    43 H21      7.0507   5.8601   3.6638   H         1 RES1   0.0000
    44 H22      7.8365   6.5201   4.8921   H         1 RES1   0.0000
    45 H23      6.7884   7.3907   4.0507   H         1 RES1   0.0000
    46 C16      3.6153   5.1742   8.0653   C.3       1 RES1   0.0000
    47 H24      2.7390   4.7180   7.9973   H         1 RES1   0.0000
    48 H25      3.6120   5.7033   8.9020   H         1 RES1   0.0000
    49 C17      4.6905   4.1302   8.1643   C.ar      1 RES1   0.0000
    50 C18      4.3382   2.7873   8.2801   C.ar      1 RES1   0.0000
    51 H26      3.4248   2.5369   8.1999   H         1 RES1   0.0000
    52 C19      5.2921   1.8081   8.5102   C.ar      1 RES1   0.0000
    53 C20      4.9188   0.3492   8.6137   C.3       1 RES1   0.0000
    54 H27      3.9526   0.2481   8.4841   H         1 RES1   0.0000
    55 H28      5.1660   0.0117   9.5000   H         1 RES1   0.0000
    56 H29      5.3960  -0.1591   7.9241   H         1 RES1   0.0000
    57 C21      6.6230   2.2179   8.6272   C.ar      1 RES1   0.0000
    58 H30      7.2822   1.5563   8.7979   H         1 RES1   0.0000
    59 C22      7.0378   3.5434   8.5080   C.ar      1 RES1   0.0000
    60 C23      8.5109   3.9453   8.6644   C.3       1 RES1   0.0000
    61 C24      9.4200   2.7309   8.9020   C.3       1 RES1   0.0000
    62 H31      9.1323   2.2607   9.7124   H         1 RES1   0.0000
    63 H32     10.3459   3.0330   9.0103   H         1 RES1   0.0000
    64 H33      9.3607   2.1250   8.1352   H         1 RES1   0.0000
    65 C25      8.9964   4.6406   7.3837   C.3       1 RES1   0.0000
    66 H34      8.8341   4.0581   6.6128   H         1 RES1   0.0000
    67 H35      9.9557   4.8257   7.4570   H         1 RES1   0.0000
    68 H36      8.5084   5.4833   7.2643   H         1 RES1   0.0000
    69 C26      8.6645   4.8847   9.8706   C.3       1 RES1   0.0000
    70 H37      8.0742   5.6588   9.7589   H         1 RES1   0.0000
    71 H38      9.5944   5.1884   9.9305   H         1 RES1   0.0000
    72 H39      8.4239   4.4044  10.6903   H         1 RES1   0.0000
    73 C27      6.0410   4.5250   8.2556   C.ar      1 RES1   0.0000
    74 C28      4.4465  10.6568   4.7134   C.3       1 RES1   0.0000
    75 H40      4.2040  10.2458   3.8565   H         1 RES1   0.0000
    76 H41      4.9064  11.5073   4.5488   H         1 RES1   0.0000
    77 H42      3.6367  10.8192   5.2396   H         1 RES1   0.0000
    78 C29      5.3611   9.7310   5.4715   C.2       1 RES1   0.0000
    79 C30      6.6684  10.1344   5.7646   C.2       1 RES1   0.0000
    80 H43      6.9359  11.0041   5.4901   H         1 RES1   0.0000
    81 C31      7.5988   9.3488   6.4298   C.2       1 RES1   0.0000
    82 C32      9.0153   9.8337   6.5481   C.3       1 RES1   0.0000
    83 H44      9.2612   9.8971   7.4950   H         1 RES1   0.0000
    84 H45      9.0944  10.7162   6.1302   H         1 RES1   0.0000
    85 H46      9.6148   9.2044   6.0965   H         1 RES1   0.0000
@<TRIPOS>BOND
     1     1     2    1
     2     2     8    1
     3     3     1    1
     4     4     1    1
     5     5     1    1
     6     6     1    1
     7     7     1    1
     8     8     9   ar
     9     9    10    1
    10    10    11    1
    11    11    12    1
    12    13    11    1
    13    14    11    1
    14    15    10    1
    15    16    15    1
    16    17    15    1
    17    18    15    1
    18    19    10    1
    19    20    19    1
    20    21    19    1
    21    22    19    1
    22    23     9   ar
    23    24    23    1
    24    25    23   ar
    25    26    25    1
    26    27    26    1
    27    28    26    1
    28    29    26    1
    29    30    25   ar
    30    31    30    1
    31    32     8   ar
    32    33     7    1
    33    34    33    1
    34    35    33    1
    35    36     7    1
    36    37    36    1
    37    38    36    1
    38    39     3    1
    39    40    39    1
    40    41    39    1
    41    42     3    1
    42    43    42    1
    43    44    42    1
    44    45    42    1
    45    46     7    1
    46    47    46    1
    47    48    46    1
    48    49    46    1
    49    50    49   ar
    50    51    50    1
    51    52    50   ar
    52    53    52    1
    53    54    53    1
    54    55    53    1
    55    56    53    1
    56    57    52   ar
    57    58    57    1
    58    59    57   ar
    59    60    59    1
    60    61    60    1
    61    62    61    1
    62    63    61    1
    63    64    61    1
    64    65    60    1
    65    66    65    1
    66    67    65    1
    67    68    65    1
    68    69    60    1
    69    70    69    1
    70    71    69    1
    71    72    69    1
    72    73     4    1
    73    74    75    1
    74    76    74    1
    75    77    74    1
    76    78     5   un
    77    79    78   un
    78    80    79    1
    79    81     6   un
    80    82    81    1
    81    83    82    1
    82    84    82    1
    83    85    82    1
    84    30    32   ar
    85    32    33    1
    86    36    39    1
    87    49    73   ar
    88    59    73   ar
    89    74    78    1
    90    79    81   un
@<TRIPOS>SUBSTRUCTURE
     1 RES1        1 GROUP             0 ****  ****    0  
@<TRIPOS>CRYSIN
    9.5103   23.4030   14.5291   90.0000  104.4440   90.0000    14     1
