@<TRIPOS>MOLECULE
CALGAX
    53    65     1     0     0
SMALL
NO_CHARGES
****
Generated from the CSD

@<TRIPOS>ATOM
     1 O1       1.3984   5.3273   7.4855   O.3       1 RES1   0.0000
     2 O2       2.3695   3.9606   6.5700   O.3       1 RES1   0.0000
     3 N1       1.2678   4.3161   6.8989   N.pl3     1 RES1   0.0000
     4 O3       0.2421   3.7739   6.6475   O.2       1 RES1   0.0000
     5 Fe1      3.7137   5.2722   7.3106   Fe        1 RES1   0.0000
     6 N2       3.6616   5.8533   9.2830   N.2       1 RES1   0.0000
     7 N3       4.9055   3.6912   7.9716   N.2       1 RES1   0.0000
     8 N4       4.7388   5.1244   5.5141   N.2       1 RES1   0.0000
     9 N5       3.4301   7.2687   6.8277   N.2       1 RES1   0.0000
    10 C1       3.0631   7.0122   9.7858   C.2       1 RES1   0.0000
    11 C2       3.8780   5.0725  10.3913   C.2       1 RES1   0.0000
    12 C3       4.9919   3.1880   9.2600   C.2       1 RES1   0.0000
    13 C4       5.5406   2.7643   7.1650   C.2       1 RES1   0.0000
    14 C5       5.3619   3.9736   5.0197   C.2       1 RES1   0.0000
    15 C6       4.5963   5.9669   4.4079   C.2       1 RES1   0.0000
    16 C7       3.5109   7.8352   5.5790   C.2       1 RES1   0.0000
    17 C8       2.9173   8.2556   7.6384   C.2       1 RES1   0.0000
    18 C9       2.9048   6.9132  11.2000   C.2       1 RES1   0.0000
    19 C10      3.4091   5.7413  11.5980   C.2       1 RES1   0.0000
    20 C11      5.6756   1.9219   9.2432   C.2       1 RES1   0.0000
    21 C12      6.0197   1.6638   7.9778   C.2       1 RES1   0.0000
    22 C13      5.5693   4.0970   3.6307   C.2       1 RES1   0.0000
    23 C14      5.1082   5.3062   3.2389   C.2       1 RES1   0.0000
    24 C15      3.0317   9.2165   5.6042   C.2       1 RES1   0.0000
    25 C16      2.6833   9.4519   6.8989   C.2       1 RES1   0.0000
    26 C17      4.5132   3.8145  10.4039   C.2       1 RES1   0.0000
    27 C18      5.7456   2.8763   5.8074   C.2       1 RES1   0.0000
    28 C19      4.0504   7.2378   4.4184   C.2       1 RES1   0.0000
    29 C20      2.7018   8.1339   9.0170   C.2       1 RES1   0.0000
    30 C21      4.7390   3.1977  11.7342   C.ar      1 RES1   0.0000
    31 C22      6.0042   3.3422  12.3460   C.ar      1 RES1   0.0000
    32 C23      6.1973   2.8779  13.6532   C.ar      1 RES1   0.0000
    33 C24      5.1418   2.2676  14.3425   C.ar      1 RES1   0.0000
    34 C25      3.9034   2.1102  13.7329   C.ar      1 RES1   0.0000
    35 C26      3.6783   2.5793  12.4339   C.ar      1 RES1   0.0000
    36 C27      6.4990   1.7807   5.1098   C.ar      1 RES1   0.0000
    37 C28      5.8754   0.6541   4.6069   C.ar      1 RES1   0.0000
    38 C29      6.6300  -0.3539   3.9952   C.ar      1 RES1   0.0000
    39 C30      7.9642  -0.2483   3.8884   C.ar      1 RES1   0.0000
    40 C31      8.6080   0.8911   4.3178   C.ar      1 RES1   0.0000
    41 C32      7.8900   1.9235   4.9631   C.ar      1 RES1   0.0000
    42 C33      4.0880   8.0478   3.1781   C.ar      1 RES1   0.0000
    43 C34      2.9459   8.3952   2.4784   C.ar      1 RES1   0.0000
    44 C35      3.0165   9.1613   1.3345   C.ar      1 RES1   0.0000
    45 C36      4.2294   9.6207   0.8715   C.ar      1 RES1   0.0000
    46 C37      5.4138   9.2668   1.5482   C.ar      1 RES1   0.0000
    47 C38      5.3495   8.4975   2.6774   C.ar      1 RES1   0.0000
    48 C39      2.0797   9.2717   9.7523   C.ar      1 RES1   0.0000
    49 C40      2.8618   9.9940  10.7035   C.ar      1 RES1   0.0000
    50 C41      2.2487  11.0361  11.4681   C.ar      1 RES1   0.0000
    51 C42      0.9553  11.3673  11.2628   C.ar      1 RES1   0.0000
    52 C43      0.1745  10.6596  10.2740   C.ar      1 RES1   0.0000
    53 C44      0.7667   9.6369   9.5554   C.ar      1 RES1   0.0000
@<TRIPOS>BOND
     1     1     3    1
     2     2     3    1
     3     3     4    2
     4     5     1    1
     5     6     5    1
     6     7     5    1
     7     8     5    1
     8     9     5    1
     9    10     6    1
    10    11     6    1
    11    12     7    2
    12    13     7    1
    13    14     8    1
    14    15     8    1
    15    16     9    1
    16    17     9    2
    17    18    10    1
    18    19    11    1
    19    20    12    1
    20    21    13    1
    21    22    14    2
    22    23    15    2
    23    24    16    1
    24    25    17    1
    25    26    11    2
    26    27    13    2
    27    28    15    1
    28    29    10    2
    29    30    26    1
    30    31    30   ar
    31    32    31   ar
    32    33    32   ar
    33    34    33   ar
    34    35    30   ar
    35    36    27    1
    36    37    36   ar
    37    38    37   ar
    38    39    38   ar
    39    40    39   ar
    40    41    36   ar
    41    42    28    1
    42    43    42   ar
    43    44    43   ar
    44    45    44   ar
    45    46    45   ar
    46    47    42   ar
    47    48    29    1
    48    49    48   ar
    49    50    49   ar
    50    51    50   ar
    51    52    51   ar
    52    53    48   ar
    53     2     5    1
    54    12    26    1
    55    14    27    1
    56    16    28    2
    57    17    29    1
    58    18    19    2
    59    20    21    2
    60    22    23    1
    61    24    25    2
    62    34    35   ar
    63    40    41   ar
    64    46    47   ar
    65    52    53   ar
@<TRIPOS>SUBSTRUCTURE
     1 RES1        1 GROUP             0 ****  ****    0  
@<TRIPOS>CRYSIN
   10.2790   16.2320   20.9510   90.0000   90.5000   90.0000   231     1
