@<TRIPOS>MOLECULE
CALVUK
    77    84     2     0     0
SMALL
USER_CHARGES
****
Generated from the CSD

@<TRIPOS>ATOM
     1 Fe1      8.6329   9.0720   6.5599   Fe        1 RES1   1.0000
     2 N1       7.1751   9.8490   7.5780   N.ar      1 RES1   0.0000
     3 N2       7.2605   7.7808   6.2393   N.2       1 RES1   0.0000
     4 N3       9.9978  10.4469   6.9422   N.ar      1 RES1   0.0000
     5 N4       9.8995   8.2986   5.2513   N.ar      1 RES1   0.0000
     6 N5       6.0385   8.0469   6.5610   N.2       1 RES1   0.0000
     7 N6       8.0307   9.9349   4.8792   N.2       1 RES1   0.0000
     8 N7       8.5348   9.4629   3.7387   N.2       1 RES1   0.0000
     9 N8       9.5095   8.3272   8.0751   N.2       1 RES1   0.0000
    10 N9      10.6017   8.8407   8.5340   N.2       1 RES1   0.0000
    11 C1       9.5927   8.6633   3.9567   C.ar      1 RES1   0.0000
    12 C2       6.7917  10.6228   4.6779   C.ar      1 RES1   0.0000
    13 C3       7.3662   6.5694   5.4739   C.ar      1 RES1   0.0000
    14 C4      10.8843  10.0479   7.8906   C.ar      1 RES1   0.0000
    15 C5       5.9929   9.2312   7.3234   C.ar      1 RES1   0.0000
    16 C6       6.4140   6.2661   4.4950   C.ar      1 RES1   0.0000
    17 H1       5.7016   6.8708   4.3229   H         1 RES1   0.0000
    18 C7       6.5271  11.7985   5.3946   C.ar      1 RES1   0.0000
    19 H2       7.1710  12.1465   5.9996   H         1 RES1   0.0000
    20 C8       5.8463  10.1308   3.7799   C.ar      1 RES1   0.0000
    21 H3       6.0178   9.3354   3.2910   H         1 RES1   0.0000
    22 C9       4.6473  10.8159   3.6060   C.ar      1 RES1   0.0000
    23 H4       4.0021  10.4844   2.9933   H         1 RES1   0.0000
    24 C10      7.1369  10.9375   8.3541   C.ar      1 RES1   0.0000
    25 H5       7.9517  11.3824   8.5563   H         1 RES1   0.0000
    26 C11     11.8207   7.1358   4.4675   C.ar      1 RES1   0.0000
    27 H6      12.5850   6.6062   4.6618   H         1 RES1   0.0000
    28 C12     11.0180   7.5863   5.4601   C.ar      1 RES1   0.0000
    29 H7      11.2588   7.3853   6.3575   H         1 RES1   0.0000
    30 C13     10.2042  11.6298   6.3293   C.ar      1 RES1   0.0000
    31 H8       9.5997  11.9224   5.6575   H         1 RES1   0.0000
    32 C14      9.1551   7.1186   8.7536   C.ar      1 RES1   0.0000
    33 C15      8.4031   5.6840   5.7163   C.ar      1 RES1   0.0000
    34 H9       9.0619   5.8888   6.3687   H         1 RES1   0.0000
    35 C16     11.3052  12.4379   6.6769   C.ar      1 RES1   0.0000
    36 H10     11.4425  13.2707   6.2396   H         1 RES1   0.0000
    37 C17      7.5487   5.7684   9.9231   C.ar      1 RES1   0.0000
    38 H11      6.6925   5.6802  10.3254   H         1 RES1   0.0000
    39 C18      5.3177  12.4465   5.2116   C.ar      1 RES1   0.0000
    40 H12      5.1286  13.2303   5.7134   H         1 RES1   0.0000
    41 C19     10.3960   8.2056   2.8879   C.ar      1 RES1   0.0000
    42 H13     10.1615   8.4115   1.9903   H         1 RES1   0.0000
    43 C20      5.9589  11.4424   8.8725   C.ar      1 RES1   0.0000
    44 H14      5.9739  12.2171   9.4225   H         1 RES1   0.0000
    45 C21      4.7735  10.8274   8.5905   C.ar      1 RES1   0.0000
    46 H15      3.9592  11.1760   8.9337   H         1 RES1   0.0000
    47 C22      4.3842  11.9773   4.3181   C.ar      1 RES1   0.0000
    48 H16      3.5662  12.4429   4.1898   H         1 RES1   0.0000
    49 C23      7.5457   4.1936   4.0528   C.ar      1 RES1   0.0000
    50 H17      7.6050   3.3743   3.5757   H         1 RES1   0.0000
    51 C24     11.4985   7.4719   3.1517   C.ar      1 RES1   0.0000
    52 H18     12.0571   7.1822   2.4391   H         1 RES1   0.0000
    53 C25     11.9733  10.7973   8.2901   C.ar      1 RES1   0.0000
    54 H19     12.5548  10.4905   8.9757   H         1 RES1   0.0000
    55 C26      7.8914   6.9441   9.2858   C.ar      1 RES1   0.0000
    56 H20      7.2518   7.6428   9.2122   H         1 RES1   0.0000
    57 C27      6.5081   5.0904   3.7799   C.ar      1 RES1   0.0000
    58 H21      5.8713   4.8898   3.1045   H         1 RES1   0.0000
    59 C28      8.4746   4.4983   5.0027   C.ar      1 RES1   0.0000
    60 H22      9.1810   3.8886   5.1796   H         1 RES1   0.0000
    61 C29     12.1880  12.0117   7.6604   C.ar      1 RES1   0.0000
    62 H23     12.9346  12.5497   7.8985   H         1 RES1   0.0000
    63 C30      4.7658   9.6760   7.7915   C.ar      1 RES1   0.0000
    64 H24      3.9589   9.2209   7.5800   H         1 RES1   0.0000
    65 C31     10.1046   6.0816   8.8664   C.ar      1 RES1   0.0000
    66 H25     10.9924   6.1966   8.5475   H         1 RES1   0.0000
    67 C32      8.4442   4.7257   9.9780   C.ar      1 RES1   0.0000
    68 H26      8.1905   3.8995  10.3716   H         1 RES1   0.0000
    69 C33      9.7089   4.8859   9.4565   C.ar      1 RES1   0.0000
    70 H27     10.3249   4.1632   9.5023   H         1 RES1   0.0000
    71 P1       8.6012   0.3882   8.8642   P.3       2 RES2  -1.0000
    72 F1       8.6990   1.2730  10.1991   F         2 RES2   0.0000
    73 F2       8.5001  -0.5063   7.5506   F         2 RES2   0.0000
    74 F3       8.9113  -0.9125   9.6563   F         2 RES2   0.0000
    75 F4       7.1016   0.1373   9.1165   F         2 RES2   0.0000
    76 F5      10.0926   0.5621   8.6438   F         2 RES2   0.0000
    77 F6       8.2893   1.6320   8.0888   F         2 RES2   0.0000
@<TRIPOS>BOND
     1     1     2    1
     2     2    15   ar
     3     3     1    1
     4     4     1    1
     5     5     1    1
     6     6     3    2
     7     7     1    1
     8     8     7    2
     9     9     1    1
    10    10     9    2
    11    11     5   ar
    12    12     7    1
    13    13     3    1
    14    14     4   ar
    15    15     6    1
    16    16    13   ar
    17    17    16    1
    18    18    12   ar
    19    19    18    1
    20    20    12   ar
    21    21    20    1
    22    22    20   ar
    23    23    22    1
    24    24     2   ar
    25    25    24    1
    26    26    27    1
    27    28     5   ar
    28    29    28    1
    29    30     4   ar
    30    31    30    1
    31    32     9    1
    32    33    13   ar
    33    34    33    1
    34    35    30   ar
    35    36    35    1
    36    37    38    1
    37    39    18   ar
    38    40    39    1
    39    41    11   ar
    40    42    41    1
    41    43    24   ar
    42    44    43    1
    43    45    43   ar
    44    46    45    1
    45    47    22   ar
    46    48    47    1
    47    49    50    1
    48    51    26   ar
    49    52    51    1
    50    53    14   ar
    51    54    53    1
    52    55    32   ar
    53    56    55    1
    54    57    16   ar
    55    58    57    1
    56    59    33   ar
    57    60    59    1
    58    61    35   ar
    59    62    61    1
    60    63    15   ar
    61    64    63    1
    62    65    32   ar
    63    66    65    1
    64    67    37   ar
    65    68    67    1
    66    69    65   ar
    67    70    69    1
    68     8    11    1
    69    10    14    1
    70    26    28   ar
    71    37    55   ar
    72    39    47   ar
    73    41    51   ar
    74    45    63   ar
    75    49    57   ar
    76    49    59   ar
    77    53    61   ar
    78    67    69   ar
    79    71    72    1
    80    73    71    1
    81    74    71    1
    82    75    71    1
    83    76    71    1
    84    77    71    1
@<TRIPOS>SUBSTRUCTURE
     1 RES1        1 GROUP             0 ****  ****    0  
     2 RES2       71 GROUP             0 ****  ****    0  
@<TRIPOS>CRYSIN
   14.7730   14.3030   15.9980   90.0000  107.6190   90.0000   231     1
