@<TRIPOS>MOLECULE
CAQFIN
    87    93     2     0     0
SMALL
NO_CHARGES
****
Generated from the CSD

@<TRIPOS>ATOM
     1 Fe1     11.3133   3.7864  13.0493   Fe        1 RES1   0.0000
     2 S1      13.7221   5.4551  14.6375   S.o2      1 RES1   0.0000
     3 O1      11.7589   5.3182  11.6595   O.3       1 RES1   0.0000
     4 O2      12.9142   4.3060  14.2945   O.3       1 RES1   0.0000
     5 N1       9.7020   2.9217  11.8338   N.3       1 RES1   0.0000
     6 N2      10.6463   2.2479  14.4990   N.3       1 RES1   0.0000
     7 N3      10.0813   4.9415  14.6089   N.ar      1 RES1   0.0000
     8 O3      14.9564   5.5402  13.9364   O.2       1 RES1   0.0000
     9 F1      12.2664   8.1985  11.5345   F         1 RES1   0.0000
    10 F2      12.9716   8.1097   9.5530   F         1 RES1   0.0000
    11 N4      12.3880   2.4332  11.5610   N.ar      1 RES1   0.0000
    12 F3      13.9961   7.1343  11.1329   F         1 RES1   0.0000
    13 O4      10.6036   6.4039   9.8807   O.2       1 RES1   0.0000
    14 C1       9.3641   1.5772  12.4759   C.3       1 RES1   0.0000
    15 H1      10.0991   0.9668  12.2612   H         1 RES1   0.0000
    16 C2      10.1174   4.2646  15.7739   C.ar      1 RES1   0.0000
    17 C3      11.6213   2.3245  10.4509   C.ar      1 RES1   0.0000
    18 C4      11.7055   1.2266  14.5502   C.3       1 RES1   0.0000
    19 H2      11.8384   0.8594  13.6732   H         1 RES1   0.0000
    20 H3      11.4448   0.5258  15.1535   H         1 RES1   0.0000
    21 H4      12.5218   1.6259  14.8577   H         1 RES1   0.0000
    22 O5      12.9890   6.6320  14.7680   O.2       1 RES1   0.0000
    23 C5       9.3320   1.7120  13.9895   C.3       1 RES1   0.0000
    24 H5       8.6400   2.3696  14.2104   H         1 RES1   0.0000
    25 C6      14.5276   2.1760  12.6464   C.3       1 RES1   0.0000
    26 H6      15.1857   2.8599  12.4993   H         1 RES1   0.0000
    27 H7      14.9675   1.3356  12.7933   H         1 RES1   0.0000
    28 H8      13.9997   2.4003  13.4157   H         1 RES1   0.0000
    29 C7      10.4540   2.8834  15.7758   C.ar      1 RES1   0.0000
    30 C8       8.5480   3.8573  11.8205   C.3       1 RES1   0.0000
    31 H9       8.2446   4.0029  12.7198   H         1 RES1   0.0000
    32 H10      7.8360   3.4793  11.2998   H         1 RES1   0.0000
    33 H11      8.8187   4.6933  11.4348   H         1 RES1   0.0000
    34 C9      12.7993   7.4298  10.6669   C.3       1 RES1   0.0000
    35 F4      13.1840   4.8863  17.0677   F         1 RES1   0.0000
    36 C10     13.6742   2.0749  11.4909   C.ar      1 RES1   0.0000
    37 C11      8.0846   0.9555  11.8963   C.3       1 RES1   0.0000
    38 H12      7.3405   1.5643  12.0288   H         1 RES1   0.0000
    39 H13      8.1949   0.8192  10.9427   H         1 RES1   0.0000
    40 C12      7.7760  -0.3706  12.5650   C.3       1 RES1   0.0000
    41 H14      6.9572  -0.7370  12.1956   H         1 RES1   0.0000
    42 H15      8.4941  -0.9980  12.3861   H         1 RES1   0.0000
    43 C13      7.6238  -0.1899  14.0387   C.3       1 RES1   0.0000
    44 H16      7.4208  -1.0434  14.4520   H         1 RES1   0.0000
    45 H17      6.8880   0.4158  14.2183   H         1 RES1   0.0000
    46 C14     10.5488   2.2066  16.9995   C.ar      1 RES1   0.0000
    47 H18     10.7733   1.3040  17.0129   H         1 RES1   0.0000
    48 F5      14.9911   6.0455  16.7950   F         1 RES1   0.0000
    49 C15     10.2389   2.6706  10.5039   C.ar      1 RES1   0.0000
    50 C16      9.7287   6.2293  14.5919   C.ar      1 RES1   0.0000
    51 C17     13.5433   1.5144   9.2404   C.ar      1 RES1   0.0000
    52 H19     13.9525   1.2171   8.4595   H         1 RES1   0.0000
    53 F6      14.8843   3.8834  16.3403   F         1 RES1   0.0000
    54 C18      8.9300   0.3844  14.6430   C.3       1 RES1   0.0000
    55 H20      8.8065   0.5221  15.5958   H         1 RES1   0.0000
    56 H21      9.6459  -0.2598  14.5260   H         1 RES1   0.0000
    57 C19      9.6646   6.9796  13.3757   C.3       1 RES1   0.0000
    58 H22      9.8223   6.3965  12.6301   H         1 RES1   0.0000
    59 H23     10.3319   7.6697  13.3896   H         1 RES1   0.0000
    60 H24      8.7947   7.3784  13.2914   H         1 RES1   0.0000
    61 C20      9.8703   4.8756  17.0488   C.ar      1 RES1   0.0000
    62 C21     14.2365   1.5895  10.3183   C.ar      1 RES1   0.0000
    63 H25     15.1252   1.3142  10.3134   H         1 RES1   0.0000
    64 C22      9.5311   6.2844  16.9711   C.ar      1 RES1   0.0000
    65 H26      9.3583   6.7576  17.7539   H         1 RES1   0.0000
    66 C23      9.4643   6.9015  15.8194   C.ar      1 RES1   0.0000
    67 H27      9.2377   7.8029  15.8023   H         1 RES1   0.0000
    68 C24      9.4603   2.6981   9.3749   C.ar      1 RES1   0.0000
    69 H28      8.5701   2.9672   9.4039   H         1 RES1   0.0000
    70 C25     10.0827   2.2923   8.1512   C.ar      1 RES1   0.0000
    71 H29      9.5653   2.2777   7.3781   H         1 RES1   0.0000
    72 C26     11.3088   1.9509   8.0641   C.ar      1 RES1   0.0000
    73 H30     11.6627   1.7438   7.2299   H         1 RES1   0.0000
    74 C27     12.1449   1.8789   9.2063   C.ar      1 RES1   0.0000
    75 C28     14.2084   5.0088  16.3214   C.3       1 RES1   0.0000
    76 C29     10.3111   2.8666  18.1797   C.ar      1 RES1   0.0000
    77 H31     10.3734   2.3929  18.9783   H         1 RES1   0.0000
    78 C30     10.0025   4.1222  18.2271   C.ar      1 RES1   0.0000
    79 H32      9.8670   4.5317  19.0505   H         1 RES1   0.0000
    80 S2      11.8524   5.9074  10.3380   S.o2      1 RES1   0.0000
    81 O6      12.6404   5.1849   9.4375   O.2       1 RES1   0.0000
    82 C31     11.5799   4.2769   4.9366   C.3       2 RES2   0.0000
    83 H33     11.9550   4.8045   5.6461   H         2 RES2   0.0000
    84 H34     11.5636   3.3540   5.1982   H         2 RES2   0.0000
    85 H35     10.6847   4.5747   4.7566   H         2 RES2   0.0000
    86 N5      12.8220   4.7776   2.4001   N.1       2 RES2   0.0000
    87 C32     12.4481   4.4392   3.6503   C.1       2 RES2   0.0000
@<TRIPOS>BOND
     1     1     3    1
     2     2     4    1
     3     3    80    1
     4     4     1    1
     5     5     1    1
     6     6     1    1
     7     7     1    1
     8     8     2    2
     9     9    34    1
    10    10    34    1
    11    11     1    1
    12    12    34    1
    13    13    80    2
    14    14     5    1
    15    15    14    1
    16    16     7   ar
    17    17    11   ar
    18    18     6    1
    19    19    18    1
    20    20    18    1
    21    21    18    1
    22    22     2    2
    23    23     6    1
    24    24    23    1
    25    25    26    1
    26    27    25    1
    27    28    25    1
    28    29     6    1
    29    30     5    1
    30    31    30    1
    31    32    30    1
    32    33    30    1
    33    34    80    1
    34    35    75    1
    35    36    11   ar
    36    37    14    1
    37    38    37    1
    38    39    37    1
    39    40    37    1
    40    41    40    1
    41    42    40    1
    42    43    40    1
    43    44    43    1
    44    45    43    1
    45    46    29   ar
    46    47    46    1
    47    48    75    1
    48    49     5    1
    49    50     7   ar
    50    51    52    1
    51    53    75    1
    52    54    23    1
    53    55    54    1
    54    56    54    1
    55    57    50    1
    56    58    57    1
    57    59    57    1
    58    60    57    1
    59    61    16   ar
    60    62    36   ar
    61    63    62    1
    62    64    61   ar
    63    65    64    1
    64    66    50   ar
    65    67    66    1
    66    68    49   ar
    67    69    68    1
    68    70    68   ar
    69    71    70    1
    70    72    70   ar
    71    73    72    1
    72    74    17   ar
    73    75     2    1
    74    76    46   ar
    75    77    76    1
    76    78    61   ar
    77    79    78    1
    78    80    81    2
    79    14    23    1
    80    16    29   ar
    81    17    49   ar
    82    25    36    1
    83    43    54    1
    84    51    62   ar
    85    51    74   ar
    86    64    66   ar
    87    72    74   ar
    88    76    78   ar
    89    82    83    1
    90    84    82    1
    91    85    82    1
    92    86    87    3
    93    87    82    1
@<TRIPOS>SUBSTRUCTURE
     1 RES1        1 GROUP             0 ****  ****    0  
     2 RES2       82 GROUP             0 ****  ****    0  
@<TRIPOS>CRYSIN
   13.3563   15.3129   18.9431   90.0000   90.0000   90.0000    19     1
