@<TRIPOS>MOLECULE
CASCEH
    96   109     2     0     0
SMALL
USER_CHARGES
****
Generated from the CSD

@<TRIPOS>ATOM
     1 Fe1      6.8134   2.5049   9.6892   Fe        1 RES1   2.0000
     2 N1       6.6655   0.6343   9.2920   N.2       1 RES1   0.0000
     3 O1       7.7289  -0.2264   9.3911   O.3       1 RES1   0.0000
     4 N2       7.5581   1.9385  11.3822   N.2       1 RES1   0.0000
     5 O2       8.3812   0.8440  11.4891   O.3       1 RES1   0.0000
     6 N3       8.5906   2.3935   9.0268   N.2       1 RES1   0.0000
     7 O3       9.5120   1.4540   9.4109   O.3       1 RES1   0.0000
     8 N4       4.9061   2.2920   9.5255   N.2       1 RES1   0.0000
     9 O4       4.0473   3.3531   9.4409   O.3       1 RES1   0.0000
    10 N5       6.4122   3.9970  10.8286   N.2       1 RES1   0.0000
    11 O5       5.5530   4.9958  10.4597   O.3       1 RES1   0.0000
    12 N6       6.6930   3.7434   8.2491   N.2       1 RES1   0.0000
    13 O6       5.6437   4.5985   8.0505   O.3       1 RES1   0.0000
    14 B1       8.8609   0.3551  10.1616   B         1 RES1  -1.0000
    15 F1       9.7742  -0.6208  10.3869   F         1 RES1   0.0000
    16 B2       4.7600   4.6481   9.2364   B         1 RES1  -1.0000
    17 F2       3.8329   5.6170   9.0520   F         1 RES1   0.0000
    18 C1       5.4718   0.0928   9.2256   C.2       1 RES1   0.0000
    19 C2       5.2109  -1.3629   9.2389   C.ar      1 RES1   0.0000
    20 C3       5.8906  -2.2312   8.3767   C.ar      1 RES1   0.0000
    21 H1       6.5200  -1.8967   7.7791   H         1 RES1   0.0000
    22 C4       5.6254  -3.5919   8.4135   C.ar      1 RES1   0.0000
    23 H2       6.0760  -4.1679   7.8375   H         1 RES1   0.0000
    24 C5       4.6895  -4.0993   9.3032   C.ar      1 RES1   0.0000
    25 H3       4.5252  -5.0140   9.3331   H         1 RES1   0.0000
    26 C6       3.9965  -3.2421  10.1549   C.ar      1 RES1   0.0000
    27 H4       3.3615  -3.5815  10.7430   H         1 RES1   0.0000
    28 C7       4.2575  -1.8788  10.1195   C.ar      1 RES1   0.0000
    29 H5       3.7947  -1.3052  10.6873   H         1 RES1   0.0000
    30 C8       4.4246   1.1086   9.2385   C.2       1 RES1   0.0000
    31 C9       3.0132   0.8066   8.9242   C.ar      1 RES1   0.0000
    32 C10      2.7090  -0.0496   7.8608   C.ar      1 RES1   0.0000
    33 H6       3.3892  -0.3704   7.3132   H         1 RES1   0.0000
    34 C11      1.3917  -0.4222   7.6216   C.ar      1 RES1   0.0000
    35 H7       1.1898  -0.9847   6.9098   H         1 RES1   0.0000
    36 C12      0.3761   0.0425   8.4434   C.ar      1 RES1   0.0000
    37 H8      -0.5011  -0.2285   8.2953   H         1 RES1   0.0000
    38 C13      0.6666   0.9119   9.4825   C.ar      1 RES1   0.0000
    39 H9      -0.0199   1.2395  10.0190   H         1 RES1   0.0000
    40 C14      1.9799   1.2971   9.7290   C.ar      1 RES1   0.0000
    41 H10      2.1710   1.8798  10.4279   H         1 RES1   0.0000
    42 C15      6.7569   3.9542  12.0888   C.2       1 RES1   0.0000
    43 C16      6.2944   4.9335  13.0992   C.ar      1 RES1   0.0000
    44 C17      5.4844   4.5078  14.1429   C.ar      1 RES1   0.0000
    45 H11      5.2717   3.6057  14.2271   H         1 RES1   0.0000
    46 C18      4.9921   5.4268  15.0638   C.ar      1 RES1   0.0000
    47 H12      4.4247   5.1432  15.7444   H         1 RES1   0.0000
    48 C19      5.3400   6.7501  14.9728   C.ar      1 RES1   0.0000
    49 H13      5.0194   7.3598  15.5990   H         1 RES1   0.0000
    50 C20      6.1679   7.1822  13.9487   C.ar      1 RES1   0.0000
    51 H14      6.4166   8.0766  13.8984   H         1 RES1   0.0000
    52 C21      6.6300   6.2786  12.9951   C.ar      1 RES1   0.0000
    53 H15      7.1599   6.5734  12.2915   H         1 RES1   0.0000
    54 C22      7.5639   2.7754  12.3840   C.2       1 RES1   0.0000
    55 C23      8.3818   2.6231  13.6119   C.ar      1 RES1   0.0000
    56 C24      9.1428   3.7016  14.0533   C.ar      1 RES1   0.0000
    57 H16      9.0959   4.5161  13.6077   H         1 RES1   0.0000
    58 C25      9.9789   3.5608  15.1630   C.ar      1 RES1   0.0000
    59 H17     10.4874   4.2834  15.4550   H         1 RES1   0.0000
    60 C26     10.0513   2.3508  15.8327   C.ar      1 RES1   0.0000
    61 H18     10.6186   2.2550  16.5634   H         1 RES1   0.0000
    62 C27      9.2842   1.2912  15.4143   C.ar      1 RES1   0.0000
    63 H19      9.3214   0.4840  15.8748   H         1 RES1   0.0000
    64 C28      8.4466   1.4137  14.3005   C.ar      1 RES1   0.0000
    65 H20      7.9351   0.6895  14.0207   H         1 RES1   0.0000
    66 C29      8.8954   3.1364   7.9821   C.2       1 RES1   0.0000
    67 C30      7.8114   4.0065   7.5839   C.2       1 RES1   0.0000
    68 N7       7.9786   4.9815   6.6667   N.2       1 RES1   0.0000
    69 C31      9.1757   5.0359   6.1066   C.2       1 RES1   0.0000
    70 C32      9.4328   6.0889   5.1203   C.ar      1 RES1   0.0000
    71 C33      8.4056   6.9955   4.7963   C.ar      1 RES1   0.0000
    72 H21      7.5742   6.9194   5.2051   H         1 RES1   0.0000
    73 C34      8.6258   7.9942   3.8726   C.ar      1 RES1   0.0000
    74 H22      7.9482   8.5982   3.6688   H         1 RES1   0.0000
    75 C35      9.8658   8.0996   3.2464   C.ar      1 RES1   0.0000
    76 H23     10.0090   8.7660   2.6134   H         1 RES1   0.0000
    77 C36     10.8870   7.2187   3.5602   C.ar      1 RES1   0.0000
    78 H24     11.7112   7.3019   3.1350   H         1 RES1   0.0000
    79 C37     10.6997   6.1969   4.5134   C.ar      1 RES1   0.0000
    80 C38     11.7802   5.2536   4.8691   C.ar      1 RES1   0.0000
    81 C39     13.0833   5.3967   4.3562   C.ar      1 RES1   0.0000
    82 H25     13.2768   6.1105   3.7924   H         1 RES1   0.0000
    83 C40     14.0769   4.4987   4.6754   C.ar      1 RES1   0.0000
    84 H26     14.9327   4.6145   4.3303   H         1 RES1   0.0000
    85 C41     13.8068   3.4138   5.5162   C.ar      1 RES1   0.0000
    86 H27     14.4716   2.7918   5.7077   H         1 RES1   0.0000
    87 C42     12.5444   3.2718   6.0609   C.ar      1 RES1   0.0000
    88 H28     12.3653   2.5603   6.6341   H         1 RES1   0.0000
    89 C43     11.5328   4.1905   5.7574   C.ar      1 RES1   0.0000
    90 N8      10.0930   3.1382   7.3466   N.2       1 RES1   0.0000
    91 C44     10.2397   4.0799   6.4281   C.2       1 RES1   0.0000
    92 C45      7.8207  -2.0067  12.8389   C.3       2 RES2   0.0000
    93 H29      7.8351  -1.1346  12.3920   H         2 RES2   0.0000
    94 Cl1      6.4539  -2.0337  13.9390   Cl        2 RES2   0.0000
    95 Cl2      9.3160  -2.1738  13.7533   Cl        2 RES2   0.0000
    96 Cl3      7.6636  -3.2367  11.6133   Cl        2 RES2   0.0000
@<TRIPOS>BOND
     1     1     2    1
     2     2     3    1
     3     3    14    1
     4     4     1    1
     5     5     4    1
     6     6     1    1
     7     7     6    1
     8     8     1    1
     9     9     8    1
    10    10     1    1
    11    11    10    1
    12    12     1    1
    13    13    12    1
    14    14     5    1
    15    15    14    1
    16    16     9    1
    17    17    16    1
    18    18     2    2
    19    19    18    1
    20    20    19   ar
    21    21    20    1
    22    22    20   ar
    23    23    22    1
    24    24    22   ar
    25    25    24    1
    26    26    24   ar
    27    27    26    1
    28    28    19   ar
    29    29    28    1
    30    30     8    2
    31    31    30    1
    32    32    31   ar
    33    33    32    1
    34    34    32   ar
    35    35    34    1
    36    36    34   ar
    37    37    36    1
    38    38    36   ar
    39    39    38    1
    40    40    31   ar
    41    41    40    1
    42    42    10    2
    43    43    42    1
    44    44    43   ar
    45    45    44    1
    46    46    44   ar
    47    47    46    1
    48    48    46   ar
    49    49    48    1
    50    50    48   ar
    51    51    50    1
    52    52    43   ar
    53    53    52    1
    54    54     4    2
    55    55    54    1
    56    56    55   ar
    57    57    56    1
    58    58    56   ar
    59    59    58    1
    60    60    58   ar
    61    61    60    1
    62    62    60   ar
    63    63    62    1
    64    64    55   ar
    65    65    64    1
    66    66     6    2
    67    67    12    2
    68    68    67    1
    69    69    68    2
    70    70    69    1
    71    71    70   ar
    72    72    71    1
    73    73    71   ar
    74    74    73    1
    75    75    73   ar
    76    76    75    1
    77    77    75   ar
    78    78    77    1
    79    79    70   ar
    80    80    79    1
    81    81    80   ar
    82    82    81    1
    83    83    81   ar
    84    84    83    1
    85    85    83   ar
    86    86    85    1
    87    87    85   ar
    88    88    87    1
    89    89    80   ar
    90    90    66    1
    91    91    69    1
    92     7    14    1
    93    11    16    1
    94    13    16    1
    95    18    30    1
    96    26    28   ar
    97    38    40   ar
    98    42    54    1
    99    50    52   ar
   100    62    64   ar
   101    66    67    1
   102    77    79   ar
   103    87    89   ar
   104    89    91    1
   105    90    91    2
   106    92    93    1
   107    94    92    1
   108    95    92    1
   109    96    92    1
@<TRIPOS>SUBSTRUCTURE
     1 RES1        1 GROUP             0 ****  ****    0  
     2 RES2       92 GROUP             0 ****  ****    0  
@<TRIPOS>CRYSIN
   12.0320   13.2629   13.6241   91.1550   94.0260   99.7300     2     1
