@<TRIPOS>MOLECULE
CATWIG
    78    88     2     0     0
SMALL
USER_CHARGES
****
Generated from the CSD

@<TRIPOS>ATOM
     1 Fe1      9.1856   4.7379   3.1583   Fe        1 RES1   2.0000
     2 N1       9.2998   6.0724   4.9430   N.2       1 RES1   0.0000
     3 N2       7.9388   6.9892   6.5226   N.3       1 RES1   0.0000
     4 N3       7.0432   5.2009   3.5517   N.2       1 RES1   0.0000
     5 N4       5.7585   6.5811   4.8139   N.pl3     1 RES1   0.0000
     6 N5       8.4912   2.9985   1.9507   N.2       1 RES1   0.0000
     7 N6       8.3454   0.7341   2.0459   N.pl3     1 RES1   0.0000
     8 C1      10.1943   6.5431   6.0363   C.3       1 RES1   0.0000
     9 H1      10.9404   7.0824   5.6710   H         1 RES1   0.0000
    10 H2      10.5706   5.7756   6.5364   H         1 RES1   0.0000
    11 C2       9.2860   7.4086   6.9555   C.3       1 RES1   0.0000
    12 H3       9.4395   7.2036   7.9122   H         1 RES1   0.0000
    13 H4       9.4324   8.3751   6.8005   H         1 RES1   0.0000
    14 C3       8.1094   6.3836   5.3313   C.2       1 RES1   0.0000
    15 C4       6.9451   6.0261   4.5358   C.2       1 RES1   0.0000
    16 C5       5.6665   5.1232   2.9740   C.3       1 RES1   0.0000
    17 H5       5.3719   4.1810   2.8930   H         1 RES1   0.0000
    18 H6       5.6365   5.5454   2.0794   H         1 RES1   0.0000
    19 C6       4.7628   5.8968   3.9773   C.3       1 RES1   0.0000
    20 H7       4.1767   6.5452   3.5108   H         1 RES1   0.0000
    21 H8       4.2037   5.2787   4.5126   H         1 RES1   0.0000
    22 C7       6.7352   7.8075   6.7317   C.3       1 RES1   0.0000
    23 H9       6.8744   8.7003   6.3280   H         1 RES1   0.0000
    24 H10      6.5899   7.9328   7.7037   H         1 RES1   0.0000
    25 C8       5.4974   7.1693   6.1203   C.3       1 RES1   0.0000
    26 H11      5.1609   6.4654   6.7297   H         1 RES1   0.0000
    27 H12      4.7888   7.8560   6.0311   H         1 RES1   0.0000
    28 C9       7.6223   2.5813   0.8127   C.3       1 RES1   0.0000
    29 H13      7.9108   3.0176  -0.0265   H         1 RES1   0.0000
    30 H14      6.6783   2.8207   0.9879   H         1 RES1   0.0000
    31 C10      7.7868   1.0432   0.7152   C.3       1 RES1   0.0000
    32 H15      6.9164   0.5918   0.5723   H         1 RES1   0.0000
    33 H16      8.4130   0.7887  -0.0101   H         1 RES1   0.0000
    34 C11      8.7883   1.8905   2.5456   C.2       1 RES1   0.0000
    35 C12      8.9870  -0.5302   2.4209   C.3       1 RES1   0.0000
    36 H17      9.7937  -0.6686   1.8634   H         1 RES1   0.0000
    37 H18      8.3626  -1.2795   2.2487   H         1 RES1   0.0000
    38 N5A      9.8800   2.9985   4.3659   N.2       1 RES1   0.0000
    39 N6A     10.0258   0.7341   4.2707   N.pl3     1 RES1   0.0000
    40 C9A     10.7489   2.5813   5.5039   C.3       1 RES1   0.0000
    41 H13A    10.4604   3.0176   6.3431   H         1 RES1   0.0000
    42 H14A    11.6929   2.8207   5.3287   H         1 RES1   0.0000
    43 C10A    10.5844   1.0432   5.6014   C.3       1 RES1   0.0000
    44 H15A    11.4548   0.5918   5.7443   H         1 RES1   0.0000
    45 H16A     9.9583   0.7887   6.3267   H         1 RES1   0.0000
    46 C11A     9.5829   1.8905   3.7710   C.2       1 RES1   0.0000
    47 C12A     9.3842  -0.5302   3.8957   C.3       1 RES1   0.0000
    48 H17A     8.5775  -0.6686   4.4532   H         1 RES1   0.0000
    49 H18A    10.0087  -1.2795   4.0679   H         1 RES1   0.0000
    50 N1A      9.0714   6.0724   1.3736   N.2       1 RES1   0.0000
    51 N2A     10.4325   6.9892  -0.2060   N.3       1 RES1   0.0000
    52 N3A     11.3280   5.2009   2.7649   N.2       1 RES1   0.0000
    53 N4A     12.6127   6.5811   1.5027   N.pl3     1 RES1   0.0000
    54 C1A      8.1769   6.5431   0.2803   C.3       1 RES1   0.0000
    55 H1A      7.4308   7.0824   0.6456   H         1 RES1   0.0000
    56 H2A      7.8006   5.7756  -0.2198   H         1 RES1   0.0000
    57 C2A      9.0852   7.4086  -0.6389   C.3       1 RES1   0.0000
    58 H3A      8.9318   7.2036  -1.5956   H         1 RES1   0.0000
    59 H4A      8.9388   8.3751  -0.4839   H         1 RES1   0.0000
    60 C3A     10.2618   6.3836   0.9853   C.2       1 RES1   0.0000
    61 C4A     11.4261   6.0261   1.7808   C.2       1 RES1   0.0000
    62 C5A     12.7047   5.1232   3.3426   C.3       1 RES1   0.0000
    63 H5A     12.9993   4.1810   3.4236   H         1 RES1   0.0000
    64 H6A     12.7348   5.5454   4.2372   H         1 RES1   0.0000
    65 C6A     13.6084   5.8968   2.3393   C.3       1 RES1   0.0000
    66 H7A     14.1945   6.5452   2.8058   H         1 RES1   0.0000
    67 H8A     14.1675   5.2787   1.8040   H         1 RES1   0.0000
    68 C7A     11.6360   7.8075  -0.4151   C.3       1 RES1   0.0000
    69 H9A     11.4968   8.7003  -0.0114   H         1 RES1   0.0000
    70 H10A    11.7813   7.9328  -1.3871   H         1 RES1   0.0000
    71 C8A     12.8738   7.1693   0.1963   C.3       1 RES1   0.0000
    72 H11A    13.2103   6.4654  -0.4131   H         1 RES1   0.0000
    73 H12A    13.5824   7.8560   0.2855   H         1 RES1   0.0000
    74 Cl1      7.6364  10.5317   9.4635   Cl        2 RES2   0.0000
    75 O1       6.6806  10.4102   8.3970   O.2       2 RES2   0.0000
    76 O2       7.7995   9.2493  10.1057   O.3       2 RES2  -1.0000
    77 O3       8.9019  10.9718   8.9275   O.2       2 RES2   0.0000
    78 O4       7.1568  11.4960  10.4175   O.2       2 RES2   0.0000
@<TRIPOS>BOND
     1     1     2    1
     2     2     8    1
     3     3    11    1
     4     4     1    1
     5     5    15    1
     6     6     1    1
     7     7    31    1
     8     8     9    1
     9    10     8    1
    10    11     8    1
    11    12    11    1
    12    13    11    1
    13    14     2    2
    14    15     4    2
    15    16     4    1
    16    17    16    1
    17    18    16    1
    18    19     5    1
    19    20    19    1
    20    21    19    1
    21    22     3    1
    22    23    22    1
    23    24    22    1
    24    25     5    1
    25    26    25    1
    26    27    25    1
    27    28     6    1
    28    29    28    1
    29    30    28    1
    30    31    28    1
    31    32    31    1
    32    33    31    1
    33    34     6    2
    34    35     7    1
    35    36    35    1
    36    37    35    1
    37    38     1    1
    38    39    43    1
    39    40    38    1
    40    41    40    1
    41    42    40    1
    42    43    40    1
    43    44    43    1
    44    45    43    1
    45    46    34    1
    46    47    35    1
    47    48    47    1
    48    49    47    1
    49    50     1    1
    50    51    57    1
    51    52     1    1
    52    53    61    1
    53    54    50    1
    54    55    54    1
    55    56    54    1
    56    57    54    1
    57    58    57    1
    58    59    57    1
    59    60    50    2
    60    61    52    2
    61    62    52    1
    62    63    62    1
    63    64    62    1
    64    65    53    1
    65    66    65    1
    66    67    65    1
    67    68    51    1
    68    69    68    1
    69    70    68    1
    70    71    53    1
    71    72    71    1
    72    73    71    1
    73     3    14    1
    74     7    34    1
    75    14    15    1
    76    16    19    1
    77    22    25    1
    78    38    46    2
    79    39    46    1
    80    39    47    1
    81    51    60    1
    82    60    61    1
    83    62    65    1
    84    68    71    1
    85    74    75    2
    86    76    74    1
    87    77    74    2
    88    78    74    2
@<TRIPOS>SUBSTRUCTURE
     1 RES1        1 GROUP             0 ****  ****    0  
     2 RES2       74 GROUP             0 ****  ****    0  
@<TRIPOS>CRYSIN
   23.9160   10.0990   16.8100   90.0000  131.2770   90.0000    15     1
