@<TRIPOS>MOLECULE
CAWNEV
   124   138     2     0     0
SMALL
USER_CHARGES
****
Generated from the CSD

@<TRIPOS>ATOM
     1 F1       3.4314  12.8900   0.2875   F         1 RES1  -1.0000
     2 Sb1      2.1542  11.5833   0.0000   Sb        1 RES1   0.0000
     3 F2       2.3654  11.0282   1.7696   F         1 RES1   0.0000
     4 F3       3.5033  10.4374  -0.5267   F         1 RES1   0.0000
     5 F1A      0.8769  10.2766  -0.2875   F         1 RES1   0.0000
     6 F2A      1.9429  12.1384  -1.7696   F         1 RES1   0.0000
     7 F3A      0.8050  12.7292   0.5267   F         1 RES1   0.0000
     8 Fe1      2.2764   7.5134   6.5630   Fe        2 RES2   1.0000
     9 N1       3.9888   6.4811   6.2587   N.2       2 RES2   0.0000
    10 N2       2.6457   7.5761   8.5552   N.2       2 RES2   0.0000
    11 O1       3.2882   9.3785   6.4317   O.2       2 RES2   0.0000
    12 C1       4.7548   6.2857   8.6077   C.2       2 RES2   0.0000
    13 C2       5.7938   5.6834   9.4952   C.ar      2 RES2   0.0000
    14 C3       4.8670   6.0538   7.2302   C.2       2 RES2   0.0000
    15 C4       5.6100   5.1559   5.3211   C.2       2 RES2   0.0000
    16 H1       6.1030   4.6814   4.6912   H         2 RES2   0.0000
    17 C5       4.1201  11.5068   5.8148   C.ar      2 RES2   0.0000
    18 C6       3.8010   6.0461   3.8266   C.2       2 RES2   0.0000
    19 C7       3.7181   7.0109   9.2084   C.2       2 RES2   0.0000
    20 C8       4.4301   5.9259   5.0625   C.2       2 RES2   0.0000
    21 C9       5.8790   5.2391   6.6361   C.2       2 RES2   0.0000
    22 H2       6.5933   4.8383   7.0775   H         2 RES2   0.0000
    23 C10      3.3511  10.2857   5.6284   C.2       2 RES2   0.0000
    24 H3       2.8729  10.1947   4.8356   H         2 RES2   0.0000
    25 C11      1.9131   8.2396   9.5252   C.2       2 RES2   0.0000
    26 C12      3.6351   7.2888  10.6076   C.2       2 RES2   0.0000
    27 H4       4.2280   7.0036  11.2647   H         2 RES2   0.0000
    28 C13      2.5311   8.0447  10.7956   C.2       2 RES2   0.0000
    29 H5       2.2280   8.3796  11.6086   H         2 RES2   0.0000
    30 C14      4.6927  11.9021   7.0565   C.ar      2 RES2   0.0000
    31 C15      5.4410   4.6597  10.3616   C.ar      2 RES2   0.0000
    32 H6       4.5626   4.3565  10.3892   H         2 RES2   0.0000
    33 C16      4.4241  11.2902   8.2917   C.ar      2 RES2   0.0000
    34 H7       3.8559  10.5549   8.3324   H         2 RES2   0.0000
    35 C17      7.1068   6.1153   9.4769   C.ar      2 RES2   0.0000
    36 H8       7.3605   6.7941   8.8941   H         2 RES2   0.0000
    37 C18      4.3811   5.2830   2.6661   C.ar      2 RES2   0.0000
    38 C19      7.6819   4.5238  11.1636   C.ar      2 RES2   0.0000
    39 H9       8.3174   4.1305  11.7175   H         2 RES2   0.0000
    40 C20      8.0430   5.5508  10.3144   C.ar      2 RES2   0.0000
    41 H10      8.9197   5.8622  10.3091   H         2 RES2   0.0000
    42 C21      5.6646   5.5348   2.2130   C.ar      2 RES2   0.0000
    43 H11      6.1653   6.2199   2.5950   H         2 RES2   0.0000
    44 C22      3.6359   4.2799   2.0568   C.ar      2 RES2   0.0000
    45 H12      2.7648   4.1123   2.3364   H         2 RES2   0.0000
    46 C23      6.3968   4.0906  11.1859   C.ar      2 RES2   0.0000
    47 H13      6.1549   3.4023  11.7635   H         2 RES2   0.0000
    48 C24      5.5612  13.0301   7.0381   C.ar      2 RES2   0.0000
    49 C25      6.2106   4.7651   1.1866   C.ar      2 RES2   0.0000
    50 H14      7.0779   4.9269   0.8939   H         2 RES2   0.0000
    51 C26      4.3555  12.2159   4.6676   C.ar      2 RES2   0.0000
    52 H15      3.9228  11.9734   3.8800   H         2 RES2   0.0000
    53 C27      5.0041  11.7810   9.4428   C.ar      2 RES2   0.0000
    54 H16      4.8154  11.3751  10.2579   H         2 RES2   0.0000
    55 C28      4.1892   3.5299   1.0304   C.ar      2 RES2   0.0000
    56 H17      3.6865   2.8597   0.6261   H         2 RES2   0.0000
    57 C29      5.2351  13.2971   4.6650   C.ar      2 RES2   0.0000
    58 H18      5.4186  13.7524   3.8748   H         2 RES2   0.0000
    59 C30      6.1416  13.4589   8.2444   C.ar      2 RES2   0.0000
    60 H19      6.7356  14.1748   8.2313   H         2 RES2   0.0000
    61 C31      5.8632  12.8671   9.4061   C.ar      2 RES2   0.0000
    62 H20      6.2456  13.1846  10.1923   H         2 RES2   0.0000
    63 C32      5.4646   3.7672   0.6104   C.ar      2 RES2   0.0000
    64 H21      5.8307   3.2502  -0.0709   H         2 RES2   0.0000
    65 C33      5.8159  13.6767   5.8161   C.ar      2 RES2   0.0000
    66 H22      6.4075  14.3938   5.8030   H         2 RES2   0.0000
    67 N1A      0.5640   8.5457   6.8672   N.2       2 RES2   0.0000
    68 N2A      1.9071   7.4507   4.5707   N.2       2 RES2   0.0000
    69 O1A      1.2646   5.6483   6.6942   O.2       2 RES2   0.0000
    70 C1A     -0.2020   8.7411   4.5182   C.2       2 RES2   0.0000
    71 C2A     -1.2410   9.3435   3.6308   C.ar      2 RES2   0.0000
    72 C3A     -0.3142   8.9730   5.8958   C.2       2 RES2   0.0000
    73 C4A     -1.0572   9.8709   7.8048   C.2       2 RES2   0.0000
    74 H1A     -1.5502  10.3455   8.4347   H         2 RES2   0.0000
    75 C5A      0.4327   3.5200   7.3112   C.ar      2 RES2   0.0000
    76 C6A      0.7518   8.9808   9.2993   C.2       2 RES2   0.0000
    77 C7A      0.8347   8.0160   3.9176   C.2       2 RES2   0.0000
    78 C8A      0.1227   9.1010   8.0634   C.2       2 RES2   0.0000
    79 C9A     -1.3262   9.7877   6.4899   C.2       2 RES2   0.0000
    80 H2A     -2.0405  10.1886   6.0484   H         2 RES2   0.0000
    81 C10A     1.2017   4.7412   7.4975   C.2       2 RES2   0.0000
    82 H3A      1.6799   4.8322   8.2903   H         2 RES2   0.0000
    83 C11A     2.6397   6.7873   3.6007   C.2       2 RES2   0.0000
    84 C12A     0.9177   7.7381   2.5183   C.2       2 RES2   0.0000
    85 H4A      0.3248   8.0232   1.8613   H         2 RES2   0.0000
    86 C13A     2.0217   6.9822   2.3304   C.2       2 RES2   0.0000
    87 H5A      2.3248   6.6473   1.5174   H         2 RES2   0.0000
    88 C14A    -0.1399   3.1248   6.0694   C.ar      2 RES2   0.0000
    89 C15A    -0.8882  10.3672   2.7643   C.ar      2 RES2   0.0000
    90 H6A     -0.0098  10.6704   2.7368   H         2 RES2   0.0000
    91 C16A     0.1287   3.7367   4.8343   C.ar      2 RES2   0.0000
    92 H7A      0.6969   4.4720   4.7936   H         2 RES2   0.0000
    93 C17A    -2.5540   8.9116   3.6490   C.ar      2 RES2   0.0000
    94 H8A     -2.8077   8.2328   4.2318   H         2 RES2   0.0000
    95 C18A     0.1717   9.7439  10.4598   C.ar      2 RES2   0.0000
    96 C19A    -3.1291  10.5031   1.9623   C.ar      2 RES2   0.0000
    97 H9A     -3.7646  10.8964   1.4084   H         2 RES2   0.0000
    98 C20A    -3.4902   9.4761   2.8116   C.ar      2 RES2   0.0000
    99 H10A    -4.3669   9.1647   2.8168   H         2 RES2   0.0000
   100 C21A    -1.1118   9.4921  10.9129   C.ar      2 RES2   0.0000
   101 H11A    -1.6125   8.8069  10.5309   H         2 RES2   0.0000
   102 C22A     0.9169  10.7470  11.0691   C.ar      2 RES2   0.0000
   103 H12A     1.7880  10.9146  10.7895   H         2 RES2   0.0000
   104 C23A    -1.8440  10.9362   1.9400   C.ar      2 RES2   0.0000
   105 H13A    -1.6021  11.6245   1.3625   H         2 RES2   0.0000
   106 C24A    -1.0084   1.9967   6.0878   C.ar      2 RES2   0.0000
   107 C25A    -1.6578  10.2618  11.9394   C.ar      2 RES2   0.0000
   108 H14A    -2.5251  10.1000  12.2321   H         2 RES2   0.0000
   109 C26A     0.1973   2.8109   8.4584   C.ar      2 RES2   0.0000
   110 H15A     0.6300   3.0535   9.2459   H         2 RES2   0.0000
   111 C27A    -0.4513   3.2459   3.6831   C.ar      2 RES2   0.0000
   112 H16A    -0.2626   3.6517   2.8680   H         2 RES2   0.0000
   113 C28A     0.3636  11.4970  12.0956   C.ar      2 RES2   0.0000
   114 H17A     0.8663  12.1672  12.4998   H         2 RES2   0.0000
   115 C29A    -0.6823   1.7297   8.4610   C.ar      2 RES2   0.0000
   116 H18A    -0.8658   1.2745   9.2512   H         2 RES2   0.0000
   117 C30A    -1.5888   1.5679   4.8815   C.ar      2 RES2   0.0000
   118 H19A    -2.1828   0.8520   4.8947   H         2 RES2   0.0000
   119 C31A    -1.3104   2.1597   3.7199   C.ar      2 RES2   0.0000
   120 H20A    -1.6928   1.8423   2.9336   H         2 RES2   0.0000
   121 C32A    -0.9118  11.2597  12.5156   C.ar      2 RES2   0.0000
   122 H21A    -1.2779  11.7767  13.1968   H         2 RES2   0.0000
   123 C33A    -1.2631   1.3501   7.3098   C.ar      2 RES2   0.0000
   124 H22A    -1.8547   0.6331   7.3230   H         2 RES2   0.0000
@<TRIPOS>BOND
     1     1     2    1
     2     2     3    1
     3     4     2    1
     4     5     2    1
     5     6     2    1
     6     7     2    1
     7     8     9    1
     8     9    14    2
     9    10     8    1
    10    11     8    1
    11    12    13    1
    12    13    31   ar
    13    14    12    1
    14    15    16    1
    15    17    23    1
    16    18    20    2
    17    19    10    1
    18    20     9    1
    19    21    14    1
    20    22    21    1
    21    23    11    2
    22    24    23    1
    23    25    10    1
    24    26    19    1
    25    27    26    1
    26    28    25    1
    27    29    28    1
    28    30    17   ar
    29    31    32    1
    30    33    30   ar
    31    34    33    1
    32    35    13   ar
    33    36    35    1
    34    37    18    1
    35    38    39    1
    36    40    35   ar
    37    41    40    1
    38    42    37   ar
    39    43    42    1
    40    44    37   ar
    41    45    44    1
    42    46    31   ar
    43    47    46    1
    44    48    30   ar
    45    49    42   ar
    46    50    49    1
    47    51    17   ar
    48    52    51    1
    49    53    33   ar
    50    54    53    1
    51    55    44   ar
    52    56    55    1
    53    57    51   ar
    54    58    57    1
    55    59    48   ar
    56    60    59    1
    57    61    53   ar
    58    62    61    1
    59    63    49   ar
    60    64    63    1
    61    65    48   ar
    62    66    65    1
    63    67     8    1
    64    68     8    1
    65    69     8    1
    66    70    71    1
    67    71    89   ar
    68    72    67    1
    69    73    74    1
    70    75    81    1
    71    76    25    2
    72    77    68    1
    73    78    67    2
    74    79    72    1
    75    80    79    1
    76    81    69    2
    77    82    81    1
    78    83    18    1
    79    84    77    2
    80    85    84    1
    81    86    83    2
    82    87    86    1
    83    88    75   ar
    84    89    90    1
    85    91    88   ar
    86    92    91    1
    87    93    71   ar
    88    94    93    1
    89    95    76    1
    90    96    97    1
    91    98    93   ar
    92    99    98    1
    93   100    95   ar
    94   101   100    1
    95   102    95   ar
    96   103   102    1
    97   104    89   ar
    98   105   104    1
    99   106    88   ar
   100   107   100   ar
   101   108   107    1
   102   109    75   ar
   103   110   109    1
   104   111    91   ar
   105   112   111    1
   106   113   102   ar
   107   114   113    1
   108   115   109   ar
   109   116   115    1
   110   117   106   ar
   111   118   117    1
   112   119   111   ar
   113   120   119    1
   114   121   107   ar
   115   122   121    1
   116   123   106   ar
   117   124   123    1
   118    12    19    2
   119    15    20    1
   120    15    21    2
   121    26    28    2
   122    38    40   ar
   123    38    46   ar
   124    55    63   ar
   125    57    65   ar
   126    59    61   ar
   127    68    83    1
   128    70    72    2
   129    70    77    1
   130    73    78    1
   131    73    79    2
   132    76    78    1
   133    84    86    1
   134    96    98   ar
   135    96   104   ar
   136   113   121   ar
   137   115   123   ar
   138   117   119   ar
@<TRIPOS>SUBSTRUCTURE
     1 RES1        1 GROUP             0 ****  ****    0  
     2 RES2        8 GROUP             0 ****  ****    0  
@<TRIPOS>CRYSIN
    8.8983   11.7819   13.7805   73.8890   79.9760   79.4650     2     1
