@<TRIPOS>MOLECULE
CAXTON
    95    98     1     0     0
SMALL
NO_CHARGES
****
Generated from the CSD

@<TRIPOS>ATOM
     1 Fe1      0.0000   0.0000   0.0000   Fe        1 RES1   0.0000
     2 S1       1.7771  -0.7325   4.4716   S.2       1 RES1   0.0000
     3 O1      -2.5461   3.1348   4.2456   O.2       1 RES1   0.0000
     4 O2       2.1197   3.1607   4.9381   O.2       1 RES1   0.0000
     5 N1       0.5203  -0.4603   1.9943   N.2       1 RES1   0.0000
     6 N2      -2.0975   0.6378   0.6998   N.ar      1 RES1   0.0000
     7 N3      -4.5487   2.1419   4.4531   N.am      1 RES1   0.0000
     8 H1      -5.3820   2.2079   4.7288   H         1 RES1   0.0000
     9 N4      -4.9505   5.8450   2.7651   N.1       1 RES1   0.0000
    10 N5       0.7739   2.0420   0.3036   N.ar      1 RES1   0.0000
    11 N6       0.1560   3.8413   4.0556   N.am      1 RES1   0.0000
    12 H2      -0.7207   3.8074   4.1153   H         1 RES1   0.0000
    13 N7       1.1067   2.3194   8.2414   N.1       1 RES1   0.0000
    14 C1       1.0388  -0.5620   3.0327   C.1       1 RES1   0.0000
    15 C2      -2.4746   0.5638   1.9862   C.ar      1 RES1   0.0000
    16 H3      -1.8585   0.1989   2.6096   H         1 RES1   0.0000
    17 C3      -3.7094   0.9875   2.4605   C.ar      1 RES1   0.0000
    18 C4      -4.5878   1.5371   1.5473   C.ar      1 RES1   0.0000
    19 H4      -5.4357   1.8573   1.8334   H         1 RES1   0.0000
    20 C5      -4.2283   1.6200   0.2146   C.ar      1 RES1   0.0000
    21 H5      -4.8193   1.9947  -0.4263   H         1 RES1   0.0000
    22 C6      -2.9838   1.1428  -0.1597   C.ar      1 RES1   0.0000
    23 H6      -2.7478   1.1767  -1.0793   H         1 RES1   0.0000
    24 C7      -4.0511   0.8751   3.9250   C.3       1 RES1   0.0000
    25 H7      -4.7390   0.1748   4.0487   H         1 RES1   0.0000
    26 H8      -3.2442   0.6039   4.4307   H         1 RES1   0.0000
    27 C8      -3.7389   3.1981   4.5182   C.2       1 RES1   0.0000
    28 C9      -4.3867   4.5291   4.9260   C.3       1 RES1   0.0000
    29 H9      -5.2118   4.3588   5.4459   H         1 RES1   0.0000
    30 H10     -3.7633   5.0483   5.4928   H         1 RES1   0.0000
    31 C10     -4.7054   5.2838   3.7116   C.1       1 RES1   0.0000
    32 C11      0.5497   2.6825   1.4524   C.ar      1 RES1   0.0000
    33 H11      0.0083   2.2579   2.1069   H         1 RES1   0.0000
    34 C12      1.0660   3.9359   1.7395   C.ar      1 RES1   0.0000
    35 C13      1.8592   4.5318   0.7733   C.ar      1 RES1   0.0000
    36 H12      2.2469   5.3847   0.9339   H         1 RES1   0.0000
    37 C14      2.0821   3.8877  -0.4177   C.ar      1 RES1   0.0000
    38 H13      2.6129   4.2927  -1.0941   H         1 RES1   0.0000
    39 C15      1.5253   2.6450  -0.6178   C.ar      1 RES1   0.0000
    40 H14      1.6823   2.1999  -1.4416   H         1 RES1   0.0000
    41 C16      0.7701   4.6710   3.0315   C.3       1 RES1   0.0000
    42 H15      1.6149   5.0439   3.3883   H         1 RES1   0.0000
    43 H16      0.1668   5.4310   2.8339   H         1 RES1   0.0000
    44 C17      0.8893   3.1357   4.9009   C.2       1 RES1   0.0000
    45 C18      0.1097   2.2284   5.8442   C.3       1 RES1   0.0000
    46 H17     -0.8388   2.5112   5.8649   H         1 RES1   0.0000
    47 H18      0.1457   1.2971   5.5125   H         1 RES1   0.0000
    48 C19      0.6659   2.2855   7.1906   C.1       1 RES1   0.0000
    49 S1B     -1.7771   0.7325  -4.4716   S.2       1 RES1   0.0000
    50 O1B      2.5461  -3.1348  -4.2456   O.2       1 RES1   0.0000
    51 O2B     -2.1197  -3.1607  -4.9381   O.2       1 RES1   0.0000
    52 N1B     -0.5203   0.4603  -1.9943   N.2       1 RES1   0.0000
    53 N2B      2.0975  -0.6378  -0.6998   N.ar      1 RES1   0.0000
    54 N3B      4.5487  -2.1419  -4.4531   N.am      1 RES1   0.0000
    55 H1B      5.3820  -2.2079  -4.7288   H         1 RES1   0.0000
    56 N4B      4.9505  -5.8450  -2.7651   N.1       1 RES1   0.0000
    57 N5B     -0.7739  -2.0420  -0.3036   N.ar      1 RES1   0.0000
    58 N6B     -0.1560  -3.8413  -4.0556   N.am      1 RES1   0.0000
    59 H2B      0.7207  -3.8074  -4.1153   H         1 RES1   0.0000
    60 N7B     -1.1067  -2.3194  -8.2414   N.1       1 RES1   0.0000
    61 C1B     -1.0388   0.5620  -3.0327   C.1       1 RES1   0.0000
    62 C2B      2.4746  -0.5638  -1.9862   C.ar      1 RES1   0.0000
    63 H3B      1.8585  -0.1989  -2.6096   H         1 RES1   0.0000
    64 C3B      3.7094  -0.9875  -2.4605   C.ar      1 RES1   0.0000
    65 C4B      4.5878  -1.5371  -1.5473   C.ar      1 RES1   0.0000
    66 H4B      5.4357  -1.8573  -1.8334   H         1 RES1   0.0000
    67 C5B      4.2283  -1.6200  -0.2146   C.ar      1 RES1   0.0000
    68 H5B      4.8193  -1.9947   0.4263   H         1 RES1   0.0000
    69 C6B      2.9838  -1.1428   0.1597   C.ar      1 RES1   0.0000
    70 H6B      2.7478  -1.1767   1.0793   H         1 RES1   0.0000
    71 C7B      4.0511  -0.8751  -3.9250   C.3       1 RES1   0.0000
    72 H7B      4.7390  -0.1748  -4.0487   H         1 RES1   0.0000
    73 H8B      3.2442  -0.6039  -4.4307   H         1 RES1   0.0000
    74 C8B      3.7389  -3.1981  -4.5182   C.2       1 RES1   0.0000
    75 C9B      4.3867  -4.5291  -4.9260   C.3       1 RES1   0.0000
    76 H9B      5.2118  -4.3588  -5.4459   H         1 RES1   0.0000
    77 H10B     3.7633  -5.0483  -5.4928   H         1 RES1   0.0000
    78 C10B     4.7054  -5.2838  -3.7116   C.1       1 RES1   0.0000
    79 C11B    -0.5497  -2.6825  -1.4524   C.ar      1 RES1   0.0000
    80 H11B    -0.0083  -2.2579  -2.1069   H         1 RES1   0.0000
    81 C12B    -1.0660  -3.9359  -1.7395   C.ar      1 RES1   0.0000
    82 C13B    -1.8592  -4.5318  -0.7733   C.ar      1 RES1   0.0000
    83 H12B    -2.2469  -5.3847  -0.9339   H         1 RES1   0.0000
    84 C14B    -2.0821  -3.8877   0.4177   C.ar      1 RES1   0.0000
    85 H13B    -2.6129  -4.2927   1.0941   H         1 RES1   0.0000
    86 C15B    -1.5253  -2.6450   0.6178   C.ar      1 RES1   0.0000
    87 H14B    -1.6823  -2.1999   1.4416   H         1 RES1   0.0000
    88 C16B    -0.7701  -4.6710  -3.0315   C.3       1 RES1   0.0000
    89 H15B    -1.6149  -5.0439  -3.3883   H         1 RES1   0.0000
    90 H16B    -0.1668  -5.4310  -2.8339   H         1 RES1   0.0000
    91 C17B    -0.8893  -3.1357  -4.9009   C.2       1 RES1   0.0000
    92 C18B    -0.1097  -2.2284  -5.8442   C.3       1 RES1   0.0000
    93 H17B     0.8388  -2.5112  -5.8649   H         1 RES1   0.0000
    94 H18B    -0.1457  -1.2971  -5.5125   H         1 RES1   0.0000
    95 C19B    -0.6659  -2.2855  -7.1906   C.1       1 RES1   0.0000
@<TRIPOS>BOND
     1     1     5    1
     2     2    14    2
     3     3    27    2
     4     4    44    2
     5     5    14    2
     6     6     1    1
     7     7     8    1
     8     9    31    3
     9    10     1    1
    10    11    12    1
    11    13    48    3
    12    15     6   ar
    13    16    15    1
    14    17    15   ar
    15    18    17   ar
    16    19    18    1
    17    20    18   ar
    18    21    20    1
    19    22     6   ar
    20    23    22    1
    21    24     7    1
    22    25    24    1
    23    26    24    1
    24    27     7   am
    25    28    27    1
    26    29    28    1
    27    30    28    1
    28    31    28    1
    29    32    10   ar
    30    33    32    1
    31    34    32   ar
    32    35    34   ar
    33    36    35    1
    34    37    35   ar
    35    38    37    1
    36    39    10   ar
    37    40    39    1
    38    41    11    1
    39    42    41    1
    40    43    41    1
    41    44    11   am
    42    45    44    1
    43    46    45    1
    44    47    45    1
    45    48    45    1
    46    49    61    2
    47    50    74    2
    48    51    91    2
    49    52     1    1
    50    53     1    1
    51    54    55    1
    52    56    78    3
    53    57     1    1
    54    58    59    1
    55    60    95    3
    56    61    52    2
    57    62    53   ar
    58    63    62    1
    59    64    62   ar
    60    65    64   ar
    61    66    65    1
    62    67    65   ar
    63    68    67    1
    64    69    53   ar
    65    70    69    1
    66    71    54    1
    67    72    71    1
    68    73    71    1
    69    74    54   am
    70    75    74    1
    71    76    75    1
    72    77    75    1
    73    78    75    1
    74    79    57   ar
    75    80    79    1
    76    81    79   ar
    77    82    81   ar
    78    83    82    1
    79    84    82   ar
    80    85    84    1
    81    86    57   ar
    82    87    86    1
    83    88    58    1
    84    89    88    1
    85    90    88    1
    86    91    58   am
    87    92    91    1
    88    93    92    1
    89    94    92    1
    90    95    92    1
    91    17    24    1
    92    20    22   ar
    93    34    41    1
    94    37    39   ar
    95    64    71    1
    96    67    69   ar
    97    81    88    1
    98    84    86   ar
@<TRIPOS>SUBSTRUCTURE
     1 RES1        1 GROUP             0 ****  ****    0  
@<TRIPOS>CRYSIN
    9.2681    8.9209   24.6883   90.0000   93.5000   90.0000    14     1
