@<TRIPOS>MOLECULE
CEHHIJ
    87    98     1     0     0
SMALL
NO_CHARGES
****
Generated from the CSD

@<TRIPOS>ATOM
     1 Fe1      0.7807   2.0354   3.5517   Fe        1 RES1   0.0000
     2 O1      -1.2488   1.4258   1.5680   O.3       1 RES1   0.0000
     3 O2       1.4116   0.3222   5.8197   O.3       1 RES1   0.0000
     4 O3       0.9178   2.0839   0.6317   O.3       1 RES1   0.0000
     5 O4       3.1538   1.9606   5.2721   O.3       1 RES1   0.0000
     6 O5      -0.5532   3.7743   1.6015   O.3       1 RES1   0.0000
     7 O6       1.1071   2.7026   6.3744   O.3       1 RES1   0.0000
     8 N1      -0.6520   1.0799   2.7483   N.2       1 RES1   0.0000
     9 N2       0.6993   0.4817   4.6529   N.2       1 RES1   0.0000
    10 N3       1.6073   1.9964   1.8293   N.2       1 RES1   0.0000
    11 N4       2.6478   2.0934   3.9946   N.2       1 RES1   0.0000
    12 N5      -0.0790   3.6173   2.8875   N.2       1 RES1   0.0000
    13 N6       0.5661   3.0606   5.1519   N.2       1 RES1   0.0000
    14 C1      -0.9375  -0.1149   3.2047   C.2       1 RES1   0.0000
    15 C2      -0.1866  -0.4344   4.3783   C.2       1 RES1   0.0000
    16 C3      -0.3993  -1.7086   5.1256   C.3       1 RES1   0.0000
    17 H1      -0.4469  -1.5202   6.0960   H         1 RES1   0.0000
    18 H2       0.3662  -2.3173   4.9676   H         1 RES1   0.0000
    19 C4      -1.7192  -2.3979   4.6604   C.3       1 RES1   0.0000
    20 H3      -1.7361  -3.3284   5.0002   H         1 RES1   0.0000
    21 H4      -2.4917  -1.9181   5.0528   H         1 RES1   0.0000
    22 C5      -1.8531  -2.4156   3.2198   C.3       1 RES1   0.0000
    23 H5      -2.6884  -2.8959   2.9916   H         1 RES1   0.0000
    24 H6      -1.1003  -2.9381   2.8449   H         1 RES1   0.0000
    25 C6      -1.8808  -1.0654   2.5377   C.3       1 RES1   0.0000
    26 H7      -1.6257  -1.1695   1.5861   H         1 RES1   0.0000
    27 H8      -2.7994  -0.6962   2.5703   H         1 RES1   0.0000
    28 C7       2.8990   2.1719   1.7378   C.2       1 RES1   0.0000
    29 C8       3.5246   2.1821   3.0317   C.2       1 RES1   0.0000
    30 C9       4.9983   2.3463   3.2047   C.3       1 RES1   0.0000
    31 H9       5.4249   1.4606   3.3138   H         1 RES1   0.0000
    32 H10      5.1832   2.8821   4.0172   H         1 RES1   0.0000
    33 C10      5.5784   3.0565   1.9660   C.3       1 RES1   0.0000
    34 H11      5.2537   3.9921   1.9384   H         1 RES1   0.0000
    35 H12      6.5663   3.0765   2.0287   H         1 RES1   0.0000
    36 C11      5.1660   2.3403   0.6921   C.3       1 RES1   0.0000
    37 H13      5.4369   1.3893   0.7498   H         1 RES1   0.0000
    38 H14      5.6347   2.7466  -0.0790   H         1 RES1   0.0000
    39 C12      3.6514   2.4233   0.4677   C.3       1 RES1   0.0000
    40 H15      3.4195   3.3222   0.1216   H         1 RES1   0.0000
    41 H16      3.3829   1.7547  -0.2106   H         1 RES1   0.0000
    42 C13     -0.3407   4.5860   3.7213   C.2       1 RES1   0.0000
    43 C14      0.1427   4.2999   5.0403   C.2       1 RES1   0.0000
    44 C15      0.2533   5.3511   6.0885   C.3       1 RES1   0.0000
    45 H17      1.1277   5.2753   6.5461   H         1 RES1   0.0000
    46 H18     -0.4615   5.2269   6.7618   H         1 RES1   0.0000
    47 C16      0.1242   6.7477   5.4440   C.3       1 RES1   0.0000
    48 H19      0.0566   7.4336   6.1537   H         1 RES1   0.0000
    49 H20      0.9330   6.9399   4.9074   H         1 RES1   0.0000
    50 C17     -1.1063   6.8194   4.5488   C.3       1 RES1   0.0000
    51 H21     -1.2245   7.7493   4.2303   H         1 RES1   0.0000
    52 H22     -1.9081   6.5740   5.0767   H         1 RES1   0.0000
    53 C18     -0.9889   5.8837   3.3439   C.3       1 RES1   0.0000
    54 H23     -1.8909   5.7042   2.9778   H         1 RES1   0.0000
    55 H24     -0.4539   6.3235   2.6380   H         1 RES1   0.0000
    56 C19     -1.2308   2.6441  -0.5793   C.ar      1 RES1   0.0000
    57 C20     -1.6414   3.8533  -1.1410   C.ar      1 RES1   0.0000
    58 H25     -1.3975   4.6699  -0.7209   H         1 RES1   0.0000
    59 C21     -2.3978   3.8864  -2.3020   C.ar      1 RES1   0.0000
    60 H26     -2.6674   4.7262  -2.6556   H         1 RES1   0.0000
    61 C22     -2.7746   2.7155  -2.9640   C.ar      1 RES1   0.0000
    62 C23     -2.3315   1.4898  -2.4211   C.ar      1 RES1   0.0000
    63 H27     -2.5544   0.6749  -2.8562   H         1 RES1   0.0000
    64 C24     -1.5768   1.4651  -1.2638   C.ar      1 RES1   0.0000
    65 H28     -1.2830   0.6292  -0.9215   H         1 RES1   0.0000
    66 C25     -3.6235   2.7739  -4.1564   C.2       1 RES1   0.0000
    67 H29     -3.9449   3.6326  -4.4046   H         1 RES1   0.0000
    68 C26     -3.9943   1.7588  -4.9275   C.2       1 RES1   0.0000
    69 H30     -3.7022   0.8778  -4.7256   H         1 RES1   0.0000
    70 H31     -4.5506   1.9136  -5.6810   H         1 RES1   0.0000
    71 C27      2.7691   1.3118   7.6783   C.ar      1 RES1   0.0000
    72 C28      2.4304   0.2276   8.4945   C.ar      1 RES1   0.0000
    73 H32      1.7815  -0.3934   8.1886   H         1 RES1   0.0000
    74 C29      3.0176   0.0332   9.7421   C.ar      1 RES1   0.0000
    75 H33      2.7539  -0.7085  10.2737   H         1 RES1   0.0000
    76 C30      3.9826   0.9081  10.2198   C.ar      1 RES1   0.0000
    77 C31      4.3109   2.0016   9.4236   C.ar      1 RES1   0.0000
    78 H34      4.9480   2.6324   9.7371   H         1 RES1   0.0000
    79 C32      3.7237   2.1843   8.1811   C.ar      1 RES1   0.0000
    80 H35      3.9838   2.9319   7.6570   H         1 RES1   0.0000
    81 C33      4.6010   0.6547  11.5400   C.2       1 RES1   0.0000
    82 H36      4.3281  -0.1386  11.9851   H         1 RES1   0.0000
    83 C34      5.4890   1.4057  12.1757   C.2       1 RES1   0.0000
    84 H37      5.7998   2.2116  11.7808   H         1 RES1   0.0000
    85 H38      5.8154   1.1375  13.0271   H         1 RES1   0.0000
    86 B1      -0.5071   2.5015   0.8401   B         1 RES1   0.0000
    87 B2       2.0989   1.5756   6.2527   B         1 RES1   0.0000
@<TRIPOS>BOND
     1     1     8    1
     2     2     8    1
     3     3     9    1
     4     4    10    1
     5     5    11    1
     6     6    12    1
     7     7    13    1
     8     8    14    2
     9     9     1    1
    10    10     1    1
    11    11     1    1
    12    12     1    1
    13    13     1    1
    14    14    15    1
    15    15     9    2
    16    16    15    1
    17    17    16    1
    18    18    16    1
    19    19    16    1
    20    20    19    1
    21    21    19    1
    22    22    19    1
    23    23    22    1
    24    24    22    1
    25    25    14    1
    26    26    25    1
    27    27    25    1
    28    28    10    2
    29    29    11    2
    30    30    29    1
    31    31    30    1
    32    32    30    1
    33    33    30    1
    34    34    33    1
    35    35    33    1
    36    36    33    1
    37    37    36    1
    38    38    36    1
    39    39    28    1
    40    40    39    1
    41    41    39    1
    42    42    12    2
    43    43    13    2
    44    44    43    1
    45    45    44    1
    46    46    44    1
    47    47    44    1
    48    48    47    1
    49    49    47    1
    50    50    47    1
    51    51    50    1
    52    52    50    1
    53    53    42    1
    54    54    53    1
    55    55    53    1
    56    56    57   ar
    57    57    58    1
    58    59    57   ar
    59    60    59    1
    60    61    59   ar
    61    62    61   ar
    62    63    62    1
    63    64    56   ar
    64    65    64    1
    65    66    61    1
    66    67    66    1
    67    68    66    2
    68    69    68    1
    69    70    68    1
    70    71    72   ar
    71    72    73    1
    72    74    72   ar
    73    75    74    1
    74    76    74   ar
    75    77    76   ar
    76    78    77    1
    77    79    71   ar
    78    80    79    1
    79    81    76    1
    80    82    81    1
    81    83    81    2
    82    84    83    1
    83    85    83    1
    84    86     2    1
    85    87     3    1
    86     4    86    1
    87     5    87    1
    88     6    86    1
    89     7    87    1
    90    22    25    1
    91    28    29    1
    92    36    39    1
    93    42    43    1
    94    50    53    1
    95    56    86    1
    96    62    64   ar
    97    71    87    1
    98    77    79   ar
@<TRIPOS>SUBSTRUCTURE
     1 RES1        1 GROUP             0 ****  ****    0  
@<TRIPOS>CRYSIN
    9.6794   13.4107   13.8454  114.2450   92.9810   97.4750     2     1
