@<TRIPOS>MOLECULE
CEHZOI01
    87    96     3     0     0
SMALL
USER_CHARGES
****
Generated from the CSD

@<TRIPOS>ATOM
     1 Fe1      7.2285   9.5544  16.8006   Fe        1 RES1   2.0000
     2 N1       5.2820   8.6505  17.1463   N.ar      1 RES1   0.0000
     3 N2       7.1102   9.4324  19.0548   N.3       1 RES1   0.0000
     4 N3       6.2596  11.4566  17.2785   N.ar      1 RES1   0.0000
     5 N4       9.1817  10.2007  17.5025   N.ar      1 RES1   0.0000
     6 N5       8.0519   7.6168  16.1832   N.2       1 RES1   0.0000
     7 N6       7.6885   9.8063  14.7061   N.2       1 RES1   0.0000
     8 N7       9.1279   6.3970  14.6950   N.pl3     1 RES1   0.0000
     9 N8       8.8469   9.1673  12.9488   N.pl3     1 RES1   0.0000
    10 C1       4.3370   8.4993  16.2076   C.ar      1 RES1   0.0000
    11 H1       4.5117   8.7715  15.3350   H         1 RES1   0.0000
    12 C2       3.1037   7.9429  16.5126   C.ar      1 RES1   0.0000
    13 H2       2.4599   7.8459  15.8470   H         1 RES1   0.0000
    14 C3       2.8352   7.5390  17.7820   C.ar      1 RES1   0.0000
    15 H3       2.0232   7.1336  17.9868   H         1 RES1   0.0000
    16 C4       3.7870   7.7375  18.7655   C.ar      1 RES1   0.0000
    17 H4       3.6079   7.5141  19.6509   H         1 RES1   0.0000
    18 C5       5.0167   8.2786  18.4071   C.ar      1 RES1   0.0000
    19 C6       6.1461   8.3992  19.4034   C.3       1 RES1   0.0000
    20 H5       5.7753   8.5972  20.2781   H         1 RES1   0.0000
    21 H6       6.6064   7.5472  19.4631   H         1 RES1   0.0000
    22 C7       6.7680  10.7812  19.5762   C.3       1 RES1   0.0000
    23 H7       7.5731  11.1814  19.9389   H         1 RES1   0.0000
    24 H8       6.1413  10.6747  20.3080   H         1 RES1   0.0000
    25 C8       6.1736  11.7367  18.5799   C.ar      1 RES1   0.0000
    26 C9       5.5700  12.8900  19.0365   C.ar      1 RES1   0.0000
    27 H9       5.5164  13.0671  19.9474   H         1 RES1   0.0000
    28 C10      5.0563  13.7586  18.1383   C.ar      1 RES1   0.0000
    29 H10      4.6474  14.5407  18.4327   H         1 RES1   0.0000
    30 C11      5.1373  13.4917  16.7836   C.ar      1 RES1   0.0000
    31 H11      4.7908  14.0841  16.1563   H         1 RES1   0.0000
    32 C12      5.7419  12.3289  16.3953   C.ar      1 RES1   0.0000
    33 H12      5.7973  12.1323  15.4865   H         1 RES1   0.0000
    34 C13      8.4605   9.0836  19.4994   C.3       1 RES1   0.0000
    35 H13      8.6358   8.1492  19.3095   H         1 RES1   0.0000
    36 H14      8.5340   9.2174  20.4573   H         1 RES1   0.0000
    37 C14      9.4604   9.9334  18.7975   C.ar      1 RES1   0.0000
    38 C15     10.6124  10.4050  19.3970   C.ar      1 RES1   0.0000
    39 H15     10.7842  10.2284  20.2930   H         1 RES1   0.0000
    40 C16     11.4960  11.1375  18.6503   C.ar      1 RES1   0.0000
    41 H16     12.2747  11.4627  19.0407   H         1 RES1   0.0000
    42 C17     11.2377  11.3927  17.3340   C.ar      1 RES1   0.0000
    43 H17     11.8390  11.8802  16.8198   H         1 RES1   0.0000
    44 C18     10.0695  10.9131  16.7836   C.ar      1 RES1   0.0000
    45 H18      9.8886  11.0859  15.8875   H         1 RES1   0.0000
    46 C19      8.2667   6.3781  16.7089   C.2       1 RES1   0.0000
    47 H19      7.9972   6.1007  17.5559   H         1 RES1   0.0000
    48 C20      8.9339   5.6141  15.8150   C.2       1 RES1   0.0000
    49 H20      9.2081   4.7331  15.9302   H         1 RES1   0.0000
    50 C21      8.5710   7.6039  14.9531   C.2       1 RES1   0.0000
    51 C22      8.4159   8.8124  14.1787   C.2       1 RES1   0.0000
    52 C23      7.6789  10.7972  13.7733   C.2       1 RES1   0.0000
    53 H21      7.2450  11.6140  13.8693   H         1 RES1   0.0000
    54 C24      8.3896  10.4222  12.6938   C.2       1 RES1   0.0000
    55 H22      8.5384  10.9229  11.9237   H         1 RES1   0.0000
    56 C25      9.8329   5.8810  13.5024   C.3       1 RES1   0.0000
    57 H23     10.0773   4.9542  13.6517   H         1 RES1   0.0000
    58 H24     10.6505   6.3864  13.3701   H         1 RES1   0.0000
    59 C26      9.6660   8.3951  11.9898   C.3       1 RES1   0.0000
    60 H25     10.4951   8.1261  12.4143   H         1 RES1   0.0000
    61 H26      9.8861   8.9537  11.2282   H         1 RES1   0.0000
    62 C27      8.9807   5.9752  12.2437   C.ar      1 RES1   0.0000
    63 C28      8.2613   4.8943  11.8148   C.ar      1 RES1   0.0000
    64 H27      8.2916   4.1050  12.3055   H         1 RES1   0.0000
    65 C29      7.4737   4.9481  10.6415   C.ar      1 RES1   0.0000
    66 C30      6.7368   3.8444  10.1743   C.ar      1 RES1   0.0000
    67 H28      6.7510   3.0408  10.6415   H         1 RES1   0.0000
    68 C31      5.9999   3.9578   9.0307   C.ar      1 RES1   0.0000
    69 H29      5.5309   3.2179   8.7193   H         1 RES1   0.0000
    70 C32      5.9330   5.1302   8.3310   C.ar      1 RES1   0.0000
    71 H30      5.4073   5.1795   7.5651   H         1 RES1   0.0000
    72 C33      6.6313   6.2319   8.7449   C.ar      1 RES1   0.0000
    73 H31      6.5888   7.0236   8.2584   H         1 RES1   0.0000
    74 C34      7.4268   6.1558   9.9289   C.ar      1 RES1   0.0000
    75 C35      8.1583   7.2461  10.3876   C.ar      1 RES1   0.0000
    76 H32      8.1242   8.0448   9.9118   H         1 RES1   0.0000
    77 C36      8.9291   7.1796  11.5204   C.ar      1 RES1   0.0000
    78 Cl1      2.9626  11.2623  13.3558   Cl        2 RES2   0.0000
    79 O1       2.6499  10.0584  14.0336   O.3       2 RES2  -1.0000
    80 O2       2.5338  11.1337  12.0133   O.2       2 RES2   0.0000
    81 O3       2.2924  12.3304  13.9568   O.2       2 RES2   0.0000
    82 O4       4.3331  11.5015  13.3808   O.2       2 RES2   0.0000
    83 Cl2      9.2984   4.7717  19.9969   Cl        3 RES3   0.0000
    84 O5       8.2092   5.6360  20.0626   O.2       3 RES3   0.0000
    85 O6       9.1605   4.1567  18.7442   O.3       3 RES3  -1.0000
    86 O7      10.4218   5.3993  20.0306   O.2       3 RES3   0.0000
    87 O8       9.2464   3.8180  21.0056   O.2       3 RES3   0.0000
@<TRIPOS>BOND
     1     1     2    1
     2     2    10   ar
     3     3     1    1
     4     4     1    1
     5     5     1    1
     6     6     1    1
     7     7     1    1
     8     8    48    1
     9     9    51    1
    10    10    11    1
    11    12    10   ar
    12    13    12    1
    13    14    12   ar
    14    15    14    1
    15    16    14   ar
    16    17    16    1
    17    18     2   ar
    18    19     3    1
    19    20    19    1
    20    21    19    1
    21    22     3    1
    22    23    22    1
    23    24    22    1
    24    25     4   ar
    25    26    25   ar
    26    27    26    1
    27    28    26   ar
    28    29    28    1
    29    30    28   ar
    30    31    30    1
    31    32     4   ar
    32    33    32    1
    33    34     3    1
    34    35    34    1
    35    36    34    1
    36    37     5   ar
    37    38    37   ar
    38    39    38    1
    39    40    38   ar
    40    41    40    1
    41    42    40   ar
    42    43    42    1
    43    44     5   ar
    44    45    44    1
    45    46     6    1
    46    47    46    1
    47    48    46    2
    48    49    48    1
    49    50     6    2
    50    51     7    2
    51    52     7    1
    52    53    52    1
    53    54     9    1
    54    55    54    1
    55    56     8    1
    56    57    56    1
    57    58    56    1
    58    59     9    1
    59    60    59    1
    60    61    59    1
    61    62    56    1
    62    63    62   ar
    63    64    63    1
    64    65    63   ar
    65    66    65   ar
    66    67    66    1
    67    68    66   ar
    68    69    68    1
    69    70    68   ar
    70    71    70    1
    71    72    70   ar
    72    73    72    1
    73    74    65   ar
    74    75    74   ar
    75    76    75    1
    76    77    59    1
    77     8    50    1
    78    16    18   ar
    79    18    19    1
    80    22    25    1
    81    30    32   ar
    82    34    37    1
    83    42    44   ar
    84    50    51    1
    85    52    54    2
    86    62    77   ar
    87    72    74   ar
    88    75    77   ar
    89    78    79    1
    90    80    78    2
    91    81    78    2
    92    82    78    2
    93    83    84    2
    94    85    83    1
    95    86    83    2
    96    87    83    2
@<TRIPOS>SUBSTRUCTURE
     1 RES1        1 GROUP             0 ****  ****    0  
     2 RES2       78 GROUP             0 ****  ****    0  
     3 RES3       83 GROUP             0 ****  ****    0  
@<TRIPOS>CRYSIN
    9.0494    9.4568   21.6041   82.7880   84.4360   89.2210     2     1
