@<TRIPOS>MOLECULE
CEHZOI
    87    96     3     0     0
SMALL
USER_CHARGES
****
Generated from the CSD

@<TRIPOS>ATOM
     1 C1       2.2091   5.8461   5.2114   C.ar      1 RES1   0.0000
     2 H1       2.4148   6.2007   6.0461   H         1 RES1   0.0000
     3 Fe1      4.9245   6.7330   4.3223   Fe        1 RES1   2.0000
     4 N1       3.1229   5.9182   4.2308   N.ar      1 RES1   0.0000
     5 C2       0.9729   5.2613   5.0182   C.ar      1 RES1   0.0000
     6 H2       0.3654   5.2102   5.7216   H         1 RES1   0.0000
     7 N2       4.8790   6.5626   2.3202   N.3       1 RES1   0.0000
     8 C3       0.6434   4.7535   3.7817   C.ar      1 RES1   0.0000
     9 H3      -0.1759   4.3357   3.6427   H         1 RES1   0.0000
    10 N3       4.0371   8.4701   3.9844   N.ar      1 RES1   0.0000
    11 C4       1.5612   4.8762   2.7448   C.ar      1 RES1   0.0000
    12 H4       1.3498   4.5760   1.8904   H         1 RES1   0.0000
    13 N4       6.7607   7.4247   3.9030   N.ar      1 RES1   0.0000
    14 C5       2.7974   5.4533   3.0009   C.ar      1 RES1   0.0000
    15 N5       5.7120   4.9242   4.7900   N.2       1 RES1   0.0000
    16 C6       3.8729   5.5300   1.9530   C.3       1 RES1   0.0000
    17 H5       4.3076   4.6668   1.8695   H         1 RES1   0.0000
    18 H6       3.4772   5.7522   1.0970   H         1 RES1   0.0000
    19 N6       5.2536   6.9839   6.3193   N.2       1 RES1   0.0000
    20 C7       4.5805   7.9016   1.7064   C.3       1 RES1   0.0000
    21 H7       5.4006   8.2814   1.3524   H         1 RES1   0.0000
    22 H8       3.9635   7.7843   0.9672   H         1 RES1   0.0000
    23 N7       6.4552   6.3477   8.0795   N.pl3     1 RES1   0.0000
    24 C8       3.9863   8.8481   2.7000   C.ar      1 RES1   0.0000
    25 N8       6.6742   3.5817   6.2716   N.pl3     1 RES1   0.0000
    26 C9       3.4113  10.0444   2.3025   C.ar      1 RES1   0.0000
    27 H9       3.4019  10.2893   1.4048   H         1 RES1   0.0000
    28 C10      2.8516  10.8634   3.2596   C.ar      1 RES1   0.0000
    29 H10      2.4928  11.6864   3.0189   H         1 RES1   0.0000
    30 C11      2.8293  10.4513   4.5725   C.ar      1 RES1   0.0000
    31 H11      2.4337  10.9794   5.2275   H         1 RES1   0.0000
    32 C12      3.4057   9.2398   4.8970   C.ar      1 RES1   0.0000
    33 H12      3.3575   8.9432   5.7760   H         1 RES1   0.0000
    34 C13      6.2639   6.1897   1.9070   C.3       1 RES1   0.0000
    35 H13      6.3766   6.3153   0.9526   H         1 RES1   0.0000
    36 H14      6.4413   5.2604   2.1207   H         1 RES1   0.0000
    37 C14      7.1944   7.0861   2.6653   C.ar      1 RES1   0.0000
    38 C15      8.3820   7.5466   2.1459   C.ar      1 RES1   0.0000
    39 H15      8.6398   7.3192   1.2812   H         1 RES1   0.0000
    40 C16      9.1863   8.3517   2.9290   C.ar      1 RES1   0.0000
    41 H16      9.9946   8.6736   2.6002   H         1 RES1   0.0000
    42 C17      8.7731   8.6741   4.2071   C.ar      1 RES1   0.0000
    43 H17      9.3061   9.2001   4.7586   H         1 RES1   0.0000
    44 C18      7.5531   8.1993   4.6535   C.ar      1 RES1   0.0000
    45 H18      7.2713   8.4286   5.5101   H         1 RES1   0.0000
    46 C19      5.2659   7.9885   7.2480   C.2       1 RES1   0.0000
    47 H19      4.8407   8.8105   7.1515   H         1 RES1   0.0000
    48 C20      5.9965   7.6063   8.3400   C.2       1 RES1   0.0000
    49 H20      6.1507   8.1056   9.1089   H         1 RES1   0.0000
    50 C21      6.0061   5.9941   6.8663   C.2       1 RES1   0.0000
    51 C22      6.1924   4.8290   6.0342   C.2       1 RES1   0.0000
    52 C23      5.8870   3.6819   4.2230   C.2       1 RES1   0.0000
    53 H21      5.6356   3.4413   3.3601   H         1 RES1   0.0000
    54 C24      6.4860   2.8658   5.1258   C.2       1 RES1   0.0000
    55 H22      6.7251   1.9777   4.9889   H         1 RES1   0.0000
    56 C25      7.3389   3.0180   7.4801   C.3       1 RES1   0.0000
    57 H23      8.1838   3.4742   7.6162   H         1 RES1   0.0000
    58 H24      7.5321   2.0803   7.3231   H         1 RES1   0.0000
    59 C26      7.2817   5.5585   9.0132   C.3       1 RES1   0.0000
    60 H25      7.5270   6.1070   9.7746   H         1 RES1   0.0000
    61 H26      8.0975   5.2777   8.5688   H         1 RES1   0.0000
    62 C27      6.5187   4.3476   9.4845   C.ar      1 RES1   0.0000
    63 C28      6.5077   3.1429   8.7329   C.ar      1 RES1   0.0000
    64 C29      5.7691   2.0767   9.1677   C.ar      1 RES1   0.0000
    65 H27      5.7795   1.2880   8.6755   H         1 RES1   0.0000
    66 C30      4.9827   2.1445  10.3556   C.ar      1 RES1   0.0000
    67 C31      4.2011   1.0602  10.8103   C.ar      1 RES1   0.0000
    68 H28      4.1903   0.2621  10.3336   H         1 RES1   0.0000
    69 C32      3.4543   1.1852  11.9630   C.ar      1 RES1   0.0000
    70 H29      2.9386   0.4699  12.2576   H         1 RES1   0.0000
    71 C33      3.4684   2.3773  12.6895   C.ar      1 RES1   0.0000
    72 H30      2.9570   2.4485  13.4634   H         1 RES1   0.0000
    73 C34      4.2218   3.4421  12.2808   C.ar      1 RES1   0.0000
    74 H31      4.2270   4.2285  12.7768   H         1 RES1   0.0000
    75 C35      4.9986   3.3433  11.0954   C.ar      1 RES1   0.0000
    76 C36      5.7860   4.4281  10.6370   C.ar      1 RES1   0.0000
    77 H32      5.8047   5.2157  11.1312   H         1 RES1   0.0000
    78 Cl1      0.6960   8.4926   7.9853   Cl        2 RES2   0.0000
    79 O1       0.4028   7.3049   7.2459   O.2       2 RES2   0.0000
    80 O2       0.1980   8.3621   9.3273   O.2       2 RES2   0.0000
    81 O3       0.0561   9.6220   7.3527   O.3       2 RES2  -1.0000
    82 O4       2.1099   8.7252   8.0123   O.2       2 RES2   0.0000
    83 Cl2      7.0242   1.9396   1.1962   Cl        3 RES3   0.0000
    84 O5       6.9500   1.0017   0.1200   O.2       3 RES3   0.0000
    85 O6       8.2621   2.6277   1.1638   O.2       3 RES3   0.0000
    86 O7       5.9346   2.8921   1.0457   O.3       3 RES3  -1.0000
    87 O8       6.8560   1.2644   2.4446   O.2       3 RES3   0.0000
@<TRIPOS>BOND
     1     1     2    1
     2     3     4    1
     3     4     1   ar
     4     5     1   ar
     5     6     5    1
     6     7     3    1
     7     8     5   ar
     8     9     8    1
     9    10     3    1
    10    11     8   ar
    11    12    11    1
    12    13     3    1
    13    14     4   ar
    14    15     3    1
    15    16     7    1
    16    17    16    1
    17    18    16    1
    18    19     3    1
    19    20     7    1
    20    21    20    1
    21    22    20    1
    22    23    48    1
    23    24    10   ar
    24    25    51    1
    25    26    24   ar
    26    27    26    1
    27    28    26   ar
    28    29    28    1
    29    30    28   ar
    30    31    30    1
    31    32    10   ar
    32    33    32    1
    33    34     7    1
    34    35    34    1
    35    36    34    1
    36    37    13   ar
    37    38    37   ar
    38    39    38    1
    39    40    38   ar
    40    41    40    1
    41    42    40   ar
    42    43    42    1
    43    44    13   ar
    44    45    44    1
    45    46    19    1
    46    47    46    1
    47    48    46    2
    48    49    48    1
    49    50    19    2
    50    51    15    2
    51    52    15    1
    52    53    52    1
    53    54    25    1
    54    55    54    1
    55    56    25    1
    56    57    56    1
    57    58    56    1
    58    59    23    1
    59    60    59    1
    60    61    59    1
    61    62    59    1
    62    63    56    1
    63    64    63   ar
    64    65    64    1
    65    66    64   ar
    66    67    66   ar
    67    68    67    1
    68    69    67   ar
    69    70    69    1
    70    71    69   ar
    71    72    71    1
    72    73    71   ar
    73    74    73    1
    74    75    66   ar
    75    76    62   ar
    76    77    76    1
    77    11    14   ar
    78    14    16    1
    79    20    24    1
    80    23    50    1
    81    30    32   ar
    82    34    37    1
    83    42    44   ar
    84    50    51    1
    85    52    54    2
    86    62    63   ar
    87    73    75   ar
    88    75    76   ar
    89    78    79    2
    90    80    78    2
    91    81    78    1
    92    82    78    2
    93    83    84    2
    94    85    83    2
    95    86    83    1
    96    87    83    2
@<TRIPOS>SUBSTRUCTURE
     1 RES1        1 GROUP             0 ****  ****    0  
     2 RES2       78 GROUP             0 ****  ****    0  
     3 RES3       83 GROUP             0 ****  ****    0  
@<TRIPOS>CRYSIN
    8.9004    9.2921   21.2237   96.8670   96.3740   90.8100     2     1
