@<TRIPOS>MOLECULE
CEMKOY
    40    36    10     0     0
SMALL
USER_CHARGES
****
Generated from the CSD

@<TRIPOS>ATOM
     1 Na1      3.9917  -2.4257   1.6717   Na        1 RES1   1.0000
     2 Fe1      2.5863   2.8917   2.0259   Fe        2 RES2   0.0000
     3 C1       2.7197   0.9467   1.8866   C.1       2 RES2  -1.0000
     4 C2       1.4421   2.9648   0.4518   C.1       2 RES2  -1.0000
     5 C3       3.6339   2.8320   3.6498   C.1       2 RES2   0.0000
     6 C4       4.1702   3.0378   0.9015   C.1       2 RES2  -1.0000
     7 C5       1.0074   2.7019   3.1304   C.1       2 RES2   0.0000
     8 C6       2.4573   4.8275   2.2408   C.1       2 RES2   0.0000
     9 N1       2.8456  -0.1938   1.7971   N.1       2 RES2   0.0000
    10 N2       0.7572   3.0099  -0.4697   N.1       2 RES2   0.0000
    11 N3       4.2222   2.7882   4.6449   N.1       2 RES2   0.0000
    12 N4       5.1115   3.0537   0.2149   N.1       2 RES2   0.0000
    13 N5       0.0770   2.5930   3.7911   N.1       2 RES2   0.0000
    14 N6       2.3860   5.9600   2.3961   N.1       2 RES2   0.0000
    15 C7       7.4419  -1.8428   2.5692   C.3       3 RES3   0.0000
    16 C8       8.4858  -0.3731   4.2488   C.3       3 RES3   0.0000
    17 C9       8.7272   0.1514   1.8189   C.3       3 RES3   0.0000
    18 C10      6.3716   0.0505   1.6160   C.3       3 RES3   0.0000
    19 C11      6.1306  -0.4288   3.9643   C.3       3 RES3   0.0000
    20 C12      7.3753   1.4963   3.2498   C.3       3 RES3   0.0000
    21 N7       6.2511  -1.0383   2.6130   N.3       3 RES3   1.0000
    22 N8       8.6617  -0.9785   2.8538   N.3       3 RES3   0.0000
    23 N9       7.2898   0.4275   4.2787   N.3       3 RES3   0.0000
    24 N10      7.5178   0.9254   1.8926   N.3       3 RES3   0.0000
    25 Na2      2.4775   8.2729   3.2021   Na        4 RES4   1.0000
    26 O1       2.0330  -3.6830   1.2140   O.3       5 RES5   0.0000
    27 O2       3.1291  -2.8068   4.2369   O.3       6 RES6   0.0000
    28 O3       4.7046  -4.4943   2.6687   O.3       7 RES7   0.0000
    29 O4       0.2907  -4.4252   3.6797   O.3       8 RES8   0.0000
    30 C13      8.0988   4.4890   2.0140   C.3       9 RES9   0.0000
    31 C14      8.9399   6.1048   3.5881   C.3       9 RES9   0.0000
    32 C15      6.5946   5.9800   3.1125   C.3       9 RES9   0.0000
    33 C16      7.0473   6.2296   0.7642   C.3       9 RES9   0.0000
    34 C17      9.3857   6.3530   1.2458   C.3       9 RES9   0.0000
    35 C18      7.8775   7.8361   2.3403   C.3       9 RES9   0.0000
    36 N11      7.8149   5.1754   3.2896   N.3       9 RES9   0.0000
    37 N12      8.2841   5.4476   0.8995   N.3       9 RES9   0.0000
    38 N13      6.7312   6.9598   2.0140   N.3       9 RES9   0.0000
    39 N14      9.1327   7.0793   2.4996   N.3       9 RES9   0.0000
    40 O5      11.2568  -1.6251   3.2618   O.3      10 RES10   0.0000
@<TRIPOS>BOND
     1     2     3    1
     2     3     9    3
     3     4     2    1
     4     5     2    1
     5     6     2    1
     6     7     2    1
     7     8     2    1
     8    10     4    3
     9    11     5    3
    10    12     6    3
    11    13     7    3
    12    14     8    3
    13    15    21    1
    14    16    22    1
    15    17    22    1
    16    18    21    1
    17    19    21    1
    18    20    23    1
    19    22    15    1
    20    23    16    1
    21    24    17    1
    22    18    24    1
    23    19    23    1
    24    20    24    1
    25    30    36    1
    26    31    36    1
    27    32    36    1
    28    33    37    1
    29    34    37    1
    30    35    38    1
    31    37    30    1
    32    38    32    1
    33    39    31    1
    34    33    38    1
    35    34    39    1
    36    35    39    1
@<TRIPOS>SUBSTRUCTURE
     1 RES1        1 GROUP             0 ****  ****    0  
     2 RES2        2 GROUP             0 ****  ****    0  
     3 RES3       15 GROUP             0 ****  ****    0  
     4 RES4       25 GROUP             0 ****  ****    0  
     5 RES5       26 GROUP             0 ****  ****    0  
     6 RES6       27 GROUP             0 ****  ****    0  
     7 RES7       28 GROUP             0 ****  ****    0  
     8 RES8       29 GROUP             0 ****  ****    0  
     9 RES9       30 GROUP             0 ****  ****    0  
    10 RES10      40 GROUP             0 ****  ****    0  
@<TRIPOS>CRYSIN
   10.7520   13.2770   19.9730   90.0000   94.8700   90.0000    14     1
