@<TRIPOS>MOLECULE
CEPIFE
    64    67     2     0     0
SMALL
USER_CHARGES
****
Generated from the CSD

@<TRIPOS>ATOM
     1 Fe1      2.0091   0.3068   4.1161   Fe        1 RES1   1.0000
     2 Cl1      0.2242   0.5316   2.6423   Cl        1 RES1   0.0000
     3 P1       0.5222   0.0501   5.7660   P.3       1 RES1   0.0000
     4 P2       3.3424   0.4405   2.3281   P.3       1 RES1   0.0000
     5 P3       2.2281   2.5077   4.5212   P.3       1 RES1   0.0000
     6 O1       1.2046  -0.1033   7.1840   O.3       1 RES1   0.0000
     7 O2      -0.5015   1.2652   5.9334   O.3       1 RES1   0.0000
     8 O3       4.8749   0.5028   2.8067   O.3       1 RES1   0.0000
     9 O4       3.0016   1.6875   1.4591   O.3       1 RES1   0.0000
    10 O5       1.2524   3.5800   3.8195   O.3       1 RES1   0.0000
    11 O6       2.1088   2.7674   6.0890   O.3       1 RES1   0.0000
    12 N1       4.2748  -0.1883   5.9422   N.1       1 RES1   0.0000
    13 N2       1.8419  -2.6034   3.5406   N.1       1 RES1   0.0000
    14 C1      -0.5153  -1.4111   5.6427   C.ar      1 RES1   0.0000
    15 C2      -1.5761  -1.4399   4.7414   C.ar      1 RES1   0.0000
    16 C3      -2.3144  -2.6459   4.6269   C.ar      1 RES1   0.0000
    17 C4      -1.9078  -3.7821   5.3609   C.ar      1 RES1   0.0000
    18 C5      -0.9267  -3.7851   6.2387   C.ar      1 RES1   0.0000
    19 C6      -0.1545  -2.5305   6.4207   C.ar      1 RES1   0.0000
    20 C7       0.7095   0.0258   8.5257   C.3       1 RES1   0.0000
    21 C8       1.7256  -0.2339   9.4769   C.3       1 RES1   0.0000
    22 C9      -1.6942   1.2303   6.7848   C.3       1 RES1   0.0000
    23 C10     -2.7091   1.9837   6.0655   C.3       1 RES1   0.0000
    24 C11      3.3807  -0.9508   1.1127   C.ar      1 RES1   0.0000
    25 C12      4.4116  -1.9001   1.3006   C.ar      1 RES1   0.0000
    26 C13      4.2974  -3.1107   0.4316   C.ar      1 RES1   0.0000
    27 C14      3.2351  -3.2520  -0.4345   C.ar      1 RES1   0.0000
    28 C15      2.3037  -2.2890  -0.5549   C.ar      1 RES1   0.0000
    29 C16      2.2018  -1.0739   0.3376   C.ar      1 RES1   0.0000
    30 C17      6.0101   0.8779   1.9788   C.3       1 RES1   0.0000
    31 C18      7.2754   0.3311   2.8214   C.3       1 RES1   0.0000
    32 C19      3.4897   2.0520   0.1028   C.3       1 RES1   0.0000
    33 C20      2.2169   2.6383  -0.5842   C.3       1 RES1   0.0000
    34 C21      3.7257   3.3203   4.0779   C.ar      1 RES1   0.0000
    35 C22      4.9039   3.0879   4.9205   C.ar      1 RES1   0.0000
    36 C23      6.1068   3.7456   4.6093   C.ar      1 RES1   0.0000
    37 C24      6.1324   4.5916   3.4702   C.ar      1 RES1   0.0000
    38 C25      4.9865   4.7967   2.6158   C.ar      1 RES1   0.0000
    39 C26      3.8634   4.1876   2.9447   C.ar      1 RES1   0.0000
    40 C27     -0.1749   3.6241   3.9135   C.3       1 RES1   0.0000
    41 C28     -0.5763   4.6797   2.9094   C.3       1 RES1   0.0000
    42 C29      2.0440   4.1375   6.7260   C.3       1 RES1   0.0000
    43 C30      2.2542   3.7957   8.2556   C.3       1 RES1   0.0000
    44 C31      3.3257   0.0820   5.2053   C.1       1 RES1   0.0000
    45 C32      5.4024  -0.3326   6.8435   C.ar      1 RES1   0.0000
    46 C33      5.4117   0.3175   8.0619   C.ar      1 RES1   0.0000
    47 C34      6.4441   0.0547   8.9397   C.ar      1 RES1   0.0000
    48 C35      7.4900  -0.7260   8.4641   C.ar      1 RES1   0.0000
    49 C36      7.4335  -1.3746   7.3073   C.ar      1 RES1   0.0000
    50 C37      6.3679  -1.2014   6.4119   C.ar      1 RES1   0.0000
    51 C38      8.7305  -0.8081   9.5239   C.3       1 RES1   0.0000
    52 C39      1.9136  -1.3944   3.7667   C.1       1 RES1   0.0000
    53 C40      1.6927  -3.9370   3.0738   C.ar      1 RES1   0.0000
    54 C41      2.8900  -4.6129   2.9593   C.ar      1 RES1   0.0000
    55 C42      2.6967  -6.0027   2.3722   C.ar      1 RES1   0.0000
    56 C43      1.4673  -6.4887   1.9934   C.ar      1 RES1   0.0000
    57 C44      0.3063  -5.7399   2.0551   C.ar      1 RES1   0.0000
    58 C45      0.3690  -4.3957   2.5924   C.ar      1 RES1   0.0000
    59 C46      1.4142  -7.9469   1.3387   C.3       1 RES1   0.0000
    60 Cl2     -4.9878  -5.0959   3.1502   Cl        2 RES2   0.0000
    61 O7      -3.6065  -5.6442   2.6452   O.2       2 RES2   0.0000
    62 O8      -5.1341  -3.6454   2.7538   O.2       2 RES2   0.0000
    63 O9      -5.1031  -4.9471   4.5564   O.2       2 RES2   0.0000
    64 O10     -5.8872  -5.9146   2.4544   O.3       2 RES2  -1.0000
@<TRIPOS>BOND
     1     1     2    1
     2     3     1    1
     3     4     1    1
     4     5     1    1
     5     6     3    1
     6     7     3    1
     7     8     4    1
     8     9     4    1
     9    10     5    1
    10    11     5    1
    11    12    44    3
    12    13    52    3
    13    14     3    1
    14    15    14   ar
    15    16    15   ar
    16    17    16   ar
    17    18    17   ar
    18    19    14   ar
    19    20     6    1
    20    21    20    1
    21    22     7    1
    22    23    22    1
    23    24     4    1
    24    25    24   ar
    25    26    25   ar
    26    27    26   ar
    27    28    27   ar
    28    29    24   ar
    29    30     8    1
    30    31    30    1
    31    32     9    1
    32    33    32    1
    33    34     5    1
    34    35    34   ar
    35    36    35   ar
    36    37    36   ar
    37    38    37   ar
    38    39    34   ar
    39    40    10    1
    40    41    40    1
    41    42    11    1
    42    43    42    1
    43    44     1    1
    44    45    12    1
    45    46    45   ar
    46    47    46   ar
    47    48    47   ar
    48    49    48   ar
    49    50    45   ar
    50    51    48    1
    51    52     1    1
    52    53    13    1
    53    54    53   ar
    54    55    54   ar
    55    56    55   ar
    56    57    56   ar
    57    58    53   ar
    58    59    56    1
    59    18    19   ar
    60    28    29   ar
    61    38    39   ar
    62    49    50   ar
    63    57    58   ar
    64    60    61    2
    65    62    60    2
    66    63    60    2
    67    64    60    1
@<TRIPOS>SUBSTRUCTURE
     1 RES1        1 GROUP             0 ****  ****    0  
     2 RES2       60 GROUP             0 ****  ****    0  
@<TRIPOS>CRYSIN
   11.9260   15.1890   29.3600   90.0000   90.5700   90.0000   231     1
