@<TRIPOS>MOLECULE
CEPPOG
   125   133     2     0     0
SMALL
USER_CHARGES
****
Generated from the CSD

@<TRIPOS>ATOM
     1 Fe1      5.8951   2.4937   7.7058   Fe        1 RES1   2.0000
     2 S1       2.9425  -1.0692   8.8344   S.3       1 RES1   0.0000
     3 S2       9.4824  -0.2404   6.1619   S.3       1 RES1   0.0000
     4 O1       4.9301   3.8165   9.0690   O.2       1 RES1   0.0000
     5 O2       6.6122   4.1163   6.4939   O.2       1 RES1   0.0000
     6 N1       4.6253   2.4917   6.0565   N.ar      1 RES1   0.0000
     7 N2       7.1902   2.5581   9.3381   N.ar      1 RES1   0.0000
     8 N3       4.4734   0.8432   8.1432   N.2       1 RES1   0.0000
     9 N4       7.5907   1.1715   7.1133   N.2       1 RES1   0.0000
    10 N5       5.0190   4.7695  11.0981   N.am      1 RES1   0.0000
    11 H1       4.2619   5.1969  10.9645   H         1 RES1   0.0000
    12 H2       5.4513   4.8665  11.8585   H         1 RES1   0.0000
    13 O3       1.8697   0.6487   4.7460   O.3       1 RES1  -1.0000
    14 O4       4.2416   4.4332   3.0634   O.3       1 RES1   0.0000
    15 O5       2.1326   2.5947   2.7995   O.3       1 RES1   0.0000
    16 C1       5.5078   3.9824  10.1575   C.2       1 RES1   0.0000
    17 N6       6.3581   5.2157   4.5474   N.am      1 RES1   0.0000
    18 H3       7.0445   5.7390   4.7172   H         1 RES1   0.0000
    19 H4       5.9064   5.3112   3.7979   H         1 RES1   0.0000
    20 C2       6.7926   3.2697  10.4075   C.ar      1 RES1   0.0000
    21 C3       3.5679   0.6601   7.0997   C.2       1 RES1   0.0000
    22 C4       8.5796   1.1223   8.0924   C.2       1 RES1   0.0000
    23 C5       4.8367   3.4104   5.0990   C.ar      1 RES1   0.0000
    24 C6       3.6715   1.5639   5.9615   C.ar      1 RES1   0.0000
    25 C7       6.0023   4.2879   5.4190   C.2       1 RES1   0.0000
    26 C8       8.3147   1.8419   9.3301   C.ar      1 RES1   0.0000
    27 C9       7.5540   3.2456  11.5765   C.ar      1 RES1   0.0000
    28 C10      2.7890   1.4998   4.8366   C.ar      1 RES1   0.0000
    29 C11      9.6762   0.3844   7.7317   C.2       1 RES1   0.0000
    30 H5      10.4378   0.2421   8.2813   H         1 RES1   0.0000
    31 C12      9.1579   1.7515  10.4757   C.ar      1 RES1   0.0000
    32 C13      4.0200   3.4401   3.9645   C.ar      1 RES1   0.0000
    33 C14      4.2614   0.0114   9.1223   C.2       1 RES1   0.0000
    34 C15      3.0116   2.4952   3.8418   C.ar      1 RES1   0.0000
    35 C16      7.9184   0.4999   6.0494   C.2       1 RES1   0.0000
    36 C17      2.6717  -0.3512   7.3121   C.2       1 RES1   0.0000
    37 H6       1.9946  -0.6150   6.6995   H         1 RES1   0.0000
    38 C18      8.7120   2.4826  11.6219   C.ar      1 RES1   0.0000
    39 C19      7.0623   0.3055   4.8579   C.3       1 RES1   0.0000
    40 H7       6.1343   0.5613   5.0904   H         1 RES1   0.0000
    41 H8       7.0577  -0.6566   4.6258   H         1 RES1   0.0000
    42 C20      7.4804   1.0788   3.6624   C.3       1 RES1   0.0000
    43 H9       8.3909   0.8040   3.3878   H         1 RES1   0.0000
    44 H10      7.5004   2.0447   3.8785   H         1 RES1   0.0000
    45 C21      2.0716   1.4655   1.9576   C.3       1 RES1   0.0000
    46 H11      2.8732   1.4338   1.3954   H         1 RES1   0.0000
    47 H12      1.2755   1.5251   1.3886   H         1 RES1   0.0000
    48 H13      2.0225   0.6535   2.5037   H         1 RES1   0.0000
    49 C22      6.4803   0.8214   2.5002   C.3       1 RES1   0.0000
    50 H14      6.4783  -0.1434   2.2770   H         1 RES1   0.0000
    51 H15      5.5678   1.0697   2.7909   H         1 RES1   0.0000
    52 C23      3.9271   4.4286   1.7911   C.3       1 RES1   0.0000
    53 H16      4.7419   4.3476   1.2531   H         1 RES1   0.0000
    54 H17      3.4683   5.2648   1.5655   H         1 RES1   0.0000
    55 H18      3.3349   3.6705   1.6037   H         1 RES1   0.0000
    56 C24      6.8287   1.5811   1.3225   C.3       1 RES1   0.0000
    57 H19      6.1841   1.3929   0.6101   H         1 RES1   0.0000
    58 H20      7.7280   1.3284   1.0260   H         1 RES1   0.0000
    59 H21      6.8119   2.5375   1.5357   H         1 RES1   0.0000
    60 O6       7.0507   3.9149  12.6660   O.3       1 RES1   0.0000
    61 O7       9.3765   2.3201  12.8035   O.3       1 RES1   0.0000
    62 C25      7.8667   4.4904  13.6130   C.3       1 RES1   0.0000
    63 H22      8.5499   5.0344  13.1681   H         1 RES1   0.0000
    64 H23      8.3011   3.7881  14.1407   H         1 RES1   0.0000
    65 H24      7.3306   5.0590  14.2042   H         1 RES1   0.0000
    66 C26     10.7009   2.8029  12.7906   C.3       1 RES1   0.0000
    67 H25     11.2067   2.3487  12.0843   H         1 RES1   0.0000
    68 H26     11.1211   2.6282  13.6577   H         1 RES1   0.0000
    69 H27     10.6946   3.7678  12.6182   H         1 RES1   0.0000
    70 C27      5.0208  -0.0458  10.4017   C.3       1 RES1   0.0000
    71 H28      5.4004  -0.9554  10.4973   H         1 RES1   0.0000
    72 H29      5.7803   0.5864  10.3403   H         1 RES1   0.0000
    73 C28      4.2640   0.2631  11.6098   C.3       1 RES1   0.0000
    74 H30      3.3820  -0.1791  11.5317   H         1 RES1   0.0000
    75 H31      4.0988   1.2397  11.6173   H         1 RES1   0.0000
    76 C29      4.8481  -0.1133  12.9601   C.3       1 RES1   0.0000
    77 H32      4.2059   0.1527  13.6665   H         1 RES1   0.0000
    78 H33      4.9425  -1.0976  12.9998   H         1 RES1   0.0000
    79 C30      6.0624   0.4519  13.2437   C.3       1 RES1   0.0000
    80 H34      6.7221   0.1547  12.5831   H         1 RES1   0.0000
    81 H35      6.3498   0.1772  14.1393   H         1 RES1   0.0000
    82 H36      5.9838   1.4282  13.2108   H         1 RES1   0.0000
    83 O8      10.1875   1.0125  10.5093   O.3       1 RES1  -1.0000
    84 S3       7.7160   9.2792   8.6149   S.3       2 RES2   0.0000
    85 O9       5.9290   7.1319  12.8331   O.3       2 RES2   0.0000
    86 H37      5.8468   7.2767  12.0098   H         2 RES2   0.0000
    87 O10     10.6265  10.0904  15.9529   O.2       2 RES2   0.0000
    88 O11      6.3857   7.0301  15.4572   O.3       2 RES2   0.0000
    89 N7       8.7494   9.4292  13.0498   N.ar      2 RES2   0.0000
    90 N8       6.5741   8.0243  10.4973   N.2       2 RES2   0.0000
    91 O12      8.3320   8.6375  16.5923   O.3       2 RES2   0.0000
    92 C31      7.7722   8.6867  12.5202   C.ar      2 RES2   0.0000
    93 C32      7.5990   8.7519  11.0740   C.2       2 RES2   0.0000
    94 C33     10.1360  10.2472  14.8440   C.2       2 RES2   0.0000
    95 C34      8.9697   9.4143  14.3643   C.ar      2 RES2   0.0000
    96 C35      8.3219   9.4887  10.1862   C.2       2 RES2   0.0000
    97 H38      9.0616  10.0401  10.4134   H         2 RES2   0.0000
    98 C36      6.5128   8.1948   9.2043   C.2       2 RES2   0.0000
    99 C37      6.9427   7.8767  13.3233   C.ar      2 RES2   0.0000
   100 N9      10.5880  11.1315  13.9734   N.am      2 RES2   0.0000
   101 H39     11.2731  11.6425  14.1813   H         2 RES2   0.0000
   102 H40     10.2034  11.2092  13.1857   H         2 RES2   0.0000
   103 C38      5.5092   7.5415   8.3171   C.3       2 RES2   0.0000
   104 H41      4.6332   7.5421   8.7780   H         2 RES2   0.0000
   105 H42      5.7752   6.5980   8.1816   H         2 RES2   0.0000
   106 C39      7.1473   7.8687  14.6982   C.ar      2 RES2   0.0000
   107 C40      8.1762   8.6432  15.2281   C.ar      2 RES2   0.0000
   108 C41      5.3412   8.1948   6.9604   C.3       2 RES2   0.0000
   109 H43      5.2315   9.1710   7.0840   H         2 RES2   0.0000
   110 H44      6.1617   8.0473   6.4275   H         2 RES2   0.0000
   111 C42      4.1551   7.6616   6.1937   C.3       2 RES2   0.0000
   112 H45      4.2523   6.6822   6.0832   H         2 RES2   0.0000
   113 H46      3.3290   7.8280   6.7136   H         2 RES2   0.0000
   114 C43      9.1223   7.5381  17.0417   C.3       2 RES2   0.0000
   115 H47      8.8847   6.7355  16.5319   H         2 RES2   0.0000
   116 H48      8.9530   7.3824  17.9941   H         2 RES2   0.0000
   117 H49     10.0712   7.7418  16.9071   H         2 RES2   0.0000
   118 C44      5.4554   7.6262  16.3389   C.3       2 RES2   0.0000
   119 H50      4.9875   8.3535  15.8782   H         2 RES2   0.0000
   120 H51      5.9284   7.9857  17.1193   H         2 RES2   0.0000
   121 H52      4.8059   6.9540  16.6328   H         2 RES2   0.0000
   122 C45      4.0234   8.3023   4.8369   C.3       2 RES2   0.0000
   123 H53      4.7950   8.0574   4.2832   H         2 RES2   0.0000
   124 H54      3.9911   9.2770   4.9369   H         2 RES2   0.0000
   125 H55      3.2008   7.9909   4.4054   H         2 RES2   0.0000
@<TRIPOS>BOND
     1     1     4    1
     2     2    33    1
     3     3    29    1
     4     4    16    2
     5     5     1    1
     6     6     1    1
     7     7     1    1
     8     8     1    1
     9     9     1    1
    10    10    11    1
    11    12    10    1
    12    13    28    1
    13    14    32    1
    14    15    34    1
    15    16    10   am
    16    17    18    1
    17    19    17    1
    18    20     7   ar
    19    21     8    1
    20    22     9    1
    21    23     6   ar
    22    24     6   ar
    23    25     5    2
    24    26     7   ar
    25    27    20   ar
    26    28    24   ar
    27    29    22    2
    28    30    29    1
    29    31    26   ar
    30    32    23   ar
    31    33     8    2
    32    34    28   ar
    33    35     3    1
    34    36     2    1
    35    37    36    1
    36    38    27   ar
    37    39    35    1
    38    40    39    1
    39    41    39    1
    40    42    39    1
    41    43    42    1
    42    44    42    1
    43    45    15    1
    44    46    45    1
    45    47    45    1
    46    48    45    1
    47    49    42    1
    48    50    49    1
    49    51    49    1
    50    52    14    1
    51    53    52    1
    52    54    52    1
    53    55    52    1
    54    56    49    1
    55    57    56    1
    56    58    56    1
    57    59    56    1
    58    60    27    1
    59    61    38    1
    60    62    60    1
    61    63    62    1
    62    64    62    1
    63    65    62    1
    64    66    61    1
    65    67    66    1
    66    68    66    1
    67    69    66    1
    68    70    33    1
    69    71    70    1
    70    72    70    1
    71    73    70    1
    72    74    73    1
    73    75    73    1
    74    76    73    1
    75    77    76    1
    76    78    76    1
    77    79    76    1
    78    80    79    1
    79    81    79    1
    80    82    79    1
    81    83    31    1
    82     9    35    2
    83    16    20    1
    84    17    25   am
    85    21    24    1
    86    21    36    2
    87    22    26    1
    88    23    25    1
    89    31    38   ar
    90    32    34   ar
    91    84    96    1
    92    85    86    1
    93    87    94    2
    94    88   106    1
    95    89    92   ar
    96    90    93    1
    97    91   107    1
    98    92    93    1
    99    93    96    2
   100    94    95    1
   101    95    89   ar
   102    96    97    1
   103    98    84    1
   104    99    85    1
   105   100    94   am
   106   101   100    1
   107   102   100    1
   108   103    98    1
   109   104   103    1
   110   105   103    1
   111   106    99   ar
   112   107    95   ar
   113   108   103    1
   114   109   108    1
   115   110   108    1
   116   111   108    1
   117   112   111    1
   118   113   111    1
   119   114    91    1
   120   115   114    1
   121   116   114    1
   122   117   114    1
   123   118    88    1
   124   119   118    1
   125   120   118    1
   126   121   118    1
   127   122   111    1
   128   123   122    1
   129   124   122    1
   130   125   122    1
   131    90    98    2
   132    92    99   ar
   133   106   107   ar
@<TRIPOS>SUBSTRUCTURE
     1 RES1        1 GROUP             0 ****  ****    0  
     2 RES2       84 GROUP             0 ****  ****    0  
@<TRIPOS>CRYSIN
   13.9797   11.4404   31.1508   90.0000   98.2550   90.0000   231     1
