@<TRIPOS>MOLECULE
CEPZOM
   157   174     3     0     0
SMALL
USER_CHARGES
****
Generated from the CSD

@<TRIPOS>ATOM
     1 Fe1      3.4012  10.5807   4.3410   Fe        1 RES1   2.0000
     2 N1       5.2537  11.7326   5.0536   N.ar      1 RES1   0.0000
     3 C1       6.4873  11.8203   4.5373   C.ar      1 RES1   0.0000
     4 C2       6.9409  10.8771   3.4866   C.3       1 RES1   0.0000
     5 C3       7.3895  12.8328   4.9918   C.ar      1 RES1   0.0000
     6 C4       6.9970  13.7144   5.9589   C.ar      1 RES1   0.0000
     7 C5       5.7306  13.6221   6.5115   C.ar      1 RES1   0.0000
     8 C6       5.2653  14.5238   7.5186   C.ar      1 RES1   0.0000
     9 C7       4.8801  12.5881   6.0498   C.ar      1 RES1   0.0000
    10 N2       2.8205  11.4233   6.2243   N.ar      1 RES1   0.0000
    11 C8       1.6355  11.2494   6.8169   C.ar      1 RES1   0.0000
    12 C9       1.1630  12.0573   7.8386   C.ar      1 RES1   0.0000
    13 C10      1.9462  13.0959   8.2494   C.ar      1 RES1   0.0000
    14 C11      3.1852  13.3036   7.6822   C.ar      1 RES1   0.0000
    15 C12      4.0339  14.3591   8.0603   C.ar      1 RES1   0.0000
    16 C13      3.6101  12.4219   6.6497   C.ar      1 RES1   0.0000
    17 N3       1.6386   9.2245   4.0574   N.ar      1 RES1   0.0000
    18 C14      0.5299   9.4276   3.3448   C.ar      1 RES1   0.0000
    19 C15      0.4045  10.6001   2.4432   C.3       1 RES1   0.0000
    20 C16     -0.5430   8.4829   3.4357   C.ar      1 RES1   0.0000
    21 C17     -0.4157   7.3150   4.2138   C.ar      1 RES1   0.0000
    22 C18      0.7937   7.0765   4.9373   C.ar      1 RES1   0.0000
    23 C19      0.9719   5.9517   5.6971   C.ar      1 RES1   0.0000
    24 C20      1.8068   8.0643   4.8500   C.ar      1 RES1   0.0000
    25 N4       3.9863   8.7891   5.4135   N.ar      1 RES1   0.0000
    26 C21      5.1595   8.5967   6.0680   C.ar      1 RES1   0.0000
    27 C22      5.4237   7.4858   6.7660   C.ar      1 RES1   0.0000
    28 C23      4.4425   6.5333   6.8860   C.ar      1 RES1   0.0000
    29 C24      3.2288   6.6687   6.2861   C.ar      1 RES1   0.0000
    30 C25      2.1863   5.7394   6.3479   C.ar      1 RES1   0.0000
    31 C26      3.0432   7.8905   5.5263   C.ar      1 RES1   0.0000
    32 N5       4.0549  10.4878   2.2396   N.ar      1 RES1   0.0000
    33 C27      4.6420   9.4784   1.5924   C.ar      1 RES1   0.0000
    34 C28      4.6993   8.1536   2.2250   C.3       1 RES1   0.0000
    35 C29      5.2252   9.7046   0.3090   C.ar      1 RES1   0.0000
    36 C30      5.1570  10.9679  -0.3090   C.ar      1 RES1   0.0000
    37 C31      4.5121  12.0403   0.3454   C.ar      1 RES1   0.0000
    38 C32      4.3674  13.2651  -0.2327   C.ar      1 RES1   0.0000
    39 C33      3.9432  11.7664   1.6397   C.ar      1 RES1   0.0000
    40 N6       2.7573  12.4942   3.4794   N.ar      1 RES1   0.0000
    41 C34      1.9746  13.4636   4.1083   C.ar      1 RES1   0.0000
    42 C35      1.7114  14.6577   3.5557   C.ar      1 RES1   0.0000
    43 C36      2.2678  14.9392   2.2941   C.ar      1 RES1   0.0000
    44 C37      3.0369  14.0345   1.6579   C.ar      1 RES1   0.0000
    45 C38      3.6049  14.2376   0.4326   C.ar      1 RES1   0.0000
    46 C39      3.2413  12.7635   2.3196   C.ar      1 RES1   0.0000
    47 H1       8.2919  12.9112   4.6246   H         1 RES1   0.0000
    48 H2       7.6131  14.4130   6.2388   H         1 RES1   0.0000
    49 H3       5.8434  15.2577   7.8131   H         1 RES1   0.0000
    50 H4       3.7043  15.0116   8.7402   H         1 RES1   0.0000
    51 H5       1.5681  13.6837   8.9402   H         1 RES1   0.0000
    52 H6       0.2888  11.8911   8.2385   H         1 RES1   0.0000
    53 H7       1.0535  10.5078   6.5152   H         1 RES1   0.0000
    54 H8      -1.3809   8.5582   3.0358   H         1 RES1   0.0000
    55 H9      -1.1262   6.6503   4.2574   H         1 RES1   0.0000
    56 H10      0.2928   5.2485   5.7844   H         1 RES1   0.0000
    57 H11      2.3118   4.9208   6.8351   H         1 RES1   0.0000
    58 H12      4.5684   5.7117   7.4423   H         1 RES1   0.0000
    59 H13      6.2776   7.2888   7.1659   H         1 RES1   0.0000
    60 H14      5.8557   9.3014   6.0534   H         1 RES1   0.0000
    61 H15      5.6706   8.9845  -0.1636   H         1 RES1   0.0000
    62 H16      5.5606  11.0833  -1.1489   H         1 RES1   0.0000
    63 H17      4.7941  13.4806  -1.0943   H         1 RES1   0.0000
    64 H18      3.4638  15.0962   0.0145   H         1 RES1   0.0000
    65 H19      2.0778  15.7655   1.8578   H         1 RES1   0.0000
    66 H20      1.1619  15.3393   4.0320   H         1 RES1   0.0000
    67 H21      1.5953  13.2621   5.0063   H         1 RES1   0.0000
    68 B1       6.9295  11.3495  16.9605   B         2 RES2  -1.0000
    69 C40      6.9872  12.8712  17.6149   C.ar      2 RES2   0.0000
    70 C41      7.8075  13.9037  17.1568   C.ar      2 RES2   0.0000
    71 C42      7.8177  15.1670  17.7204   C.ar      2 RES2   0.0000
    72 C43      6.9878  15.4855  18.7493   C.ar      2 RES2   0.0000
    73 C44      6.1432  14.5161  19.2292   C.ar      2 RES2   0.0000
    74 C45      6.1633  13.2467  18.6693   C.ar      2 RES2   0.0000
    75 C46      5.6575  11.2448  15.9571   C.ar      2 RES2   0.0000
    76 C47      4.9889  10.0631  15.7135   C.ar      2 RES2   0.0000
    77 C48      3.9529   9.9585  14.7936   C.ar      2 RES2   0.0000
    78 C49      3.5375  11.0586  14.0774   C.ar      2 RES2   0.0000
    79 C50      4.1745  12.2573  14.3101   C.ar      2 RES2   0.0000
    80 C51      5.2305  12.3127  15.2117   C.ar      2 RES2   0.0000
    81 C52      8.3130  11.0663  16.1134   C.ar      2 RES2   0.0000
    82 C53      9.5797  11.3541  16.6333   C.ar      2 RES2   0.0000
    83 C54     10.7550  11.1002  15.9607   C.ar      2 RES2   0.0000
    84 C55     10.7314  10.5955  14.6955   C.ar      2 RES2   0.0000
    85 C56      9.5070  10.3216  14.1174   C.ar      2 RES2   0.0000
    86 C57      8.3339  10.5678  14.8154   C.ar      2 RES2   0.0000
    87 C58      6.8093  10.2754  18.2148   C.ar      2 RES2   0.0000
    88 C59      7.8447   9.5923  18.8038   C.ar      2 RES2   0.0000
    89 C60      7.7149   8.7798  19.9127   C.ar      2 RES2   0.0000
    90 C61      6.4592   8.5798  20.4762   C.ar      2 RES2   0.0000
    91 C62      5.3972   9.2107  19.9236   C.ar      2 RES2   0.0000
    92 C63      5.5325  10.0139  18.8183   C.ar      2 RES2   0.0000
    93 H22      8.3997  13.6990  16.3970   H         2 RES2   0.0000
    94 H23      8.3905  15.8748  17.3641   H         2 RES2   0.0000
    95 H24      7.0049  16.3564  19.1965   H         2 RES2   0.0000
    96 H25      5.5642  14.7300  19.9672   H         2 RES2   0.0000
    97 H26      5.5281  12.5573  19.0219   H         2 RES2   0.0000
    98 H27      5.2498   9.2614  16.1861   H         2 RES2   0.0000
    99 H28      3.4905   9.1029  14.5719   H         2 RES2   0.0000
   100 H29      2.7752  11.0125  13.4521   H         2 RES2   0.0000
   101 H30      3.8795  13.0420  13.7793   H         2 RES2   0.0000
   102 H31      5.6639  13.2159  15.3426   H         2 RES2   0.0000
   103 H32      9.7028  11.6972  17.5895   H         2 RES2   0.0000
   104 H33     11.6375  11.3664  16.2952   H         2 RES2   0.0000
   105 H34     11.5299  10.3478  14.2192   H         2 RES2   0.0000
   106 H35      9.5004   9.9723  13.2121   H         2 RES2   0.0000
   107 H36      7.4664  10.4170  14.3683   H         2 RES2   0.0000
   108 H37      8.7906   9.6646  18.4184   H         2 RES2   0.0000
   109 H38      8.4386   8.2997  20.3817   H         2 RES2   0.0000
   110 H39      6.3083   8.0428  21.2361   H         2 RES2   0.0000
   111 H40      4.4557   9.0906  20.3126   H         2 RES2   0.0000
   112 H41      4.7526  10.4370  18.4184   H         2 RES2   0.0000
   113 B2       9.6745   9.7507   8.0749   B         3 RES3  -1.0000
   114 C64     10.0006  11.1479   7.2823   C.ar      3 RES3   0.0000
   115 C65     10.5510  11.1987   5.9880   C.ar      3 RES3   0.0000
   116 C66     10.9130  12.3988   5.3772   C.ar      3 RES3   0.0000
   117 C67     10.7463  13.5898   6.0243   C.ar      3 RES3   0.0000
   118 C68     10.2295  13.5960   7.3005   C.ar      3 RES3   0.0000
   119 C69      9.8654  12.4050   7.9004   C.ar      3 RES3   0.0000
   120 C70      9.3669   8.4859   7.1078   C.ar      3 RES3   0.0000
   121 C71      9.6520   7.1673   7.4713   C.ar      3 RES3   0.0000
   122 C72      9.3169   6.0809   6.6824   C.ar      3 RES3   0.0000
   123 C73      8.6624   6.2594   5.4717   C.ar      3 RES3   0.0000
   124 C74      8.3585   7.5304   5.0863   C.ar      3 RES3   0.0000
   125 C75      8.6994   8.6121   5.8862   C.ar      3 RES3   0.0000
   126 C76     11.0625   9.5184   8.9656   C.ar      3 RES3   0.0000
   127 C77     12.1702   8.8444   8.4348   C.ar      3 RES3   0.0000
   128 C78     13.4074   8.7691   9.0820   C.ar      3 RES3   0.0000
   129 C79     13.5478   9.3507  10.3326   C.ar      3 RES3   0.0000
   130 C80     12.5003  10.0154  10.8889   C.ar      3 RES3   0.0000
   131 C81     11.2710  10.0939  10.2308   C.ar      3 RES3   0.0000
   132 C82      8.3344   9.9200   9.0238   C.ar      3 RES3   0.0000
   133 C83      8.1753   9.3276  10.2745   C.ar      3 RES3   0.0000
   134 C84      7.0082   9.4384  11.0380   C.ar      3 RES3   0.0000
   135 C85      5.9440  10.1585  10.5471   C.ar      3 RES3   0.0000
   136 C86      6.0465  10.7324   9.3037   C.ar      3 RES3   0.0000
   137 C87      7.2180  10.6155   8.5839   C.ar      3 RES3   0.0000
   138 H42     10.7182  10.3801   5.4972   H         3 RES3   0.0000
   139 H43     11.2410  12.4219   4.4610   H         3 RES3   0.0000
   140 H44     10.9923  14.4207   5.6135   H         3 RES3   0.0000
   141 H45     10.1026  14.4422   7.7695   H         3 RES3   0.0000
   142 H46      9.5293  12.4235   8.8056   H         3 RES3   0.0000
   143 H47     10.1235   6.9857   8.3112   H         3 RES3   0.0000
   144 H48      9.5258   5.1685   6.9333   H         3 RES3   0.0000
   145 H49      8.4042   5.5085   4.9264   H         3 RES3   0.0000
   146 H50      7.8937   7.5042   4.2429   H         3 RES3   0.0000
   147 H51      8.4504   9.5030   5.5917   H         3 RES3   0.0000
   148 H52     12.0724   8.4321   7.5622   H         3 RES3   0.0000
   149 H53     14.1487   8.2644   8.6566   H         3 RES3   0.0000
   150 H54     14.4432   9.3568  10.7435   H         3 RES3   0.0000
   151 H55     12.5821  10.3324  11.8015   H         3 RES3   0.0000
   152 H56     10.5971  10.6293  10.6344   H         3 RES3   0.0000
   153 H57      8.8805   8.7198  10.6162   H         3 RES3   0.0000
   154 H58      6.9170   9.0552  11.9214   H         3 RES3   0.0000
   155 H59      5.1683  10.2647  11.0670   H         3 RES3   0.0000
   156 H60      5.2758  11.2494   8.9474   H         3 RES3   0.0000
   157 H61      7.2536  11.0032   7.6931   H         3 RES3   0.0000
@<TRIPOS>BOND
     1     1     2    1
     2     2     3   ar
     3     3     4    1
     4     5     3   ar
     5     6     5   ar
     6     7     6   ar
     7     8     7   ar
     8     9     2   ar
     9    10     1    1
    10    11    10   ar
    11    12    11   ar
    12    13    12   ar
    13    14    13   ar
    14    15     8   ar
    15    16     9   ar
    16    17     1    1
    17    18    17   ar
    18    19    18    1
    19    20    18   ar
    20    21    20   ar
    21    22    21   ar
    22    23    22   ar
    23    24    17   ar
    24    25     1    1
    25    26    25   ar
    26    27    26   ar
    27    28    27   ar
    28    29    28   ar
    29    30    23   ar
    30    31    24   ar
    31    32     1    1
    32    33    32   ar
    33    34    33    1
    34    35    33   ar
    35    36    35   ar
    36    37    36   ar
    37    38    37   ar
    38    39    32   ar
    39    40     1    1
    40    41    40   ar
    41    42    41   ar
    42    43    42   ar
    43    44    43   ar
    44    45    38   ar
    45    46    39   ar
    46    47     5    1
    47    48     6    1
    48    49     8    1
    49    50    15    1
    50    51    13    1
    51    52    12    1
    52    53    11    1
    53    54    20    1
    54    55    21    1
    55    56    23    1
    56    57    30    1
    57    58    28    1
    58    59    27    1
    59    60    26    1
    60    61    35    1
    61    62    36    1
    62    63    38    1
    63    64    45    1
    64    65    43    1
    65    66    42    1
    66    67    41    1
    67     7     9   ar
    68    10    16   ar
    69    14    15   ar
    70    14    16   ar
    71    22    24   ar
    72    25    31   ar
    73    29    30   ar
    74    29    31   ar
    75    37    39   ar
    76    40    46   ar
    77    44    45   ar
    78    44    46   ar
    79    68    69    1
    80    69    70   ar
    81    70    71   ar
    82    71    72   ar
    83    72    73   ar
    84    73    74   ar
    85    74    69   ar
    86    75    68    1
    87    76    75   ar
    88    77    76   ar
    89    78    77   ar
    90    79    78   ar
    91    80    75   ar
    92    81    68    1
    93    82    81   ar
    94    83    82   ar
    95    84    83   ar
    96    85    84   ar
    97    86    81   ar
    98    87    68    1
    99    88    87   ar
   100    89    88   ar
   101    90    89   ar
   102    91    90   ar
   103    92    87   ar
   104    93    70    1
   105    94    71    1
   106    95    72    1
   107    96    73    1
   108    97    74    1
   109    98    76    1
   110    99    77    1
   111   100    78    1
   112   101    79    1
   113   102    80    1
   114   103    82    1
   115   104    83    1
   116   105    84    1
   117   106    85    1
   118   107    86    1
   119   108    88    1
   120   109    89    1
   121   110    90    1
   122   111    91    1
   123   112    92    1
   124    79    80   ar
   125    85    86   ar
   126    91    92   ar
   127   113   114    1
   128   114   115   ar
   129   115   116   ar
   130   116   117   ar
   131   117   118   ar
   132   118   119   ar
   133   119   114   ar
   134   120   113    1
   135   121   120   ar
   136   122   121   ar
   137   123   122   ar
   138   124   123   ar
   139   125   120   ar
   140   126   113    1
   141   127   126   ar
   142   128   127   ar
   143   129   128   ar
   144   130   129   ar
   145   131   126   ar
   146   132   113    1
   147   133   132   ar
   148   134   133   ar
   149   135   134   ar
   150   136   135   ar
   151   137   132   ar
   152   138   115    1
   153   139   116    1
   154   140   117    1
   155   141   118    1
   156   142   119    1
   157   143   121    1
   158   144   122    1
   159   145   123    1
   160   146   124    1
   161   147   125    1
   162   148   127    1
   163   149   128    1
   164   150   129    1
   165   151   130    1
   166   152   131    1
   167   153   133    1
   168   154   134    1
   169   155   135    1
   170   156   136    1
   171   157   137    1
   172   124   125   ar
   173   130   131   ar
   174   136   137   ar
@<TRIPOS>SUBSTRUCTURE
     1 RES1        1 GROUP             0 ****  ****    0  
     2 RES2       68 GROUP             0 ****  ****    0  
     3 RES3      113 GROUP             0 ****  ****    0  
@<TRIPOS>CRYSIN
   12.3260   15.3870   36.7900   90.0000   98.8000   90.0000    14     1
