@<TRIPOS>MOLECULE
CERDEJ
    91   102     1     0     0
SMALL
NO_CHARGES
****
Generated from the CSD

@<TRIPOS>ATOM
     1 Fe1      0.0000   0.0000   0.0000   Fe        1 RES1   0.0000
     2 B1       2.0923   1.9632   1.4875   B         1 RES1   0.0000
     3 C1       3.2475   2.9375   2.0698   C.ar      1 RES1   0.0000
     4 C2       3.4440   4.1892   1.4744   C.ar      1 RES1   0.0000
     5 H1       2.8440   4.4721   0.8226   H         1 RES1   0.0000
     6 C3       4.4979   5.0252   1.8162   C.ar      1 RES1   0.0000
     7 H2       4.6019   5.8460   1.3915   H         1 RES1   0.0000
     8 C4       5.3868   4.6318   2.7856   C.ar      1 RES1   0.0000
     9 H3       6.0827   5.1948   3.0376   H         1 RES1   0.0000
    10 C5       5.2467   3.4114   3.3795   C.ar      1 RES1   0.0000
    11 H4       5.8527   3.1415   4.0321   H         1 RES1   0.0000
    12 C6       4.1959   2.5628   3.0117   C.ar      1 RES1   0.0000
    13 H5       4.1315   1.7249   3.4097   H         1 RES1   0.0000
    14 C7       0.3259   3.9081   1.7048   C.ar      1 RES1   0.0000
    15 H6       0.8383   4.5144   2.1891   H         1 RES1   0.0000
    16 C8      -0.9868   4.0760   1.3578   C.ar      1 RES1   0.0000
    17 H7      -1.5313   4.8076   1.5417   H         1 RES1   0.0000
    18 C9      -1.3321   2.9216   0.6750   C.ar      1 RES1   0.0000
    19 C10     -2.6529   2.5927   0.0518   C.3       1 RES1   0.0000
    20 H8      -2.6753   2.9315  -0.8468   H         1 RES1   0.0000
    21 H9      -3.3573   2.9960   0.5637   H         1 RES1   0.0000
    22 H10     -2.7721   1.6406   0.0380   H         1 RES1   0.0000
    23 C11      3.8875   1.5062  -0.3539   C.ar      1 RES1   0.0000
    24 H11      4.5934   1.9408   0.0673   H         1 RES1   0.0000
    25 C12      3.9560   0.8902  -1.5641   C.ar      1 RES1   0.0000
    26 H12      4.6951   0.8268  -2.1252   H         1 RES1   0.0000
    27 C13      2.6797   0.3762  -1.7814   C.ar      1 RES1   0.0000
    28 C14      2.1986  -0.4065  -2.9625   C.3       1 RES1   0.0000
    29 H13      1.4388  -0.9353  -2.7079   H         1 RES1   0.0000
    30 H14      2.9004  -0.9836  -3.2716   H         1 RES1   0.0000
    31 H15      1.9474   0.1977  -3.6652   H         1 RES1   0.0000
    32 C15      1.7744   0.6806   3.7623   C.ar      1 RES1   0.0000
    33 H16      2.1151   1.3268   4.3376   H         1 RES1   0.0000
    34 C16      1.2472  -0.5195   4.1425   C.ar      1 RES1   0.0000
    35 H17      1.1762  -0.8570   5.0066   H         1 RES1   0.0000
    36 C17      0.8385  -1.1278   2.9658   C.ar      1 RES1   0.0000
    37 C18      0.1892  -2.4675   2.8054   C.3       1 RES1   0.0000
    38 H18      0.0364  -2.6385   1.8732   H         1 RES1   0.0000
    39 H19     -0.6489  -2.4748   3.2733   H         1 RES1   0.0000
    40 H20      0.7628  -3.1463   3.1663   H         1 RES1   0.0000
    41 N1      -0.2874   2.0882   0.6061   N.ar      1 RES1   0.0000
    42 N2       0.7557   2.7245   1.2323   N.ar      1 RES1   0.0000
    43 N3       1.8856   0.6753  -0.7494   N.ar      1 RES1   0.0000
    44 N4       2.6414   1.3913   0.1398   N.ar      1 RES1   0.0000
    45 N5       1.0933  -0.3304   1.9171   N.ar      1 RES1   0.0000
    46 N6       1.7209   0.7779   2.4254   N.ar      1 RES1   0.0000
    47 B1A     -2.0923  -1.9632  -1.4875   B         1 RES1   0.0000
    48 C1A     -3.2475  -2.9375  -2.0698   C.ar      1 RES1   0.0000
    49 C2A     -3.4440  -4.1892  -1.4744   C.ar      1 RES1   0.0000
    50 H1A     -2.8440  -4.4721  -0.8226   H         1 RES1   0.0000
    51 C3A     -4.4979  -5.0252  -1.8162   C.ar      1 RES1   0.0000
    52 H2A     -4.6019  -5.8460  -1.3915   H         1 RES1   0.0000
    53 C4A     -5.3868  -4.6318  -2.7856   C.ar      1 RES1   0.0000
    54 H3A     -6.0827  -5.1948  -3.0376   H         1 RES1   0.0000
    55 C5A     -5.2467  -3.4114  -3.3795   C.ar      1 RES1   0.0000
    56 H4A     -5.8527  -3.1415  -4.0321   H         1 RES1   0.0000
    57 C6A     -4.1959  -2.5628  -3.0117   C.ar      1 RES1   0.0000
    58 H5A     -4.1315  -1.7249  -3.4097   H         1 RES1   0.0000
    59 C7A     -0.3259  -3.9081  -1.7048   C.ar      1 RES1   0.0000
    60 H6A     -0.8383  -4.5144  -2.1891   H         1 RES1   0.0000
    61 C8A      0.9868  -4.0760  -1.3578   C.ar      1 RES1   0.0000
    62 H7A      1.5313  -4.8076  -1.5417   H         1 RES1   0.0000
    63 C9A      1.3321  -2.9216  -0.6750   C.ar      1 RES1   0.0000
    64 C10A     2.6529  -2.5927  -0.0518   C.3       1 RES1   0.0000
    65 H8A      2.6753  -2.9315   0.8468   H         1 RES1   0.0000
    66 H9A      3.3573  -2.9960  -0.5637   H         1 RES1   0.0000
    67 H10A     2.7721  -1.6406  -0.0380   H         1 RES1   0.0000
    68 C11A    -3.8875  -1.5062   0.3539   C.ar      1 RES1   0.0000
    69 H11A    -4.5934  -1.9408  -0.0673   H         1 RES1   0.0000
    70 C12A    -3.9560  -0.8902   1.5641   C.ar      1 RES1   0.0000
    71 H12A    -4.6951  -0.8268   2.1252   H         1 RES1   0.0000
    72 C13A    -2.6797  -0.3762   1.7814   C.ar      1 RES1   0.0000
    73 C14A    -2.1986   0.4065   2.9625   C.3       1 RES1   0.0000
    74 H13A    -1.4388   0.9353   2.7079   H         1 RES1   0.0000
    75 H14A    -2.9004   0.9836   3.2716   H         1 RES1   0.0000
    76 H15A    -1.9474  -0.1977   3.6652   H         1 RES1   0.0000
    77 C15A    -1.7744  -0.6806  -3.7623   C.ar      1 RES1   0.0000
    78 H16A    -2.1151  -1.3268  -4.3376   H         1 RES1   0.0000
    79 C16A    -1.2472   0.5195  -4.1425   C.ar      1 RES1   0.0000
    80 H17A    -1.1762   0.8570  -5.0066   H         1 RES1   0.0000
    81 C17A    -0.8385   1.1278  -2.9658   C.ar      1 RES1   0.0000
    82 C18A    -0.1892   2.4675  -2.8054   C.3       1 RES1   0.0000
    83 H18A    -0.0364   2.6385  -1.8732   H         1 RES1   0.0000
    84 H19A     0.6489   2.4748  -3.2733   H         1 RES1   0.0000
    85 H20A    -0.7628   3.1463  -3.1663   H         1 RES1   0.0000
    86 N1A      0.2874  -2.0882  -0.6061   N.ar      1 RES1   0.0000
    87 N2A     -0.7557  -2.7245  -1.2323   N.ar      1 RES1   0.0000
    88 N3A     -1.8856  -0.6753   0.7494   N.ar      1 RES1   0.0000
    89 N4A     -2.6414  -1.3913  -0.1398   N.ar      1 RES1   0.0000
    90 N5A     -1.0933   0.3304  -1.9171   N.ar      1 RES1   0.0000
    91 N6A     -1.7209  -0.7779  -2.4254   N.ar      1 RES1   0.0000
@<TRIPOS>BOND
     1     1    41    1
     2     2     3    1
     3     3     4   ar
     4     4     5    1
     5     6     4   ar
     6     7     6    1
     7     8     6   ar
     8     9     8    1
     9    10     8   ar
    10    11    10    1
    11    12     3   ar
    12    13    12    1
    13    14    15    1
    14    16    14   ar
    15    17    16    1
    16    18    16   ar
    17    19    18    1
    18    20    19    1
    19    21    19    1
    20    22    19    1
    21    23    24    1
    22    25    23   ar
    23    26    25    1
    24    27    25   ar
    25    28    27    1
    26    29    28    1
    27    30    28    1
    28    31    28    1
    29    32    33    1
    30    34    32   ar
    31    35    34    1
    32    36    34   ar
    33    37    36    1
    34    38    37    1
    35    39    37    1
    36    40    37    1
    37    41    18   ar
    38    42     2    1
    39    43     1    1
    40    44     2    1
    41    45     1    1
    42    46     2    1
    43    47    48    1
    44    48    49   ar
    45    49    50    1
    46    51    49   ar
    47    52    51    1
    48    53    51   ar
    49    54    53    1
    50    55    53   ar
    51    56    55    1
    52    57    48   ar
    53    58    57    1
    54    59    60    1
    55    61    59   ar
    56    62    61    1
    57    63    61   ar
    58    64    63    1
    59    65    64    1
    60    66    64    1
    61    67    64    1
    62    68    69    1
    63    70    68   ar
    64    71    70    1
    65    72    70   ar
    66    73    72    1
    67    74    73    1
    68    75    73    1
    69    76    73    1
    70    77    78    1
    71    79    77   ar
    72    80    79    1
    73    81    79   ar
    74    82    81    1
    75    83    82    1
    76    84    82    1
    77    85    82    1
    78    86     1    1
    79    87    47    1
    80    88     1    1
    81    89    47    1
    82    90     1    1
    83    91    47    1
    84    10    12   ar
    85    14    42   ar
    86    23    44   ar
    87    27    43   ar
    88    32    46   ar
    89    36    45   ar
    90    41    42   ar
    91    43    44   ar
    92    45    46   ar
    93    55    57   ar
    94    59    87   ar
    95    63    86   ar
    96    68    89   ar
    97    72    88   ar
    98    77    91   ar
    99    81    90   ar
   100    86    87   ar
   101    88    89   ar
   102    90    91   ar
@<TRIPOS>SUBSTRUCTURE
     1 RES1        1 GROUP             0 ****  ****    0  
@<TRIPOS>CRYSIN
   10.0266   10.1334   10.4753  107.3300  117.7410   93.0300     2     1
