@<TRIPOS>MOLECULE
CERDEJ01
    91   102     1     0     0
SMALL
NO_CHARGES
****
Generated from the CSD

@<TRIPOS>ATOM
     1 Fe1      0.0000   0.0000   0.0000   Fe        1 RES1   0.0000
     2 B1       2.1164   1.9511   1.4720   B         1 RES1   0.0000
     3 C1       3.2765   2.9217   2.0426   C.ar      1 RES1   0.0000
     4 C2       3.4878   4.1645   1.4188   C.ar      1 RES1   0.0000
     5 H1       2.8839   4.4448   0.7408   H         1 RES1   0.0000
     6 C3       4.5497   4.9989   1.7593   C.ar      1 RES1   0.0000
     7 H2       4.6637   5.8307   1.3137   H         1 RES1   0.0000
     8 C4       5.4416   4.6129   2.7505   C.ar      1 RES1   0.0000
     9 H3       6.1594   5.1837   2.9983   H         1 RES1   0.0000
    10 C5       5.2752   3.3882   3.3748   C.ar      1 RES1   0.0000
    11 H4       5.8835   3.1163   4.0520   H         1 RES1   0.0000
    12 C6       4.2175   2.5511   3.0132   C.ar      1 RES1   0.0000
    13 H5       4.1329   1.7057   3.4374   H         1 RES1   0.0000
    14 C7       0.3742   3.9233   1.6780   C.ar      1 RES1   0.0000
    15 H6       0.9106   4.5456   2.1552   H         1 RES1   0.0000
    16 C8      -0.9514   4.0978   1.3433   C.ar      1 RES1   0.0000
    17 H7      -1.4997   4.8514   1.5277   H         1 RES1   0.0000
    18 C9      -1.3134   2.9252   0.6741   C.ar      1 RES1   0.0000
    19 C10     -2.6342   2.6016   0.0532   C.3       1 RES1   0.0000
    20 H8      -2.6796   2.9978  -0.8423   H         1 RES1   0.0000
    21 H9      -3.3547   2.9659   0.6087   H         1 RES1   0.0000
    22 H10     -2.7334   1.6288  -0.0145   H         1 RES1   0.0000
    23 C11      3.9080   1.4512  -0.3669   C.ar      1 RES1   0.0000
    24 H11      4.6396   1.8750   0.0656   H         1 RES1   0.0000
    25 C12      3.9585   0.8207  -1.5884   C.ar      1 RES1   0.0000
    26 H12      4.7110   0.7268  -2.1603   H         1 RES1   0.0000
    27 C13      2.6592   0.3485  -1.8049   C.ar      1 RES1   0.0000
    28 C14      2.1504  -0.4136  -2.9863   C.3       1 RES1   0.0000
    29 H13      1.2934  -0.8305  -2.7613   H         1 RES1   0.0000
    30 H14      2.7978  -1.1084  -3.2302   H         1 RES1   0.0000
    31 H15      2.0270   0.1984  -3.7417   H         1 RES1   0.0000
    32 C15      1.7851   0.6879   3.7570   C.ar      1 RES1   0.0000
    33 H16      2.1355   1.3492   4.3419   H         1 RES1   0.0000
    34 C16      1.2391  -0.5169   4.1405   C.ar      1 RES1   0.0000
    35 H17      1.1574  -0.8585   5.0231   H         1 RES1   0.0000
    36 C17      0.8322  -1.1285   2.9554   C.ar      1 RES1   0.0000
    37 C18      0.1692  -2.4614   2.7942   C.3       1 RES1   0.0000
    38 H18     -0.0280  -2.6156   1.8466   H         1 RES1   0.0000
    39 H19     -0.6655  -2.4751   3.3078   H         1 RES1   0.0000
    40 H20      0.7669  -3.1653   3.1228   H         1 RES1   0.0000
    41 N1      -0.2682   2.0841   0.6103   N.ar      1 RES1   0.0000
    42 N2       0.7834   2.7243   1.2170   N.ar      1 RES1   0.0000
    43 N3       1.8705   0.6737  -0.7704   N.ar      1 RES1   0.0000
    44 N4       2.6494   1.3706   0.1183   N.ar      1 RES1   0.0000
    45 N5       1.1077  -0.3386   1.9016   N.ar      1 RES1   0.0000
    46 N6       1.7378   0.7706   2.4113   N.ar      1 RES1   0.0000
    47 B1A     -2.1164  -1.9511  -1.4720   B         1 RES1   0.0000
    48 C1A     -3.2765  -2.9217  -2.0426   C.ar      1 RES1   0.0000
    49 C2A     -3.4878  -4.1645  -1.4188   C.ar      1 RES1   0.0000
    50 H1A     -2.8839  -4.4448  -0.7408   H         1 RES1   0.0000
    51 C3A     -4.5497  -4.9989  -1.7593   C.ar      1 RES1   0.0000
    52 H2A     -4.6637  -5.8307  -1.3137   H         1 RES1   0.0000
    53 C4A     -5.4416  -4.6129  -2.7505   C.ar      1 RES1   0.0000
    54 H3A     -6.1594  -5.1837  -2.9983   H         1 RES1   0.0000
    55 C5A     -5.2752  -3.3882  -3.3748   C.ar      1 RES1   0.0000
    56 H4A     -5.8835  -3.1163  -4.0520   H         1 RES1   0.0000
    57 C6A     -4.2175  -2.5511  -3.0132   C.ar      1 RES1   0.0000
    58 H5A     -4.1329  -1.7057  -3.4374   H         1 RES1   0.0000
    59 C7A     -0.3742  -3.9233  -1.6780   C.ar      1 RES1   0.0000
    60 H6A     -0.9106  -4.5456  -2.1552   H         1 RES1   0.0000
    61 C8A      0.9514  -4.0978  -1.3433   C.ar      1 RES1   0.0000
    62 H7A      1.4997  -4.8514  -1.5277   H         1 RES1   0.0000
    63 C9A      1.3134  -2.9252  -0.6741   C.ar      1 RES1   0.0000
    64 C10A     2.6342  -2.6016  -0.0532   C.3       1 RES1   0.0000
    65 H8A      2.6796  -2.9978   0.8423   H         1 RES1   0.0000
    66 H9A      3.3547  -2.9659  -0.6087   H         1 RES1   0.0000
    67 H10A     2.7334  -1.6288   0.0145   H         1 RES1   0.0000
    68 C11A    -3.9080  -1.4512   0.3669   C.ar      1 RES1   0.0000
    69 H11A    -4.6396  -1.8750  -0.0656   H         1 RES1   0.0000
    70 C12A    -3.9585  -0.8207   1.5884   C.ar      1 RES1   0.0000
    71 H12A    -4.7110  -0.7268   2.1603   H         1 RES1   0.0000
    72 C13A    -2.6592  -0.3485   1.8049   C.ar      1 RES1   0.0000
    73 C14A    -2.1504   0.4136   2.9863   C.3       1 RES1   0.0000
    74 H13A    -1.2934   0.8305   2.7613   H         1 RES1   0.0000
    75 H14A    -2.7978   1.1084   3.2302   H         1 RES1   0.0000
    76 H15A    -2.0270  -0.1984   3.7417   H         1 RES1   0.0000
    77 C15A    -1.7851  -0.6879  -3.7570   C.ar      1 RES1   0.0000
    78 H16A    -2.1355  -1.3492  -4.3419   H         1 RES1   0.0000
    79 C16A    -1.2391   0.5169  -4.1405   C.ar      1 RES1   0.0000
    80 H17A    -1.1574   0.8585  -5.0231   H         1 RES1   0.0000
    81 C17A    -0.8322   1.1285  -2.9554   C.ar      1 RES1   0.0000
    82 C18A    -0.1692   2.4614  -2.7942   C.3       1 RES1   0.0000
    83 H18A     0.0280   2.6156  -1.8466   H         1 RES1   0.0000
    84 H19A     0.6655   2.4751  -3.3078   H         1 RES1   0.0000
    85 H20A    -0.7669   3.1653  -3.1228   H         1 RES1   0.0000
    86 N1A      0.2682  -2.0841  -0.6103   N.ar      1 RES1   0.0000
    87 N2A     -0.7834  -2.7243  -1.2170   N.ar      1 RES1   0.0000
    88 N3A     -1.8705  -0.6737   0.7704   N.ar      1 RES1   0.0000
    89 N4A     -2.6494  -1.3706  -0.1183   N.ar      1 RES1   0.0000
    90 N5A     -1.1077   0.3386  -1.9016   N.ar      1 RES1   0.0000
    91 N6A     -1.7378  -0.7706  -2.4113   N.ar      1 RES1   0.0000
@<TRIPOS>BOND
     1     1    41    1
     2     2     3    1
     3     3     4   ar
     4     4     5    1
     5     6     4   ar
     6     7     6    1
     7     8     6   ar
     8     9     8    1
     9    10     8   ar
    10    11    10    1
    11    12     3   ar
    12    13    12    1
    13    14    15    1
    14    16    14   ar
    15    17    16    1
    16    18    16   ar
    17    19    18    1
    18    20    19    1
    19    21    19    1
    20    22    19    1
    21    23    24    1
    22    25    23   ar
    23    26    25    1
    24    27    25   ar
    25    28    27    1
    26    29    28    1
    27    30    28    1
    28    31    28    1
    29    32    33    1
    30    34    32   ar
    31    35    34    1
    32    36    34   ar
    33    37    36    1
    34    38    37    1
    35    39    37    1
    36    40    37    1
    37    41    18   ar
    38    42     2    1
    39    43     1    1
    40    44     2    1
    41    45     1    1
    42    46     2    1
    43    47    48    1
    44    48    49   ar
    45    49    50    1
    46    51    49   ar
    47    52    51    1
    48    53    51   ar
    49    54    53    1
    50    55    53   ar
    51    56    55    1
    52    57    48   ar
    53    58    57    1
    54    59    60    1
    55    61    59   ar
    56    62    61    1
    57    63    61   ar
    58    64    63    1
    59    65    64    1
    60    66    64    1
    61    67    64    1
    62    68    69    1
    63    70    68   ar
    64    71    70    1
    65    72    70   ar
    66    73    72    1
    67    74    73    1
    68    75    73    1
    69    76    73    1
    70    77    78    1
    71    79    77   ar
    72    80    79    1
    73    81    79   ar
    74    82    81    1
    75    83    82    1
    76    84    82    1
    77    85    82    1
    78    86     1    1
    79    87    47    1
    80    88     1    1
    81    89    47    1
    82    90     1    1
    83    91    47    1
    84    10    12   ar
    85    14    42   ar
    86    23    44   ar
    87    27    43   ar
    88    32    46   ar
    89    36    45   ar
    90    41    42   ar
    91    43    44   ar
    92    45    46   ar
    93    55    57   ar
    94    59    87   ar
    95    63    86   ar
    96    68    89   ar
    97    72    88   ar
    98    77    91   ar
    99    81    90   ar
   100    86    87   ar
   101    88    89   ar
   102    90    91   ar
@<TRIPOS>SUBSTRUCTURE
     1 RES1        1 GROUP             0 ****  ****    0  
@<TRIPOS>CRYSIN
    9.9604   10.0319   10.3639  107.8380  117.8900   92.0560     2     1
