@<TRIPOS>MOLECULE
CERGEO
    91   100     3     0     0
SMALL
USER_CHARGES
****
Generated from the CSD

@<TRIPOS>ATOM
     1 Fe1      5.3393   4.9084  11.8441   Fe        1 RES1   2.0000
     2 N1       7.1671   4.3906  11.7086   N.2       1 RES1   0.0000
     3 O1       8.0023   4.8688  10.7314   O.3       1 RES1   0.0000
     4 N2       5.3459   4.8357   9.9251   N.2       1 RES1   0.0000
     5 O2       6.2508   5.5504   9.1747   O.3       1 RES1   0.0000
     6 N3       5.9180   6.7152  11.6816   N.2       1 RES1   0.0000
     7 O3       6.9892   7.0952  10.9250   O.3       1 RES1   0.0000
     8 N4       5.6371   4.0653  13.5394   N.2       1 RES1   0.0000
     9 O4       4.6023   3.7889  14.4072   O.3       1 RES1   0.0000
    10 N5       4.1491   3.4608  11.5086   N.2       1 RES1   0.0000
    11 O5       3.3409   2.9430  12.4902   O.3       1 RES1   0.0000
    12 N6       3.8843   5.8336  12.6317   N.2       1 RES1   0.0000
    13 O6       2.8940   5.1978  13.3336   O.3       1 RES1   0.0000
    14 B1       7.3964   6.0076  10.0009   B         1 RES1  -1.0000
    15 F1       8.3485   6.5204   9.1720   F         1 RES1   0.0000
    16 B2       3.3018   3.8111  13.6991   B         1 RES1  -1.0000
    17 F2       2.3529   3.3196  14.5404   F         1 RES1   0.0000
    18 C1       7.7249   3.7452  12.6948   C.2       1 RES1   0.0000
    19 C2       9.1822   3.4597  12.7194   C.ar      1 RES1   0.0000
    20 C3       9.6822   2.4082  11.9670   C.ar      1 RES1   0.0000
    21 H1       9.0973   1.8467  11.5113   H         1 RES1   0.0000
    22 C4      11.0448   2.1884  11.8899   C.ar      1 RES1   0.0000
    23 H2      11.3761   1.4664  11.4071   H         1 RES1   0.0000
    24 C5      11.9094   3.0469  12.5320   C.ar      1 RES1   0.0000
    25 H3      12.8280   2.9224  12.4551   H         1 RES1   0.0000
    26 C6      11.4176   4.0986  13.2947   C.ar      1 RES1   0.0000
    27 H4      12.0068   4.6675  13.7349   H         1 RES1   0.0000
    28 C7      10.0454   4.3028  13.4012   C.ar      1 RES1   0.0000
    29 H5       9.7119   4.9957  13.9235   H         1 RES1   0.0000
    30 C8       6.7642   3.4287  13.7382   C.2       1 RES1   0.0000
    31 C9       7.0197   2.4525  14.8218   C.ar      1 RES1   0.0000
    32 C10      7.5399   1.2002  14.4912   C.ar      1 RES1   0.0000
    33 H6       7.7137   0.9898  13.6023   H         1 RES1   0.0000
    34 C11      7.7979   0.2672  15.4893   C.ar      1 RES1   0.0000
    35 H7       8.1400  -0.5678  15.2666   H         1 RES1   0.0000
    36 C12      7.5474   0.5782  16.8106   C.ar      1 RES1   0.0000
    37 H8       7.7309  -0.0443  17.4766   H         1 RES1   0.0000
    38 C13      7.0246   1.8113  17.1436   C.ar      1 RES1   0.0000
    39 H9       6.8524   2.0160  18.0346   H         1 RES1   0.0000
    40 C14      6.7542   2.7507  16.1529   C.ar      1 RES1   0.0000
    41 H10      6.3954   3.5787  16.3815   H         1 RES1   0.0000
    42 C15      3.9074   3.0909  10.2729   C.2       1 RES1   0.0000
    43 C16      2.9169   2.0702   9.8838   C.ar      1 RES1   0.0000
    44 C17      2.8166   0.8692  10.5884   C.ar      1 RES1   0.0000
    45 H11      3.3587   0.7189  11.3290   H         1 RES1   0.0000
    46 C18      1.9103  -0.0998  10.1874   C.ar      1 RES1   0.0000
    47 H12      1.8421  -0.8960  10.6643   H         1 RES1   0.0000
    48 C19      1.1059   0.1102   9.0812   C.ar      1 RES1   0.0000
    49 H13      0.5096  -0.5496   8.8077   H         1 RES1   0.0000
    50 C20      1.1906   1.3044   8.3805   C.ar      1 RES1   0.0000
    51 H14      0.6412   1.4508   7.6444   H         1 RES1   0.0000
    52 C21      2.0951   2.2848   8.7741   C.ar      1 RES1   0.0000
    53 H15      2.1533   3.0813   8.2993   H         1 RES1   0.0000
    54 C22      4.7402   3.8400   9.3312   C.2       1 RES1   0.0000
    55 C23      4.9591   3.4470   7.9213   C.ar      1 RES1   0.0000
    56 C24      4.8564   4.3526   6.8692   C.ar      1 RES1   0.0000
    57 H16      4.6268   5.2379   7.0343   H         1 RES1   0.0000
    58 C25      5.1002   3.9228   5.5663   C.ar      1 RES1   0.0000
    59 H17      5.0176   4.5242   4.8602   H         1 RES1   0.0000
    60 C26      5.4630   2.6184   5.3117   C.ar      1 RES1   0.0000
    61 H18      5.6439   2.3468   4.4411   H         1 RES1   0.0000
    62 C27      5.5562   1.7170   6.3526   C.ar      1 RES1   0.0000
    63 H19      5.7898   0.8335   6.1810   H         1 RES1   0.0000
    64 C28      5.3009   2.1243   7.6547   C.ar      1 RES1   0.0000
    65 H20      5.3591   1.5107   8.3513   H         1 RES1   0.0000
    66 C29      5.1011   7.6487  12.0626   C.2       1 RES1   0.0000
    67 Cl1      5.3695   9.2861  11.7112   Cl        1 RES1   0.0000
    68 C30      3.9294   7.1361  12.7305   C.2       1 RES1   0.0000
    69 C31      2.9063   7.9339  13.4983   C.3       1 RES1   0.0000
    70 H21      2.4628   7.3476  14.1454   H         1 RES1   0.0000
    71 O7       3.5449   8.9607  14.1800   O.3       1 RES1   0.0000
    72 C32      0.9799   9.1907  13.3050   C.3       1 RES1   0.0000
    73 H22      0.3274   9.5537  12.6858   H         1 RES1   0.0000
    74 H23      0.5132   8.6213  13.9359   H         1 RES1   0.0000
    75 O8       1.6162  10.2434  13.9969   O.3       1 RES1   0.0000
    76 C33      2.5645   9.7155  14.8848   C.3       1 RES1   0.0000
    77 H24      2.1206   9.1448  15.5320   H         1 RES1   0.0000
    78 H25      2.9970  10.4393  15.3658   H         1 RES1   0.0000
    79 O9       1.9486   8.4223  12.5862   O.3       1 RES1   0.0000
    80 N7       6.4520   0.8538  11.0475   N.1       2 RES2   0.0000
    81 C34      6.2329  -0.0359  10.3679   C.1       2 RES2   0.0000
    82 C35      5.9683  -1.1578   9.4737   C.3       2 RES2   0.0000
    83 H26      6.1572  -0.8986   8.5696   H         2 RES2   0.0000
    84 H27      5.0467  -1.4143   9.5469   H         2 RES2   0.0000
    85 H28      6.5276  -1.8988   9.7168   H         2 RES2   0.0000
    86 C36      5.9094   6.7293  15.8110   C.1       3 RES3   0.0000
    87 N8       6.7940   6.7293  15.1785   N.1       3 RES3   0.0000
    88 C37      4.6849   6.6991  16.6171   C.3       3 RES3   0.0000
    89 H29      4.1097   5.9984  16.3009   H         3 RES3   0.0000
    90 H30      4.2306   7.5430  16.5427   H         3 RES3   0.0000
    91 H31      4.9102   6.5376  17.5361   H         3 RES3   0.0000
@<TRIPOS>BOND
     1     1     2    1
     2     2     3    1
     3     3    14    1
     4     4     1    1
     5     5     4    1
     6     6     1    1
     7     7     6    1
     8     8     1    1
     9     9     8    1
    10    10     1    1
    11    11    10    1
    12    12     1    1
    13    13    12    1
    14    14     5    1
    15    15    14    1
    16    16     9    1
    17    17    16    1
    18    18     2    2
    19    19    18    1
    20    20    19   ar
    21    21    20    1
    22    22    20   ar
    23    23    22    1
    24    24    22   ar
    25    25    24    1
    26    26    24   ar
    27    27    26    1
    28    28    19   ar
    29    29    28    1
    30    30     8    2
    31    31    30    1
    32    32    31   ar
    33    33    32    1
    34    34    32   ar
    35    35    34    1
    36    36    34   ar
    37    37    36    1
    38    38    36   ar
    39    39    38    1
    40    40    31   ar
    41    41    40    1
    42    42    10    2
    43    43    42    1
    44    44    43   ar
    45    45    44    1
    46    46    44   ar
    47    47    46    1
    48    48    46   ar
    49    49    48    1
    50    50    48   ar
    51    51    50    1
    52    52    43   ar
    53    53    52    1
    54    54     4    2
    55    55    54    1
    56    56    55   ar
    57    57    56    1
    58    58    56   ar
    59    59    58    1
    60    60    58   ar
    61    61    60    1
    62    62    60   ar
    63    63    62    1
    64    64    55   ar
    65    65    64    1
    66    66     6    2
    67    67    66    1
    68    68    12    2
    69    69    68    1
    70    70    69    1
    71    71    69    1
    72    72    73    1
    73    74    72    1
    74    75    72    1
    75    76    71    1
    76    77    76    1
    77    78    76    1
    78    79    69    1
    79     7    14    1
    80    11    16    1
    81    13    16    1
    82    18    30    1
    83    26    28   ar
    84    38    40   ar
    85    42    54    1
    86    50    52   ar
    87    62    64   ar
    88    66    68    1
    89    72    79    1
    90    75    76    1
    91    80    81    3
    92    81    82    1
    93    82    83    1
    94    84    82    1
    95    85    82    1
    96    86    87    3
    97    88    86    1
    98    89    88    1
    99    90    88    1
   100    91    88    1
@<TRIPOS>SUBSTRUCTURE
     1 RES1        1 GROUP             0 ****  ****    0  
     2 RES2       80 GROUP             0 ****  ****    0  
     3 RES3       86 GROUP             0 ****  ****    0  
@<TRIPOS>CRYSIN
   12.0200   26.0462   12.8635   90.0000  105.3980   90.0000   231     1
