@<TRIPOS>MOLECULE
CERZII
   126   135     2     0     0
SMALL
USER_CHARGES
****
Generated from the CSD

@<TRIPOS>ATOM
     1 Fe1      2.5746   4.6390   4.4026   Fe        1 RES1   1.0000
     2 O1       7.5049   5.3130   6.5620   O.2       1 RES1   0.0000
     3 O2       6.8188   3.3587   7.4329   O.3       1 RES1   0.0000
     4 O3      -2.6746   4.6118   2.3821   O.2       1 RES1   0.0000
     5 O4      -1.4908   6.2437   1.4760   O.3       1 RES1   0.0000
     6 N1       4.0633   5.7893   4.4905   N.2       1 RES1   0.0000
     7 N2       1.6589   6.1455   3.7045   N.2       1 RES1   0.0000
     8 N3       1.0339   3.5309   4.3096   N.2       1 RES1   0.0000
     9 N4       3.5559   3.1159   5.0364   N.2       1 RES1   0.0000
    10 N5       2.0723   5.1984   6.2162   N.2       1 RES1   0.0000
    11 N6       0.8942   6.1033   7.9308   N.pl3     1 RES1   0.0000
    12 N7       3.0551   4.0624   2.5758   N.2       1 RES1   0.0000
    13 N8       4.2514   3.5353   0.7684   N.pl3     1 RES1   0.0000
    14 C1       3.8115   7.1044   4.0118   C.ar      1 RES1   0.0000
    15 C2       4.7064   8.1445   3.9718   C.ar      1 RES1   0.0000
    16 H1       5.6218   7.9904   4.2167   H         1 RES1   0.0000
    17 C3       4.2793   9.4123   3.5828   C.ar      1 RES1   0.0000
    18 H2       4.9170  10.1239   3.4963   H         1 RES1   0.0000
    19 C4       2.9469   9.6308   3.2914   C.ar      1 RES1   0.0000
    20 H3       2.6501  10.5116   3.0545   H         1 RES1   0.0000
    21 C5       2.0488   8.6083   3.3170   C.ar      1 RES1   0.0000
    22 H4       1.1180   8.7788   3.1553   H         1 RES1   0.0000
    23 C6       2.4822   7.3260   3.6452   C.ar      1 RES1   0.0000
    24 C7       0.4925   6.1099   3.1425   C.2       1 RES1   0.0000
    25 H5       0.2130   6.9035   2.6799   H         1 RES1   0.0000
    26 C8      -0.4087   5.0347   3.1249   C.2       1 RES1   0.0000
    27 C9      -0.2011   3.8092   3.8805   C.2       1 RES1   0.0000
    28 C10      1.2970   2.2556   5.0188   C.3       1 RES1   0.0000
    29 H6       0.7127   1.5619   4.7066   H         1 RES1   0.0000
    30 H7       1.1437   2.3901   5.9585   H         1 RES1   0.0000
    31 C11      2.7467   1.9038   4.8363   C.3       1 RES1   0.0000
    32 H8       3.0253   1.1971   5.4222   H         1 RES1   0.0000
    33 H9       2.8642   1.6158   3.9286   H         1 RES1   0.0000
    34 C12      4.7923   3.0566   5.4430   C.2       1 RES1   0.0000
    35 C13      5.5679   4.2835   5.6463   C.2       1 RES1   0.0000
    36 C14      5.1830   5.5079   5.1517   C.2       1 RES1   0.0000
    37 H10      5.8142   6.2257   5.2445   H         1 RES1   0.0000
    38 C15      6.7451   4.3859   6.5332   C.2       1 RES1   0.0000
    39 C16      7.7120   3.5435   8.7697   C.3       1 RES1   0.0000
    40 H11      7.4527   2.9411   9.4708   H         1 RES1   0.0000
    41 H12      7.6645   4.4492   9.0866   H         1 RES1   0.0000
    42 C17      8.9719   3.2537   8.2510   C.3       1 RES1   0.0000
    43 H13      9.6344   3.3361   8.9425   H         1 RES1   0.0000
    44 H14      8.9680   2.3521   7.9180   H         1 RES1   0.0000
    45 H15      9.1801   3.8573   7.5354   H         1 RES1   0.0000
    46 C18      5.4483   1.7004   5.6239   C.3       1 RES1   0.0000
    47 H16      4.7815   1.0192   5.5054   H         1 RES1   0.0000
    48 H17      6.1254   1.6050   4.9499   H         1 RES1   0.0000
    49 H18      5.8468   1.6112   6.4932   H         1 RES1   0.0000
    50 C19     -1.6321   5.2534   2.3613   C.2       1 RES1   0.0000
    51 C20     -2.6204   6.5627   0.6035   C.3       1 RES1   0.0000
    52 H19     -3.4004   6.6973   1.1478   H         1 RES1   0.0000
    53 H20     -2.7901   5.8428  -0.0080   H         1 RES1   0.0000
    54 C21     -2.2978   7.8177  -0.0848   C.3       1 RES1   0.0000
    55 H21     -3.0272   8.0666  -0.6548   H         1 RES1   0.0000
    56 H22     -2.1251   8.5231   0.5443   H         1 RES1   0.0000
    57 H23     -1.5131   7.6641  -0.6163   H         1 RES1   0.0000
    58 C22     -1.2964   2.8088   4.0630   C.3       1 RES1   0.0000
    59 H24     -0.9777   2.0758   4.5945   H         1 RES1   0.0000
    60 H25     -2.0443   3.2216   4.5017   H         1 RES1   0.0000
    61 H26     -1.5696   2.4860   3.2018   H         1 RES1   0.0000
    62 C23      2.6334   4.8731   7.3865   C.2       1 RES1   0.0000
    63 H27      3.4058   4.3097   7.4681   H         1 RES1   0.0000
    64 C24      1.9363   5.4108   8.4911   C.2       1 RES1   0.0000
    65 H28      2.1565   5.3301   9.4212   H         1 RES1   0.0000
    66 C25      1.0296   5.9473   6.6261   C.2       1 RES1   0.0000
    67 H29      0.4149   6.3495   6.0081   H         1 RES1   0.0000
    68 C26     -0.1394   6.8448   8.5872   C.3       1 RES1   0.0000
    69 H30     -0.7290   7.2137   7.9260   H         1 RES1   0.0000
    70 H31     -0.6340   6.2595   9.1651   H         1 RES1   0.0000
    71 H32      0.2440   7.5556   9.1058   H         1 RES1   0.0000
    72 C27      2.2368   3.4897   1.5929   C.2       1 RES1   0.0000
    73 H33      1.2924   3.3477   1.6889   H         1 RES1   0.0000
    74 C28      2.9714   3.1539   0.5075   C.2       1 RES1   0.0000
    75 H34      2.6567   2.7373  -0.2978   H         1 RES1   0.0000
    76 C29      4.2739   4.0753   1.9883   C.2       1 RES1   0.0000
    77 H35      5.0597   4.4227   2.4173   H         1 RES1   0.0000
    78 C30      5.3778   3.4520  -0.1329   C.3       1 RES1   0.0000
    79 H36      6.1762   3.7859   0.2834   H         1 RES1   0.0000
    80 H37      5.5055   2.5313  -0.3762   H         1 RES1   0.0000
    81 H38      5.1864   3.9668  -0.9189   H         1 RES1   0.0000
    82 B1       1.5695   2.2738  -3.5652   B         2 RES2  -1.0000
    83 C31      1.8515   3.8301  -4.0711   C.ar      2 RES2   0.0000
    84 C32      1.5021   4.3110  -5.3293   C.ar      2 RES2   0.0000
    85 H39      0.9930   3.7530  -5.9217   H         2 RES2   0.0000
    86 C33      1.7438   5.6171  -5.7376   C.ar      2 RES2   0.0000
    87 H40      1.4517   5.9170  -6.6005   H         2 RES2   0.0000
    88 C34      2.3960   6.4834  -4.9083   C.ar      2 RES2   0.0000
    89 H41      2.6080   7.3750  -5.1965   H         2 RES2   0.0000
    90 C35      2.7596   6.0780  -3.6548   C.ar      2 RES2   0.0000
    91 H42      3.1840   6.6838  -3.0433   H         2 RES2   0.0000
    92 C36      2.5129   4.7555  -3.2514   C.ar      2 RES2   0.0000
    93 H43      2.8115   4.4631  -2.3885   H         2 RES2   0.0000
    94 C37      3.0250   1.6255  -3.1073   C.ar      2 RES2   0.0000
    95 C38      4.2636   2.0293  -3.6388   C.ar      2 RES2   0.0000
    96 H44      4.2680   2.7273  -4.2984   H         2 RES2   0.0000
    97 C39      5.4768   1.4410  -3.3010   C.ar      2 RES2   0.0000
    98 H45      6.2915   1.7253  -3.7221   H         2 RES2   0.0000
    99 C40      5.4631   0.4221  -2.3565   C.ar      2 RES2   0.0000
   100 H46      6.2987   0.0358  -2.0812   H         2 RES2   0.0000
   101 C41      4.2993  -0.0323  -1.8330   C.ar      2 RES2   0.0000
   102 H47      4.3113  -0.7682  -1.2183   H         2 RES2   0.0000
   103 C42      3.0892   0.5754  -2.1660   C.ar      2 RES2   0.0000
   104 H48      2.2772   0.2851  -1.7450   H         2 RES2   0.0000
   105 C43      0.5090   2.2246  -2.3773   C.ar      2 RES2   0.0000
   106 C44     -0.2160   1.0056  -2.0683   C.ar      2 RES2   0.0000
   107 H49      0.0578   0.2142  -2.5358   H         2 RES2   0.0000
   108 C45     -1.0559   0.8698  -0.9909   C.ar      2 RES2   0.0000
   109 H50     -1.4656   0.0207  -0.8068   H         2 RES2   0.0000
   110 C46     -1.3102   1.9524  -0.1697   C.ar      2 RES2   0.0000
   111 H51     -1.9337   1.8605   0.5555   H         2 RES2   0.0000
   112 C47     -0.6965   3.1459  -0.4098   C.ar      2 RES2   0.0000
   113 H52     -0.8678   3.8876   0.1745   H         2 RES2   0.0000
   114 C48      0.1723   3.2571  -1.4584   C.ar      2 RES2   0.0000
   115 H53      0.5954   4.1086  -1.5897   H         2 RES2   0.0000
   116 C49      0.9853   1.4746  -4.8603   C.ar      2 RES2   0.0000
   117 C50      1.7797   0.7066  -5.7408   C.ar      2 RES2   0.0000
   118 H54      2.7065   0.5847  -5.5215   H         2 RES2   0.0000
   119 C51      1.3176   0.1721  -6.9094   C.ar      2 RES2   0.0000
   120 H55      1.9107  -0.3291  -7.4761   H         2 RES2   0.0000
   121 C52     -0.0146   0.3775  -7.2712   C.ar      2 RES2   0.0000
   122 H56     -0.3566   0.0125  -8.0909   H         2 RES2   0.0000
   123 C53     -0.8388   1.1204  -6.4580   C.ar      2 RES2   0.0000
   124 H57     -1.7554   1.2701  -6.7029   H         2 RES2   0.0000
   125 C54     -0.3514   1.6388  -5.2797   C.ar      2 RES2   0.0000
   126 H58     -0.9506   2.1267  -4.7098   H         2 RES2   0.0000
@<TRIPOS>BOND
     1     1     6    1
     2     2    38    2
     3     3    38    1
     4     4    50    2
     5     5    50    1
     6     6    14    1
     7     7     1    1
     8     8     1    1
     9     9     1    1
    10    10     1    1
    11    11    64    1
    12    12     1    1
    13    13    74    1
    14    14    15   ar
    15    15    16    1
    16    17    15   ar
    17    18    17    1
    18    19    17   ar
    19    20    19    1
    20    21    19   ar
    21    22    21    1
    22    23     7    1
    23    24     7   un
    24    25    24    1
    25    26    24   un
    26    27     8   un
    27    28     8    1
    28    29    28    1
    29    30    28    1
    30    31     9    1
    31    32    31    1
    32    33    31    1
    33    34     9   un
    34    35    34   un
    35    36     6   un
    36    37    36    1
    37    38    35    1
    38    39     3    1
    39    40    39    1
    40    41    39    1
    41    42    39    1
    42    43    42    1
    43    44    42    1
    44    45    42    1
    45    46    34    1
    46    47    46    1
    47    48    46    1
    48    49    46    1
    49    50    26    1
    50    51     5    1
    51    52    51    1
    52    53    51    1
    53    54    51    1
    54    55    54    1
    55    56    54    1
    56    57    54    1
    57    58    27    1
    58    59    58    1
    59    60    58    1
    60    61    58    1
    61    62    10    1
    62    63    62    1
    63    64    62    2
    64    65    64    1
    65    66    10    2
    66    67    66    1
    67    68    11    1
    68    69    68    1
    69    70    68    1
    70    71    68    1
    71    72    12    1
    72    73    72    1
    73    74    72    2
    74    75    74    1
    75    76    12    2
    76    77    76    1
    77    78    13    1
    78    79    78    1
    79    80    78    1
    80    81    78    1
    81    11    66    1
    82    13    76    1
    83    14    23   ar
    84    21    23   ar
    85    26    27   un
    86    28    31    1
    87    35    36   un
    88    82    83    1
    89    83    84   ar
    90    84    85    1
    91    86    84   ar
    92    87    86    1
    93    88    86   ar
    94    89    88    1
    95    90    88   ar
    96    91    90    1
    97    92    83   ar
    98    93    92    1
    99    94    82    1
   100    95    94   ar
   101    96    95    1
   102    97    95   ar
   103    98    97    1
   104    99    97   ar
   105   100    99    1
   106   101    99   ar
   107   102   101    1
   108   103    94   ar
   109   104   103    1
   110   105    82    1
   111   106   105   ar
   112   107   106    1
   113   108   106   ar
   114   109   108    1
   115   110   108   ar
   116   111   110    1
   117   112   110   ar
   118   113   112    1
   119   114   105   ar
   120   115   114    1
   121   116    82    1
   122   117   116   ar
   123   118   117    1
   124   119   117   ar
   125   120   119    1
   126   121   119   ar
   127   122   121    1
   128   123   121   ar
   129   124   123    1
   130   125   116   ar
   131   126   125    1
   132    90    92   ar
   133   101   103   ar
   134   112   114   ar
   135   123   125   ar
@<TRIPOS>SUBSTRUCTURE
     1 RES1        1 GROUP             0 ****  ****    0  
     2 RES2       82 GROUP             0 ****  ****    0  
@<TRIPOS>CRYSIN
   10.0420   14.8490   16.3760   88.3000   77.8900   86.8100     2     1
