@<TRIPOS>MOLECULE
CESBAD
    92    96     4     0     0
SMALL
USER_CHARGES
****
Generated from the CSD

@<TRIPOS>ATOM
     1 Fe1      5.1470   2.5765   1.4477   Fe        1 RES1   1.0000
     2 N1       4.4616   1.3227   0.2288   N.2       1 RES1   0.0000
     3 N2       5.2117   1.1150   2.6475   N.2       1 RES1   0.0000
     4 N3       5.8258   3.8679   2.7007   N.2       1 RES1   0.0000
     5 N4       5.0431   4.0195   0.2217   N.2       1 RES1   0.0000
     6 N5       3.3066   3.0084   2.0499   N.2       1 RES1   0.0000
     7 N6       1.5400   4.1401   2.6635   N.pl3     1 RES1   0.0000
     8 H1       0.9747   5.0295   2.6617   H         1 RES1   0.0000
     9 N7       7.0037   2.1202   0.9132   N.2       1 RES1   0.0000
    10 N8       9.0685   1.4123   1.0356   N.pl3     1 RES1   0.0000
    11 H2       9.8194   1.2105   1.4594   H         1 RES1   0.0000
    12 O1       2.3357   4.0518  -3.0696   O.2       1 RES1   0.0000
    13 O2       2.3897   1.8432  -2.9986   O.3       1 RES1   0.0000
    14 O3       5.4366   1.2081   6.6498   O.2       1 RES1   0.0000
    15 O4       6.5317   3.1481   6.6888   O.3       1 RES1   0.0000
    16 C1       4.6329  -0.0310   0.6597   C.ar      1 RES1   0.0000
    17 C2       4.4207  -1.1699  -0.1011   C.ar      1 RES1   0.0000
    18 H3       4.2078  -1.2093  -1.0977   H         1 RES1   0.0000
    19 C3       4.6246  -2.4139   0.4717   C.ar      1 RES1   0.0000
    20 H4       4.5071  -3.3403  -0.1915   H         1 RES1   0.0000
    21 C4       5.0406  -2.5225   1.7857   C.ar      1 RES1   0.0000
    22 H5       5.2545  -3.3176   2.1971   H         1 RES1   0.0000
    23 C5       5.2669  -1.3944   2.5606   C.ar      1 RES1   0.0000
    24 H6       5.5643  -1.4015   3.5714   H         1 RES1   0.0000
    25 C6       5.0481  -0.1373   2.0020   C.ar      1 RES1   0.0000
    26 C7       5.4052   1.2439   3.9367   C.2       1 RES1   0.0000
    27 H7       5.4082   0.5181   4.5148   H         1 RES1   0.0000
    28 C8       5.6317   2.4401   4.6283   C.2       1 RES1   0.0000
    29 C9       5.7827   3.7402   4.0325   C.2       1 RES1   0.0000
    30 C10      6.2524   5.0402   2.0056   C.ar      1 RES1   0.0000
    31 C11      7.1550   5.9965   2.4808   C.ar      1 RES1   0.0000
    32 H8       7.5358   6.0012   3.4171   H         1 RES1   0.0000
    33 C12      7.6537   6.9730   1.6421   C.ar      1 RES1   0.0000
    34 H9       8.3410   7.6570   2.0074   H         1 RES1   0.0000
    35 C13      7.3006   6.9933   0.3139   C.ar      1 RES1   0.0000
    36 H10      7.6449   7.6236  -0.3795   H         1 RES1   0.0000
    37 C14      6.4161   6.0442  -0.1933   C.ar      1 RES1   0.0000
    38 H11      6.2198   5.9559  -1.2041   H         1 RES1   0.0000
    39 C15      5.8589   5.0975   0.6490   C.ar      1 RES1   0.0000
    40 C16      4.1459   4.1282  -0.7678   C.2       1 RES1   0.0000
    41 C17      3.5707   2.9463  -1.3264   C.2       1 RES1   0.0000
    42 C18      3.8358   1.6307  -0.8707   C.2       1 RES1   0.0000
    43 H12      3.4905   0.9359  -1.4328   H         1 RES1   0.0000
    44 C19      2.7135   3.0454  -2.5269   C.2       1 RES1   0.0000
    45 C20      1.6044   1.7871  -4.2186   C.3       1 RES1   0.0000
    46 H13      0.9725   2.5882  -4.3871   H         1 RES1   0.0000
    47 H14      1.0502   0.9180  -4.0466   H         1 RES1   0.0000
    48 C21      2.4513   1.8946  -5.4103   C.3       1 RES1   0.0000
    49 H15      2.1393   1.6474  -6.2881   H         1 RES1   0.0000
    50 H16      3.1586   2.3578  -5.5078   H         1 RES1   0.0000
    51 H17      3.0701   1.1628  -5.3926   H         1 RES1   0.0000
    52 C22      3.6834   5.4963  -1.2200   C.3       1 RES1   0.0000
    53 H18      4.0780   5.7076  -2.0641   H         1 RES1   0.0000
    54 H19      2.7606   5.4712  -1.2697   H         1 RES1   0.0000
    55 H20      4.0991   6.1922  -0.6597   H         1 RES1   0.0000
    56 C23      5.8210   2.1990   6.0700   C.2       1 RES1   0.0000
    57 C24      6.7873   2.9535   8.1163   C.3       1 RES1   0.0000
    58 H21      7.5608   2.1763   8.2919   H         1 RES1   0.0000
    59 H22      6.0898   2.4151   8.4657   H         1 RES1   0.0000
    60 C25      7.2711   4.3263   8.6004   C.3       1 RES1   0.0000
    61 H23      7.4631   4.2929   9.5403   H         1 RES1   0.0000
    62 H24      8.0670   4.5675   8.1199   H         1 RES1   0.0000
    63 H25      6.5875   4.9793   8.4355   H         1 RES1   0.0000
    64 C26      5.7480   4.9758   4.8960   C.3       1 RES1   0.0000
    65 H26      6.6979   5.2802   5.1957   H         1 RES1   0.0000
    66 H27      5.1295   4.7991   5.6320   H         1 RES1   0.0000
    67 H28      5.4245   5.7637   4.4013   H         1 RES1   0.0000
    68 C27      2.3157   2.1285   2.4241   C.2       1 RES1   0.0000
    69 H29      2.4896   1.2225   2.2716   H         1 RES1   0.0000
    70 C28      1.2294   2.8114   2.8124   C.2       1 RES1   0.0000
    71 H30      0.3569   2.6502   3.2664   H         1 RES1   0.0000
    72 C29      2.7908   4.2129   2.2148   C.2       1 RES1   0.0000
    73 H31      3.3867   5.0199   2.0145   H         1 RES1   0.0000
    74 C30      7.9578   1.6952   1.7343   C.2       1 RES1   0.0000
    75 H32      7.7771   1.6916   2.7255   H         1 RES1   0.0000
    76 C31      8.8283   1.6713  -0.2695   C.2       1 RES1   0.0000
    77 H33      9.4137   1.4290  -0.9984   H         1 RES1   0.0000
    78 C32      7.5454   2.1094  -0.3582   C.2       1 RES1   0.0000
    79 H34      6.9190   2.3697  -1.0214   H         1 RES1   0.0000
    80 P1       1.2147   9.3646  13.4243   P.3       2 RES2  -1.0000
    81 F1       2.3666  10.1974  14.0657   F         2 RES2   0.0000
    82 F2       0.9330   8.5715  14.7325   F         2 RES2   0.0000
    83 F3       2.2447   8.2969  12.9237   F         2 RES2   0.0000
    84 F4       0.1364  10.4231  13.8511   F         2 RES2   0.0000
    85 F5       0.0394   8.5106  12.7393   F         2 RES2   0.0000
    86 F6       1.4139  10.1533  12.0814   F         2 RES2   0.0000
    87 O5      10.9053   0.2698   2.8763   O.3       3 RES3   0.0000
    88 H35     11.2346  -0.4453   3.1174   H         3 RES3   0.0000
    89 H36     11.6269   0.7461   3.0376   H         3 RES3   0.0000
    90 O6       0.3792   6.0179  -3.7895   O.3       4 RES4   0.0000
    91 H37      0.8985   5.2300  -3.4632   H         4 RES4   0.0000
    92 H38      0.7874   6.6578  -4.3463   H         4 RES4   0.0000
@<TRIPOS>BOND
     1     1     2    1
     2     2    16    1
     3     3     1    1
     4     4     1    1
     5     5     1    1
     6     6     1    1
     7     7     8    1
     8     9     1    1
     9    10    11    1
    10    12    44    2
    11    13    44    1
    12    14    56    2
    13    15    56    1
    14    16    17   ar
    15    17    18    1
    16    19    17   ar
    17    20    19    1
    18    21    19   ar
    19    22    21    1
    20    23    21   ar
    21    24    23    1
    22    25     3    1
    23    26     3   un
    24    27    26    1
    25    28    26   un
    26    29     4   un
    27    30     4    1
    28    31    30   ar
    29    32    31    1
    30    33    31   ar
    31    34    33    1
    32    35    33   ar
    33    36    35    1
    34    37    35   ar
    35    38    37    1
    36    39     5    1
    37    40     5   un
    38    41    40   un
    39    42     2   un
    40    43    42    1
    41    44    41    1
    42    45    13    1
    43    46    45    1
    44    47    45    1
    45    48    45    1
    46    49    48    1
    47    50    48    1
    48    51    48    1
    49    52    40    1
    50    53    52    1
    51    54    52    1
    52    55    52    1
    53    56    28    1
    54    57    15    1
    55    58    57    1
    56    59    57    1
    57    60    57    1
    58    61    60    1
    59    62    60    1
    60    63    60    1
    61    64    29    1
    62    65    64    1
    63    66    64    1
    64    67    64    1
    65    68     6    1
    66    69    68    1
    67    70     7    1
    68    71    70    1
    69    72     6    2
    70    73    72    1
    71    74     9    2
    72    75    74    1
    73    76    10    1
    74    77    76    1
    75    78     9    1
    76    79    78    1
    77     7    72    1
    78    10    74    1
    79    16    25   ar
    80    23    25   ar
    81    28    29   un
    82    30    39   ar
    83    37    39   ar
    84    41    42   un
    85    68    70    2
    86    76    78    2
    87    80    81    1
    88    82    80    1
    89    83    80    1
    90    84    80    1
    91    85    80    1
    92    86    80    1
    93    87    88    1
    94    89    87    1
    95    90    91    1
    96    92    90    1
@<TRIPOS>SUBSTRUCTURE
     1 RES1        1 GROUP             0 ****  ****    0  
     2 RES2       80 GROUP             0 ****  ****    0  
     3 RES3       87 GROUP             0 ****  ****    0  
     4 RES4       90 GROUP             0 ****  ****    0  
@<TRIPOS>CRYSIN
   17.1350   11.9380   17.7950   90.0000   94.7900   90.0000   231     1
