@<TRIPOS>MOLECULE
CESGOW
   135   142     2     0     0
SMALL
USER_CHARGES
****
Generated from the CSD

@<TRIPOS>ATOM
     1 Fe1      2.1276  -0.1698  19.4119   Fe        1 RES1   1.0000
     2 P1       3.5824  -1.8523  19.2404   P.3       1 RES1   0.0000
     3 N1       2.3070  -0.2075  21.2710   N.2       1 RES1   0.0000
     4 N2       3.6012   1.0142  19.4351   N.2       1 RES1   0.0000
     5 N3       1.9431  -0.0999  17.5280   N.2       1 RES1   0.0000
     6 N4       0.6702  -1.3921  19.4519   N.2       1 RES1   0.0000
     7 N5       0.7552   1.4313  19.5984   N.ar      1 RES1   0.0000
     8 N6      -2.8534   5.3825  20.0317   N.1       1 RES1   0.0000
     9 O1       5.1129   0.9516  14.9741   O.2       1 RES1   0.0000
    10 O2       5.8556   2.4123  16.5190   O.3       1 RES1   0.0000
    11 O3       0.0325  -4.1960  22.5857   O.2       1 RES1   0.0000
    12 O4       1.8393  -3.2914  23.5340   O.3       1 RES1   0.0000
    13 O5       3.1473  -3.3227  19.5586   O.3       1 RES1   0.0000
    14 O6       4.1676  -1.8875  17.8169   O.3       1 RES1   0.0000
    15 O7       4.7953  -1.6976  20.2243   O.3       1 RES1   0.0000
    16 C1       3.0872   0.9398  21.7881   C.3       1 RES1   0.0000
    17 H1       3.4899   0.7205  22.6317   H         1 RES1   0.0000
    18 H2       2.5021   1.6898  21.9158   H         1 RES1   0.0000
    19 C2       4.1263   1.2903  20.7602   C.3       1 RES1   0.0000
    20 H3       4.3676   2.2165  20.8272   H         1 RES1   0.0000
    21 H4       4.9116   0.7597  20.9173   H         1 RES1   0.0000
    22 C3       4.2564   1.4548  18.3842   C.2       1 RES1   0.0000
    23 H5       5.0504   1.9717  18.5371   H         1 RES1   0.0000
    24 C4       3.9138   1.2257  17.0801   C.2       1 RES1   0.0000
    25 C5       2.7521   0.4386  16.6321   C.2       1 RES1   0.0000
    26 C6       0.8178  -0.9359  17.0549   C.3       1 RES1   0.0000
    27 H6       1.1716  -1.7230  16.6362   H         1 RES1   0.0000
    28 H7       0.3276  -0.4405  16.3955   H         1 RES1   0.0000
    29 C7      -0.0775  -1.3236  18.2084   C.3       1 RES1   0.0000
    30 H8      -0.7903  -0.6853  18.2879   H         1 RES1   0.0000
    31 H9      -0.4626  -2.1851  18.0263   H         1 RES1   0.0000
    32 C8       0.2401  -2.1342  20.4400   C.2       1 RES1   0.0000
    33 C9       0.9653  -2.1499  21.6688   C.2       1 RES1   0.0000
    34 C10      1.8693  -1.1141  22.0770   C.2       1 RES1   0.0000
    35 H10      2.1469  -1.0828  22.9960   H         1 RES1   0.0000
    36 C11      4.9453   1.4744  16.0962   C.2       1 RES1   0.0000
    37 C12      7.0535   2.5806  15.6356   C.3       1 RES1   0.0000
    38 H11      6.7872   2.8176  14.7438   H         1 RES1   0.0000
    39 H12      7.5762   1.7779  15.6021   H         1 RES1   0.0000
    40 C13      7.8313   3.6752  16.2385   C.3       1 RES1   0.0000
    41 H13      8.6240   3.8533  15.7277   H         1 RES1   0.0000
    42 H14      7.2848   4.4642  16.2699   H         1 RES1   0.0000
    43 H15      8.0776   3.4206  17.1303   H         1 RES1   0.0000
    44 C14      2.4570   0.3113  15.1813   C.3       1 RES1   0.0000
    45 H16      1.6643  -0.2193  15.0704   H         1 RES1   0.0000
    46 H17      2.3270   1.1689  14.7689   H         1 RES1   0.0000
    47 H18      3.2010  -0.1312  14.7668   H         1 RES1   0.0000
    48 C15      0.8353  -3.2855  22.5794   C.2       1 RES1   0.0000
    49 C16      1.9294  -4.4133  24.4363   C.3       1 RES1   0.0000
    50 H19      1.0428  -4.6953  24.6770   H         1 RES1   0.0000
    51 H20      2.3883  -4.1529  25.2380   H         1 RES1   0.0000
    52 C17      2.6296  -5.5490  23.8082   C.3       1 RES1   0.0000
    53 H21      2.6759  -6.2930  24.4153   H         1 RES1   0.0000
    54 H22      2.1619  -5.8133  23.0127   H         1 RES1   0.0000
    55 H23      3.5186  -5.2670  23.5801   H         1 RES1   0.0000
    56 C18     -1.0078  -2.9507  20.2830   C.3       1 RES1   0.0000
    57 H24     -1.3629  -2.7941  19.4037   H         1 RES1   0.0000
    58 H25     -0.8065  -3.8827  20.3855   H         1 RES1   0.0000
    59 H26     -1.6555  -2.6864  20.9403   H         1 RES1   0.0000
    60 C19     -0.3101   1.3275  20.3625   C.ar      1 RES1   0.0000
    61 H27     -0.4301   0.4993  20.8356   H         1 RES1   0.0000
    62 C20     -1.2942   2.3144  20.4902   C.ar      1 RES1   0.0000
    63 H28     -2.0544   2.2125  21.0659   H         1 RES1   0.0000
    64 C21     -1.0666   3.5068  19.7973   C.ar      1 RES1   0.0000
    65 C22      0.0538   3.6458  19.0227   C.ar      1 RES1   0.0000
    66 H29      0.2213   4.4642  18.5517   H         1 RES1   0.0000
    67 C23      0.9641   2.5885  18.9369   C.ar      1 RES1   0.0000
    68 H30      1.7531   2.6825  18.3968   H         1 RES1   0.0000
    69 C24     -2.0532   4.5798  19.9354   C.1       1 RES1   0.0000
    70 C25      5.5618  -2.6355  21.0094   C.3       1 RES1   0.0000
    71 H31      6.4721  -2.3281  21.0366   H         1 RES1   0.0000
    72 H32      5.5593  -3.4794  20.5530   H         1 RES1   0.0000
    73 C26      5.1104  -2.7941  22.2821   C.3       1 RES1   0.0000
    74 H33      5.6881  -3.4324  22.7071   H         1 RES1   0.0000
    75 H34      5.1366  -1.9658  22.7657   H         1 RES1   0.0000
    76 H35      4.2113  -3.1328  22.2738   H         1 RES1   0.0000
    77 C27      5.3442  -2.6081  17.3731   C.3       1 RES1   0.0000
    78 H36      5.0904  -3.1759  16.6404   H         1 RES1   0.0000
    79 H37      5.6668  -3.1680  18.0828   H         1 RES1   0.0000
    80 C28      6.3220  -1.8484  16.8812   C.3       1 RES1   0.0000
    81 H38      7.0735  -2.3692  16.5839   H         1 RES1   0.0000
    82 H39      6.0082  -1.3001  16.1610   H         1 RES1   0.0000
    83 H40      6.5896  -1.2923  17.6160   H         1 RES1   0.0000
    84 C29      2.5308  -4.1862  18.7129   C.3       1 RES1   0.0000
    85 H41      2.9209  -4.0863  17.8420   H         1 RES1   0.0000
    86 H42      1.6055  -3.9375  18.6501   H         1 RES1   0.0000
    87 C30      2.6133  -5.5509  19.0206   C.3       1 RES1   0.0000
    88 H43      2.1557  -6.0953  18.3759   H         1 RES1   0.0000
    89 H44      3.5349  -5.8133  19.0667   H         1 RES1   0.0000
    90 H45      2.2045  -5.6625  19.8810   H         1 RES1   0.0000
    91 B1      -4.1301   1.7328  23.8773   B         2 RES2  -1.0000
    92 C31     -4.2901   0.3857  24.8194   C.ar      2 RES2   0.0000
    93 C32     -3.6037   0.3348  26.0838   C.ar      2 RES2   0.0000
    94 H46     -2.9935   0.9986  26.3119   H         2 RES2   0.0000
    95 C33     -3.8675  -0.7460  26.9860   C.ar      2 RES2   0.0000
    96 H47     -3.4674  -0.7597  27.8255   H         2 RES2   0.0000
    97 C34     -4.7315  -1.7916  26.6008   C.ar      2 RES2   0.0000
    98 H48     -4.8828  -2.5043  27.1786   H         2 RES2   0.0000
    99 C35     -5.3655  -1.7602  25.3532   C.ar      2 RES2   0.0000
   100 H49     -5.9407  -2.4436  25.0936   H         2 RES2   0.0000
   101 C36     -5.1141  -0.6814  24.5053   C.ar      2 RES2   0.0000
   102 H50     -5.5280  -0.6794  23.6722   H         2 RES2   0.0000
   103 C37     -5.1829   2.7627  24.5326   C.ar      2 RES2   0.0000
   104 C38     -4.8628   3.6673  25.5458   C.ar      2 RES2   0.0000
   105 H51     -3.9700   3.7496  25.7949   H         2 RES2   0.0000
   106 C39     -5.7956   4.4525  26.2010   C.ar      2 RES2   0.0000
   107 H52     -5.5305   5.0340  26.8751   H         2 RES2   0.0000
   108 C40     -7.1986   4.3526  25.8158   C.ar      2 RES2   0.0000
   109 H53     -7.8438   4.8833  26.2240   H         2 RES2   0.0000
   110 C41     -7.5424   3.4617  24.8487   C.ar      2 RES2   0.0000
   111 H54     -8.4352   3.3736  24.6058   H         2 RES2   0.0000
   112 C42     -6.5558   2.6570  24.1997   C.ar      2 RES2   0.0000
   113 H55     -6.8209   2.0520  23.5445   H         2 RES2   0.0000
   114 C43     -4.3964   1.4450  22.2738   C.ar      2 RES2   0.0000
   115 C44     -4.8666   2.4573  21.4678   C.ar      2 RES2   0.0000
   116 H56     -5.1216   3.2581  21.8656   H         2 RES2   0.0000
   117 C45     -4.9803   2.3398  20.0736   C.ar      2 RES2   0.0000
   118 H57     -5.2404   3.0721  19.5649   H         2 RES2   0.0000
   119 C46     -4.7090   1.1572  19.4665   C.ar      2 RES2   0.0000
   120 H58     -4.8315   1.0495  18.5517   H         2 RES2   0.0000
   121 C47     -4.2414   0.1057  20.2516   C.ar      2 RES2   0.0000
   122 H59     -4.0525  -0.7088  19.8475   H         2 RES2   0.0000
   123 C48     -4.0425   0.2428  21.6625   C.ar      2 RES2   0.0000
   124 H60     -3.6849  -0.4562  22.1628   H         2 RES2   0.0000
   125 C49     -2.5658   2.3104  23.8648   C.ar      2 RES2   0.0000
   126 C50     -1.4667   1.4430  23.9736   C.ar      2 RES2   0.0000
   127 H61     -1.6205   0.5482  24.1746   H         2 RES2   0.0000
   128 C51     -0.1663   1.8699  23.7894   C.ar      2 RES2   0.0000
   129 H62      0.5302   1.2531  23.8145   H         2 RES2   0.0000
   130 C52      0.1100   3.2131  23.5675   C.ar      2 RES2   0.0000
   131 H63      0.9878   3.5127  23.4942   H         2 RES2   0.0000
   132 C53     -0.9891   4.1333  23.4565   C.ar      2 RES2   0.0000
   133 H64     -0.8353   5.0301  23.2702   H         2 RES2   0.0000
   134 C54     -2.2882   3.6595  23.6303   C.ar      2 RES2   0.0000
   135 H65     -2.9947   4.2626  23.5884   H         2 RES2   0.0000
@<TRIPOS>BOND
     1     1     2    1
     2     2    13    1
     3     3     1    1
     4     4     1    1
     5     5     1    1
     6     6     1    1
     7     7     1    1
     8     8    69    3
     9     9    36    2
    10    10    36    1
    11    11    48    2
    12    12    48    1
    13    13    84    1
    14    14     2    1
    15    15     2    1
    16    16     3    1
    17    17    16    1
    18    18    16    1
    19    19     4    1
    20    20    19    1
    21    21    19    1
    22    22     4   un
    23    23    22    1
    24    24    22   un
    25    25     5   un
    26    26     5    1
    27    27    26    1
    28    28    26    1
    29    29     6    1
    30    30    29    1
    31    31    29    1
    32    32     6   un
    33    33    32   un
    34    34     3   un
    35    35    34    1
    36    36    24    1
    37    37    10    1
    38    38    37    1
    39    39    37    1
    40    40    37    1
    41    41    40    1
    42    42    40    1
    43    43    40    1
    44    44    25    1
    45    45    44    1
    46    46    44    1
    47    47    44    1
    48    48    33    1
    49    49    12    1
    50    50    49    1
    51    51    49    1
    52    52    49    1
    53    53    52    1
    54    54    52    1
    55    55    52    1
    56    56    32    1
    57    57    56    1
    58    58    56    1
    59    59    56    1
    60    60     7   ar
    61    61    60    1
    62    62    60   ar
    63    63    62    1
    64    64    62   ar
    65    65    64   ar
    66    66    65    1
    67    67     7   ar
    68    68    67    1
    69    69    64    1
    70    70    15    1
    71    71    70    1
    72    72    70    1
    73    73    70    1
    74    74    73    1
    75    75    73    1
    76    76    73    1
    77    77    14    1
    78    78    77    1
    79    79    77    1
    80    80    77    1
    81    81    80    1
    82    82    80    1
    83    83    80    1
    84    84    85    1
    85    86    84    1
    86    87    84    1
    87    88    87    1
    88    89    87    1
    89    90    87    1
    90    16    19    1
    91    24    25   un
    92    26    29    1
    93    33    34   un
    94    65    67   ar
    95    91    92    1
    96    92    93   ar
    97    93    94    1
    98    95    93   ar
    99    96    95    1
   100    97    95   ar
   101    98    97    1
   102    99    97   ar
   103   100    99    1
   104   101    92   ar
   105   102   101    1
   106   103    91    1
   107   104   103   ar
   108   105   104    1
   109   106   104   ar
   110   107   106    1
   111   108   106   ar
   112   109   108    1
   113   110   108   ar
   114   111   110    1
   115   112   103   ar
   116   113   112    1
   117   114    91    1
   118   115   114   ar
   119   116   115    1
   120   117   115   ar
   121   118   117    1
   122   119   117   ar
   123   120   119    1
   124   121   119   ar
   125   122   121    1
   126   123   114   ar
   127   124   123    1
   128   125    91    1
   129   126   125   ar
   130   127   126    1
   131   128   126   ar
   132   129   128    1
   133   130   128   ar
   134   131   130    1
   135   132   130   ar
   136   133   132    1
   137   134   125   ar
   138   135   134    1
   139    99   101   ar
   140   110   112   ar
   141   121   123   ar
   142   132   134   ar
@<TRIPOS>SUBSTRUCTURE
     1 RES1        1 GROUP             0 ****  ****    0  
     2 RES2       91 GROUP             0 ****  ****    0  
@<TRIPOS>CRYSIN
   12.5040   19.5800   20.9340   90.0000   90.0000   90.0000    19     1
