@<TRIPOS>MOLECULE
CETNEV
   112   123     7     0     0
SMALL
NO_CHARGES
****
Generated from the CSD

@<TRIPOS>ATOM
     1 S1      28.3871   1.4771   8.0241   S.3       1 RES1   0.0000
     2 S2      29.0678   4.1795   7.0443   S.3       1 RES1   0.0000
     3 S3      25.8333   1.3947   6.0857   S.3       1 RES1   0.0000
     4 S4      26.4512   4.1126   5.1079   S.3       1 RES1   0.0000
     5 S5      30.5645   1.3362  10.0001   S.3       1 RES1   0.0000
     6 S6      31.3722   4.5589   8.8235   S.3       1 RES1   0.0000
     7 S7      23.1734   1.2431   4.7619   S.3       1 RES1   0.0000
     8 S8      23.9153   4.4737   3.6374   S.3       1 RES1   0.0000
     9 C1      27.9679   2.8216   6.9833   C.2       1 RES1   0.0000
    10 C2      26.8856   2.7879   6.1587   C.2       1 RES1   0.0000
    11 C3      29.7556   2.2790   8.7748   C.2       1 RES1   0.0000
    12 C4      30.0598   3.5166   8.3321   C.2       1 RES1   0.0000
    13 C5      24.6207   2.1647   5.0501   C.2       1 RES1   0.0000
    14 C6      24.8996   3.4101   4.6229   C.2       1 RES1   0.0000
    15 C7      32.1681   2.1691  10.0303   C.3       1 RES1   0.0000
    16 H1      32.7152   1.7869  10.7616   H         1 RES1   0.0000
    17 H2      32.6363   1.9920   9.1768   H         1 RES1   0.0000
    18 C8      32.0617   3.6645  10.2296   C.3       1 RES1   0.0000
    19 H3      32.9625   4.0233  10.4205   H         1 RES1   0.0000
    20 H4      31.4955   3.8383  11.0229   H         1 RES1   0.0000
    21 C9      22.0237   2.5974   4.4855   C.3       1 RES1   0.0000
    22 H5      21.1219   2.2274   4.3039   H         1 RES1   0.0000
    23 H6      21.9671   3.1478   5.3066   H         1 RES1   0.0000
    24 C10     22.4374   3.4695   3.3363   C.3       1 RES1   0.0000
    25 H7      21.6868   4.0748   3.1139   H         1 RES1   0.0000
    26 H8      22.6032   2.8955   2.5467   H         1 RES1   0.0000
    27 S9      30.5611   1.4998   4.6149   S.3       2 RES2   0.0000
    28 S10     31.2332   4.2082   3.7588   S.3       2 RES2   0.0000
    29 S11     27.9125   1.5432   2.8051   S.3       2 RES2   0.0000
    30 S12     28.6215   4.1826   1.7772   S.3       2 RES2   0.0000
    31 S13     32.7705   1.2216   6.5322   S.3       2 RES2   0.0000
    32 S14     33.5625   4.5168   5.5467   S.3       2 RES2   0.0000
    33 S15     25.3347   1.3436   1.3838   S.3       2 RES2   0.0000
    34 S16     26.2181   4.5043   0.0951   S.3       2 RES2   0.0000
    35 C11     30.1444   2.8664   3.6483   C.2       2 RES2   0.0000
    36 C12     29.0156   2.8675   2.8316   C.2       2 RES2   0.0000
    37 C13     31.9519   2.2319   5.3687   C.2       2 RES2   0.0000
    38 C14     32.2623   3.4953   4.9823   C.2       2 RES2   0.0000
    39 C15     26.7758   2.2756   1.6947   C.2       2 RES2   0.0000
    40 C16     27.0997   3.5110   1.2205   C.2       2 RES2   0.0000
    41 C17     34.3633   2.0694   6.6323   C.3       2 RES2   0.0000
    42 H9      34.9018   1.6467   7.3474   H         2 RES2   0.0000
    43 H10     34.8457   1.9393   5.7774   H         2 RES2   0.0000
    44 C18     34.2648   3.5502   6.9112   C.3       2 RES2   0.0000
    45 H11     35.1722   3.8966   7.1120   H         2 RES2   0.0000
    46 H12     33.7085   3.6847   7.7162   H         2 RES2   0.0000
    47 C19     24.6832   2.1714  -0.0905   C.3       2 RES2   0.0000
    48 H13     25.2545   1.9405  -0.8637   H         2 RES2   0.0000
    49 H14     23.7723   1.8239  -0.2743   H         2 RES2   0.0000
    50 C20     24.6127   3.6702   0.0285   C.3       2 RES2   0.0000
    51 H15     24.1044   3.8977   0.8471   H         2 RES2   0.0000
    52 H16     24.1052   4.0244  -0.7451   H         2 RES2   0.0000
    53 S17     32.7653   1.4305   1.3866   S.3       3 RES3   0.0000
    54 S18     33.4521   4.1339   0.4943   S.3       3 RES3   0.0000
    55 S19     35.0620   1.0791   3.1504   S.3       3 RES3   0.0000
    56 S20     35.9161   4.3425   2.0886   S.3       3 RES3   0.0000
    57 C21     32.3705   2.7991   0.4076   C.2       3 RES3   0.0000
    58 C22     34.2395   2.1164   2.0192   C.2       3 RES3   0.0000
    59 C23     34.5680   3.3731   1.6083   C.2       3 RES3   0.0000
    60 C24     36.6091   1.9730   3.4040   C.3       3 RES3   0.0000
    61 H17     37.0603   1.6053   4.2038   H         3 RES3   0.0000
    62 H18     37.1985   1.8138   2.6264   H         3 RES3   0.0000
    63 C25     36.4326   3.4740   3.5860   C.3       3 RES3   0.0000
    64 H19     37.2913   3.8596   3.8980   H         3 RES3   0.0000
    65 H20     35.7594   3.6309   4.2928   H         3 RES3   0.0000
    66 S17E    30.8534   4.1745  -1.3866   S.3       3 RES3   0.0000
    67 S18E    30.1667   1.4711  -0.4943   S.3       3 RES3   0.0000
    68 S19E    28.5567   4.5259  -3.1504   S.3       3 RES3   0.0000
    69 S20E    27.7026   1.2625  -2.0886   S.3       3 RES3   0.0000
    70 C21E    31.2482   2.8059  -0.4076   C.2       3 RES3   0.0000
    71 C22E    29.3792   3.4886  -2.0192   C.2       3 RES3   0.0000
    72 C23E    29.0507   2.2319  -1.6083   C.2       3 RES3   0.0000
    73 C24E    27.0097   3.6320  -3.4040   C.3       3 RES3   0.0000
    74 H17E    26.5584   3.9997  -4.2038   H         3 RES3   0.0000
    75 H18E    26.4203   3.7912  -2.6264   H         3 RES3   0.0000
    76 C25E    27.1862   2.1310  -3.5860   C.3       3 RES3   0.0000
    77 H19E    26.3275   1.7454  -3.8980   H         3 RES3   0.0000
    78 H20E    27.8594   1.9741  -4.2928   H         3 RES3   0.0000
    79 Fe1     19.0560   9.7454   4.6338   Fe        4 RES4   0.0000
    80 C26     20.5185  10.9230   2.6292   C.2       4 RES4   0.0000
    81 C27     19.2382  11.5104   2.5430   C.2       4 RES4   0.0000
    82 C28     19.2239  12.5462   1.5180   C.2       4 RES4   0.0000
    83 C29     20.6614  12.6269   1.0215   C.2       4 RES4   0.0000
    84 C30     21.4439  11.5306   1.6841   C.2       4 RES4   0.0000
    85 C31     19.4585   7.0881   5.2216   C.2       4 RES4   0.0000
    86 C32     19.7533   5.7294   5.6292   C.2       4 RES4   0.0000
    87 C33     19.0560   4.8472   4.6338   C.2       4 RES4   0.0000
    88 O1      20.7252   9.9803   3.4843   O.3       4 RES4   0.0000
    89 O2      18.2929  11.1080   3.3124   O.3       4 RES4   0.0000
    90 O3      18.3006  13.2244   1.1040   O.2       4 RES4   0.0000
    91 O4      21.0975  13.4486   0.2326   O.2       4 RES4   0.0000
    92 O5      22.6212  11.2526   1.4522   O.2       4 RES4   0.0000
    93 O6      19.8112   8.2091   5.7402   O.3       4 RES4   0.0000
    94 O7      20.4436   5.3517   6.5782   O.2       4 RES4   0.0000
    95 O8      19.0560   3.6208   4.6338   O.2       4 RES4   0.0000
    96 C26B    17.5935  10.9230   6.6384   C.2       4 RES4   0.0000
    97 C27B    18.8738  11.5104   6.7246   C.2       4 RES4   0.0000
    98 C28B    18.8881  12.5462   7.7496   C.2       4 RES4   0.0000
    99 C29B    17.4506  12.6269   8.2461   C.2       4 RES4   0.0000
   100 C30B    16.6681  11.5306   7.5835   C.2       4 RES4   0.0000
   101 C31B    18.6535   7.0881   4.0461   C.2       4 RES4   0.0000
   102 C32B    18.3587   5.7294   3.6385   C.2       4 RES4   0.0000
   103 O1B     17.3868   9.9803   5.7834   O.3       4 RES4   0.0000
   104 O2B     19.8191  11.1080   5.9552   O.3       4 RES4   0.0000
   105 O3B     19.8114  13.2244   8.1637   O.2       4 RES4   0.0000
   106 O4B     17.0146  13.4486   9.0350   O.2       4 RES4   0.0000
   107 O5B     15.4908  11.2526   7.8154   O.2       4 RES4   0.0000
   108 O6B     18.3008   8.2091   3.5274   O.3       4 RES4   0.0000
   109 O7B     17.6684   5.3517   2.6895   O.2       4 RES4   0.0000
   110 O9      19.0201   4.5445   0.2354   O.3       5 RES5   0.0000
   111 O10     21.6810   7.2988   2.6913   O.3       6 RES6   0.0000
   112 O11     21.3876   5.3786   0.9490   O.3       7 RES7   0.0000
@<TRIPOS>BOND
     1     1     9    1
     2     2     9    1
     3     3    10    1
     4     4    10    1
     5     5    11    1
     6     6    12    1
     7     7    13    1
     8     8    14    1
     9     9    10    2
    10    11     1    1
    11    12     2    1
    12    13     3    1
    13    14     4    1
    14    15     5    1
    15    16    15    1
    16    17    15    1
    17    18     6    1
    18    19    18    1
    19    20    18    1
    20    21     7    1
    21    22    21    1
    22    23    21    1
    23    24     8    1
    24    25    24    1
    25    26    24    1
    26    11    12    2
    27    13    14    2
    28    15    18    1
    29    21    24    1
    30    27    35    1
    31    28    35    1
    32    29    36    1
    33    30    36    1
    34    31    37    1
    35    32    38    1
    36    33    39    1
    37    34    40    1
    38    35    36    2
    39    37    27    1
    40    38    28    1
    41    39    29    1
    42    40    30    1
    43    41    31    1
    44    42    41    1
    45    43    41    1
    46    44    32    1
    47    45    44    1
    48    46    44    1
    49    47    33    1
    50    48    47    1
    51    49    47    1
    52    50    34    1
    53    51    50    1
    54    52    50    1
    55    37    38    2
    56    39    40    2
    57    41    44    1
    58    47    50    1
    59    53    57    1
    60    54    57    1
    61    55    58    1
    62    56    59    1
    63    57    70    2
    64    58    53    1
    65    59    54    1
    66    60    55    1
    67    61    60    1
    68    62    60    1
    69    63    56    1
    70    64    63    1
    71    65    63    1
    72    66    70    1
    73    67    70    1
    74    68    71    1
    75    69    72    1
    76    71    66    1
    77    72    67    1
    78    73    68    1
    79    74    73    1
    80    75    73    1
    81    76    69    1
    82    77    76    1
    83    78    76    1
    84    58    59    2
    85    60    63    1
    86    71    72    2
    87    73    76    1
    88    79    88    1
    89    80    81    2
    90    81    82    1
    91    82    83    1
    92    83    84    1
    93    84    80    1
    94    85    86    1
    95    86    87    1
    96    87    95    2
    97    88    80    1
    98    89    79    1
    99    90    82    2
   100    91    83    2
   101    92    84    2
   102    93    79    1
   103    94    86    2
   104    96    97    2
   105    97    98    1
   106    98    99    1
   107    99   100    1
   108   100    96    1
   109   101    85    2
   110   102    87    1
   111   103    79    1
   112   104    79    1
   113   105    98    2
   114   106    99    2
   115   107   100    2
   116   108    79    1
   117   109   102    2
   118    81    89    1
   119    85    93    1
   120    96   103    1
   121    97   104    1
   122   101   102    1
   123   101   108    1
@<TRIPOS>SUBSTRUCTURE
     1 RES1        1 GROUP             0 ****  ****    0  
     2 RES2       27 GROUP             0 ****  ****    0  
     3 RES3       53 GROUP             0 ****  ****    0  
     4 RES4       79 GROUP             0 ****  ****    0  
     5 RES5      110 GROUP             0 ****  ****    0  
     6 RES6      111 GROUP             0 ****  ****    0  
     7 RES7      112 GROUP             0 ****  ****    0  
@<TRIPOS>CRYSIN
   42.4125   11.2100   20.4336   90.0000  114.8929   90.0000    15     1
