@<TRIPOS>MOLECULE
CETNAR
   174   194     7     0     0
SMALL
NO_CHARGES
****
Generated from the CSD

@<TRIPOS>ATOM
     1 C1      14.0539  14.2364   6.8533   C.3       1 RES1   0.0000
     2 H1      13.5464  13.8884   6.0774   H         1 RES1   0.0000
     3 H2      14.9302  13.7781   6.8558   H         1 RES1   0.0000
     4 C2      13.3384  13.8410   8.0680   C.3       1 RES1   0.0000
     5 H3      13.1579  12.8699   8.0133   H         1 RES1   0.0000
     6 H4      12.4643  14.3038   8.0718   H         1 RES1   0.0000
     7 C3      14.8379  16.4794   8.1874   C.2       1 RES1   0.0000
     8 C4      14.7404  15.7602   9.3599   C.2       1 RES1   0.0000
     9 C5      15.7510  18.0564   9.9641   C.2       1 RES1   0.0000
    10 C6      16.1623  19.2457  10.5746   C.2       1 RES1   0.0000
    11 C7      16.7621  21.6536  11.0956   C.2       1 RES1   0.0000
    12 C8      16.7110  21.0314  12.2879   C.2       1 RES1   0.0000
    13 C9      16.1597  23.9173  12.2631   C.3       1 RES1   0.0000
    14 H5      16.0797  24.9022  12.2307   H         1 RES1   0.0000
    15 H6      15.2429  23.5388  12.2457   H         1 RES1   0.0000
    16 C10     16.8542  23.5045  13.5947   C.3       1 RES1   0.0000
    17 H7      16.3555  23.9087  14.3481   H         1 RES1   0.0000
    18 H8      17.7668  23.8843  13.6046   H         1 RES1   0.0000
    19 S1      14.3400  15.9398   6.5860   S.3       1 RES1   0.0000
    20 S2      14.1436  14.1671   9.6384   S.3       1 RES1   0.0000
    21 S3      15.5405  18.0314   8.2346   S.3       1 RES1   0.0000
    22 S4      15.3352  16.6052  10.7661   S.3       1 RES1   0.0000
    23 S5      16.3977  20.6797   9.7130   S.3       1 RES1   0.0000
    24 S6      16.4014  19.3383  12.2879   S.3       1 RES1   0.0000
    25 S7      17.0413  23.3602  10.8394   S.3       1 RES1   0.0000
    26 S8      16.9648  21.7594  13.8645   S.3       1 RES1   0.0000
    27 C11     18.1599  12.8137   7.6018   C.3       2 RES2   0.0000
    28 H9      17.9199  12.1424   6.9155   H         2 RES2   0.0000
    29 H10     19.1340  12.7355   7.7671   H         2 RES2   0.0000
    30 C12     17.4186  12.4786   8.8949   C.3       2 RES2   0.0000
    31 H11     17.5691  11.5229   9.1062   H         2 RES2   0.0000
    32 H12     16.4478  12.6027   8.7432   H         2 RES2   0.0000
    33 C13     18.2827  15.4419   8.3465   C.2       2 RES2   0.0000
    34 C14     18.3293  14.9921   9.6359   C.2       2 RES2   0.0000
    35 C15     19.1266  17.4543   9.6583   C.2       2 RES2   0.0000
    36 C16     19.5477  18.6907  10.0387   C.2       2 RES2   0.0000
    37 C17     20.2275  21.1913  10.1892   C.2       2 RES2   0.0000
    38 C18     20.2479  20.7121  11.4561   C.2       2 RES2   0.0000
    39 C19     21.4878  23.4589  10.9936   C.3       2 RES2   0.0000
    40 H13     22.3731  23.0270  11.0869   H         2 RES2   0.0000
    41 H14     21.6391  24.4216  10.8258   H         2 RES2   0.0000
    42 C20     20.7426  23.3059  12.2780   C.3       2 RES2   0.0000
    43 H15     19.8186  23.6365  12.1474   H         2 RES2   0.0000
    44 H16     21.1698  23.8790  12.9618   H         2 RES2   0.0000
    45 S9      17.8297  14.4359   6.9465   S.3       2 RES2   0.0000
    46 S10     17.9095  13.4632  10.3110   S.3       2 RES2   0.0000
    47 S11     18.8060  17.0294   7.9984   S.3       2 RES2   0.0000
    48 S12     18.8797  16.1707  10.7748   S.3       2 RES2   0.0000
    49 S13     19.7717  20.0169   8.9881   S.3       2 RES2   0.0000
    50 S14     19.8750  19.0496  11.7172   S.3       2 RES2   0.0000
    51 S15     20.6574  22.7572   9.5837   S.3       2 RES2   0.0000
    52 S16     20.6633  21.6167  12.9121   S.3       2 RES2   0.0000
    53 C21      4.4558  20.4161  11.5183   C.3       3 RES3   0.0000
    54 H17      3.5647  20.8185  11.6712   H         3 RES3   0.0000
    55 H18      5.0644  20.8417  12.1735   H         3 RES3   0.0000
    56 C22      4.8459  20.8489  10.3334   C.3       3 RES3   0.0000
    57 H19      5.8326  20.7744  10.3135   H         3 RES3   0.0000
    58 H20      4.6331  21.8138  10.2986   H         3 RES3   0.0000
    59 C23      3.7573  18.0009  10.5410   C.2       3 RES3   0.0000
    60 C24      3.7037  18.5573   9.3114   C.2       3 RES3   0.0000
    61 C25      2.7906  16.1576   9.0652   C.2       3 RES3   0.0000
    62 C26      2.3704  15.0057   8.5878   C.2       3 RES3   0.0000
    63 C27      2.1720  12.4221   8.1849   C.2       3 RES3   0.0000
    64 C28      2.1329  12.9951   6.9453   C.2       3 RES3   0.0000
    65 C29      1.3939  10.0886   7.0746   C.3       3 RES3   0.0000
    66 H21      1.3577   9.1030   7.1417   H         3 RES3   0.0000
    67 H22      0.4635  10.4198   7.0025   H         3 RES3   0.0000
    68 C30      2.1487  10.4656   5.7965   C.3       3 RES3   0.0000
    69 H23      1.7528   9.9674   5.0380   H         3 RES3   0.0000
    70 H24      3.0892  10.1738   5.8872   H         3 RES3   0.0000
    71 S17      4.3164  18.7695  12.0107   S.3       3 RES3   0.0000
    72 S18      4.2379  20.1272   8.7867   S.3       3 RES3   0.0000
    73 S19      3.0662  16.4170  10.7599   S.3       3 RES3   0.0000
    74 S20      3.0151  17.5610   8.0394   S.3       3 RES3   0.0000
    75 S21      2.1034  13.5442   9.5476   S.3       3 RES3   0.0000
    76 S22      2.0244  14.7437   6.8769   S.3       3 RES3   0.0000
    77 S23      2.1281  10.7474   8.5902   S.3       3 RES3   0.0000
    78 S24      2.1305  12.2215   5.3998   S.3       3 RES3   0.0000
    79 C31      8.3121  23.0284  11.9995   C.3       4 RES4   0.0000
    80 H25      7.3619  22.9577  11.7309   H         4 RES4   0.0000
    81 H26      8.3646  23.6910  12.7343   H         4 RES4   0.0000
    82 C32      9.1120  23.5650  10.8071   C.3       4 RES4   0.0000
    83 H27     10.0721  23.5765  11.0433   H         4 RES4   0.0000
    84 H28      8.8338  24.4984  10.6268   H         4 RES4   0.0000
    85 C33      8.5471  20.5328  11.1801   C.2       4 RES4   0.0000
    86 C34      8.5487  20.9964   9.9069   C.2       4 RES4   0.0000
    87 C35      7.7974  18.5609   9.7155   C.2       4 RES4   0.0000
    88 C36      7.3021  17.3802   9.3151   C.2       4 RES4   0.0000
    89 C37      6.2846  14.9761   9.2281   C.2       4 RES4   0.0000
    90 C38      6.3094  15.4545   7.9039   C.2       4 RES4   0.0000
    91 C39      5.7159  12.4354   8.3490   C.3       4 RES4   0.0000
    92 H29      6.2693  11.6337   8.5318   H         4 RES4   0.0000
    93 H30      4.7805  12.1238   8.2496   H         4 RES4   0.0000
    94 C40      6.1206  12.9523   7.1107   C.3       4 RES4   0.0000
    95 H31      5.7766  12.3231   6.4281   H         4 RES4   0.0000
    96 H32      7.1057  12.8721   7.0908   H         4 RES4   0.0000
    97 S25      8.8320  21.4608  12.6261   S.3       4 RES4   0.0000
    98 S26      8.8915  22.5882   9.3052   S.3       4 RES4   0.0000
    99 S27      8.1238  18.8512  11.3965   S.3       4 RES4   0.0000
   100 S28      8.0997  19.8720   8.6624   S.3       4 RES4   0.0000
   101 S29      6.9646  16.0577  10.3819   S.3       4 RES4   0.0000
   102 S30      6.9513  17.0368   7.6291   S.3       4 RES4   0.0000
   103 S31      5.7830  13.4589   9.7776   S.3       4 RES4   0.0000
   104 S32      5.7543  14.5514   6.5201   S.3       4 RES4   0.0000
   105 C41     12.6656  19.6774  11.6824   C.3       5 RES5   0.0000
   106 H33     12.6371  20.2062  12.5192   H         5 RES5   0.0000
   107 H34     13.6182  19.4737  11.5108   H         5 RES5   0.0000
   108 C42     12.2455  20.5350  10.6505   C.3       5 RES5   0.0000
   109 H35     12.8520  21.3179  10.6442   H         5 RES5   0.0000
   110 H36     11.3431  20.8687  10.8854   H         5 RES5   0.0000
   111 C43     11.4293  17.6305  10.4378   C.2       5 RES5   0.0000
   112 C44     11.5007  18.3171   9.2703   C.2       5 RES5   0.0000
   113 C45     10.3602  16.0653   8.7195   C.2       5 RES5   0.0000
   114 C46      9.9832  14.8863   8.1862   C.2       5 RES5   0.0000
   115 C47     10.0528  12.3813   7.7286   C.2       5 RES5   0.0000
   116 C48     10.0159  12.9819   6.5325   C.2       5 RES5   0.0000
   117 C49      9.6506   9.8603   6.5536   C.3       5 RES5   0.0000
   118 H37     10.3780   9.3221   6.1520   H         5 RES5   0.0000
   119 H38      8.9426   9.2314   6.8421   H         5 RES5   0.0000
   120 C50      9.0890  10.7309   5.5018   C.3       5 RES5   0.0000
   121 H39      8.2235  11.0899   5.8238   H         5 RES5   0.0000
   122 H40      8.9005  10.1744   4.7048   H         5 RES5   0.0000
   123 S33     11.9074  18.1924  12.0219   S.3       5 RES5   0.0000
   124 S34     12.1681  19.8844   8.9595   S.3       5 RES5   0.0000
   125 S35     10.5565  16.1499  10.4838   S.3       5 RES5   0.0000
   126 S36     10.7295  17.5073   7.8778   S.3       5 RES5   0.0000
   127 S37      9.7638  13.4130   9.0913   S.3       5 RES5   0.0000
   128 S38      9.7670  14.7075   6.4554   S.3       5 RES5   0.0000
   129 S39     10.3137  10.6919   8.0382   S.3       5 RES5   0.0000
   130 S40     10.1069  12.0945   5.0020   S.3       5 RES5   0.0000
   131 Fe1      5.8721   7.8119   3.9006   Fe        6 RES6   0.0000
   132 C51      3.7118   7.7634   2.2256   C.2       6 RES6   0.0000
   133 C52      2.6296   7.5936   1.2968   C.2       6 RES6   0.0000
   134 C53      1.8487   8.8916   1.3142   C.2       6 RES6   0.0000
   135 C54      2.5652   9.7998   2.2977   C.2       6 RES6   0.0000
   136 C55      3.6591   9.0318   2.8211   C.2       6 RES6   0.0000
   137 O1       4.6595   6.9364   2.5389   O.3       6 RES6   0.0000
   138 O2       2.3264   6.6324   0.5769   O.2       6 RES6   0.0000
   139 O3       0.8990   9.1769   0.6080   O.2       6 RES6   0.0000
   140 O4       2.2343  10.9661   2.5190   O.2       6 RES6   0.0000
   141 O5       4.5878   9.3604   3.6741   O.3       6 RES6   0.0000
   142 C56      8.0539   6.6172   2.6993   C.2       6 RES6   0.0000
   143 C57      9.0829   5.8084   2.0528   C.2       6 RES6   0.0000
   144 C58      9.6597   6.7240   1.0195   C.2       6 RES6   0.0000
   145 C59      8.9505   8.0545   1.0941   C.2       6 RES6   0.0000
   146 C60      7.9990   7.9128   2.1709   C.2       6 RES6   0.0000
   147 O6       7.1990   6.2646   3.6243   O.3       6 RES6   0.0000
   148 O7       9.4260   4.6725   2.2728   O.2       6 RES6   0.0000
   149 O8      10.5167   6.4279   0.2139   O.2       6 RES6   0.0000
   150 O9       9.1821   9.0113   0.3593   O.2       6 RES6   0.0000
   151 O10      7.1224   8.7461   2.6297   O.3       6 RES6   0.0000
   152 C61      5.9885   8.3555   6.5686   C.2       6 RES6   0.0000
   153 C62      6.1446   8.8486   7.9350   C.2       6 RES6   0.0000
   154 C63      5.0240   8.2009   8.6586   C.2       6 RES6   0.0000
   155 C64      4.2210   7.3607   7.7112   C.2       6 RES6   0.0000
   156 C65      4.8954   7.4625   6.4318   C.2       6 RES6   0.0000
   157 O11      6.7080   8.6537   5.5117   O.3       6 RES6   0.0000
   158 O12      7.0148   9.5795   8.3727   O.2       6 RES6   0.0000
   159 O13      4.8061   8.3239   9.8783   O.2       6 RES6   0.0000
   160 O14      3.2201   6.7036   7.9698   O.2       6 RES6   0.0000
   161 O15      4.6953   6.8781   5.3041   O.3       6 RES6   0.0000
   162 C66      8.9383   6.3928   8.3938   C.ar      7 RES7   0.0000
   163 C67      8.6585   6.0929   7.0709   C.ar      7 RES7   0.0000
   164 H41      9.2319   6.4035   6.3796   H         7 RES7   0.0000
   165 C68      7.5309   5.3329   6.7538   C.ar      7 RES7   0.0000
   166 H42      7.3347   5.1546   5.8412   H         7 RES7   0.0000
   167 C69      6.6983   4.8347   7.7323   C.ar      7 RES7   0.0000
   168 H43      5.9437   4.3047   7.5023   H         7 RES7   0.0000
   169 C70      6.9879   5.1300   9.0913   C.ar      7 RES7   0.0000
   170 H44      6.4120   4.8162   9.7801   H         7 RES7   0.0000
   171 C71      8.0742   5.8507   9.3997   C.ar      7 RES7   0.0000
   172 H45      8.2783   6.0101  10.3135   H         7 RES7   0.0000
   173 C72     10.1010   7.1292   8.7494   C.1       7 RES7   0.0000
   174 N1      11.0063   7.7257   9.0341   N.1       7 RES7   0.0000
@<TRIPOS>BOND
     1     1     2    1
     2     3     1    1
     3     4     1    1
     4     5     4    1
     5     6     4    1
     6     7     8    2
     7     8    20    1
     8     9    10    2
     9    10    23    1
    10    11    12    2
    11    12    24    1
    12    13    14    1
    13    15    13    1
    14    16    13    1
    15    17    16    1
    16    18    16    1
    17    19     1    1
    18    20     4    1
    19    21     7    1
    20    22     8    1
    21    23    11    1
    22    24    10    1
    23    25    11    1
    24    26    12    1
    25     7    19    1
    26     9    21    1
    27     9    22    1
    28    13    25    1
    29    16    26    1
    30    27    28    1
    31    29    27    1
    32    30    27    1
    33    31    30    1
    34    32    30    1
    35    33    34    2
    36    34    46    1
    37    35    36    2
    38    36    49    1
    39    37    38    2
    40    38    50    1
    41    39    40    1
    42    41    39    1
    43    42    39    1
    44    43    42    1
    45    44    42    1
    46    45    27    1
    47    46    30    1
    48    47    33    1
    49    48    34    1
    50    49    37    1
    51    50    36    1
    52    51    37    1
    53    52    38    1
    54    33    45    1
    55    35    47    1
    56    35    48    1
    57    39    51    1
    58    42    52    1
    59    53    54    1
    60    55    53    1
    61    56    53    1
    62    57    56    1
    63    58    56    1
    64    59    60    2
    65    60    72    1
    66    61    62    2
    67    62    75    1
    68    63    64    2
    69    64    76    1
    70    65    66    1
    71    67    65    1
    72    68    65    1
    73    69    68    1
    74    70    68    1
    75    71    53    1
    76    72    56    1
    77    73    59    1
    78    74    60    1
    79    75    63    1
    80    76    62    1
    81    77    63    1
    82    78    64    1
    83    59    71    1
    84    61    73    1
    85    61    74    1
    86    65    77    1
    87    68    78    1
    88    79    80    1
    89    81    79    1
    90    82    79    1
    91    83    82    1
    92    84    82    1
    93    85    86    2
    94    86    98    1
    95    87    88    2
    96    88   101    1
    97    89    90    2
    98    90   102    1
    99    91    92    1
   100    93    91    1
   101    94    91    1
   102    95    94    1
   103    96    94    1
   104    97    79    1
   105    98    82    1
   106    99    85    1
   107   100    86    1
   108   101    89    1
   109   102    88    1
   110   103    89    1
   111   104    90    1
   112    85    97    1
   113    87    99    1
   114    87   100    1
   115    91   103    1
   116    94   104    1
   117   105   106    1
   118   107   105    1
   119   108   105    1
   120   109   108    1
   121   110   108    1
   122   111   112    2
   123   112   124    1
   124   113   114    2
   125   114   127    1
   126   115   116    2
   127   116   128    1
   128   117   118    1
   129   119   117    1
   130   120   117    1
   131   121   120    1
   132   122   120    1
   133   123   105    1
   134   124   108    1
   135   125   111    1
   136   126   112    1
   137   127   115    1
   138   128   114    1
   139   129   115    1
   140   130   116    1
   141   111   123    1
   142   113   125    1
   143   113   126    1
   144   117   129    1
   145   120   130    1
   146   131   137    1
   147   132   133    1
   148   133   134    1
   149   134   135    1
   150   135   136    1
   151   136   132    2
   152   137   132    1
   153   138   133    2
   154   139   134    2
   155   140   135    2
   156   141   131    1
   157   142   143    1
   158   143   144    1
   159   144   145    1
   160   145   146    1
   161   146   142    2
   162   147   131    1
   163   148   143    2
   164   149   144    2
   165   150   145    2
   166   151   131    1
   167   152   153    1
   168   153   154    1
   169   154   155    1
   170   155   156    1
   171   156   152    2
   172   157   131    1
   173   158   153    2
   174   159   154    2
   175   160   155    2
   176   161   131    1
   177   136   141    1
   178   142   147    1
   179   146   151    1
   180   152   157    1
   181   156   161    1
   182   162   163   ar
   183   163   164    1
   184   165   163   ar
   185   166   165    1
   186   167   165   ar
   187   168   167    1
   188   169   167   ar
   189   170   169    1
   190   171   162   ar
   191   172   171    1
   192   173   162    1
   193   174   173    3
   194   169   171   ar
@<TRIPOS>SUBSTRUCTURE
     1 RES1        1 GROUP             0 ****  ****    0  
     2 RES2       27 GROUP             0 ****  ****    0  
     3 RES3       53 GROUP             0 ****  ****    0  
     4 RES4       79 GROUP             0 ****  ****    0  
     5 RES5      105 GROUP             0 ****  ****    0  
     6 RES6      131 GROUP             0 ****  ****    0  
     7 RES7      162 GROUP             0 ****  ****    0  
@<TRIPOS>CRYSIN
   19.5910   19.3950   12.9581  103.1940  102.8590   73.6800     2     1
