@<TRIPOS>MOLECULE
CETRUP
   129   136     3     0     0
SMALL
USER_CHARGES
****
Generated from the CSD

@<TRIPOS>ATOM
     1 Fe1      8.5106   3.4125   3.2127   Fe        1 RES1   1.0000
     2 N1       9.6153   4.1857   4.6107   N.2       1 RES1   0.0000
     3 N2       9.6592   4.1831   1.8371   N.2       1 RES1   0.0000
     4 N3       7.4060   2.6285   1.8101   N.2       1 RES1   0.0000
     5 N4       7.3617   2.6404   4.5856   N.2       1 RES1   0.0000
     6 N5       8.6011   3.3587  -0.1887   N.2       1 RES1   0.0000
     7 N6       8.4720   3.3844   6.6089   N.2       1 RES1   0.0000
     8 N7       9.6787   1.7501   3.2549   N.ar      1 RES1   0.0000
     9 N8      12.5852  -2.7303   3.7911   N.1       1 RES1   0.0000
    10 N9       7.3419   5.0728   3.2116   N.ar      1 RES1   0.0000
    11 N10      4.3997   9.5545   3.5018   N.1       1 RES1   0.0000
    12 C1       9.4348   4.0462   5.9761   C.2       1 RES1   0.0000
    13 C2      10.5169   4.6947   6.6995   C.2       1 RES1   0.0000
    14 C3      11.3683   5.2020   5.7685   C.2       1 RES1   0.0000
    15 C4      10.7841   4.9211   4.4707   C.2       1 RES1   0.0000
    16 C5      11.3047   5.3049   3.2416   C.2       1 RES1   0.0000
    17 H1      12.0684   5.8361   3.2504   H         1 RES1   0.0000
    18 C6      10.7905   4.9709   2.0169   C.2       1 RES1   0.0000
    19 C7      11.3678   5.3215   0.7264   C.2       1 RES1   0.0000
    20 C8      10.6151   4.6903  -0.2207   C.2       1 RES1   0.0000
    21 C9       9.5460   4.0074   0.4808   C.2       1 RES1   0.0000
    22 C10      7.5976   2.7448   0.4472   C.2       1 RES1   0.0000
    23 C11      6.5307   2.0935  -0.2821   C.2       1 RES1   0.0000
    24 C12      5.6946   1.5529   0.6533   C.2       1 RES1   0.0000
    25 C13      6.2425   1.8894   1.9496   C.2       1 RES1   0.0000
    26 C14      5.6957   1.5319   3.1758   C.2       1 RES1   0.0000
    27 H2       4.9077   1.0392   3.1700   H         1 RES1   0.0000
    28 C15      6.2398   1.8562   4.4020   C.2       1 RES1   0.0000
    29 C16      5.7112   1.4104   5.6955   C.2       1 RES1   0.0000
    30 C17      6.5030   1.9585   6.6396   C.2       1 RES1   0.0000
    31 C18      7.5319   2.7272   5.9527   C.2       1 RES1   0.0000
    32 C19     10.6105   4.6952   8.1844   C.3       1 RES1   0.0000
    33 H3      10.8908   3.8295   8.4869   H         1 RES1   0.0000
    34 H4       9.7519   4.9039   8.5585   H         1 RES1   0.0000
    35 H5      11.2502   5.3549   8.4636   H         1 RES1   0.0000
    36 C20     12.7218   5.8285   5.9863   C.3       1 RES1   0.0000
    37 H6      13.3298   5.4855   5.3140   H         1 RES1   0.0000
    38 H7      13.0549   5.5425   6.8530   H         1 RES1   0.0000
    39 C21     12.7584   7.3424   5.9366   C.3       1 RES1   0.0000
    40 H8      12.2906   7.7116   6.7010   H         1 RES1   0.0000
    41 H9      12.3227   7.6579   5.1299   H         1 RES1   0.0000
    42 C22     14.2929   7.8112   5.9527   C.3       1 RES1   0.0000
    43 H10     14.6890   7.5555   6.7989   H         1 RES1   0.0000
    44 H11     14.7699   7.3429   5.2497   H         1 RES1   0.0000
    45 C23     14.4720   9.2431   5.7656   C.3       1 RES1   0.0000
    46 H12     14.2427   9.4791   4.8639   H         1 RES1   0.0000
    47 H13     15.3871   9.4757   5.9352   H         1 RES1   0.0000
    48 H14     13.9026   9.7193   6.3751   H         1 RES1   0.0000
    49 C24     12.5483   6.2218   0.5261   C.3       1 RES1   0.0000
    50 H15     12.5074   6.9343   1.1824   H         1 RES1   0.0000
    51 H16     12.4818   6.6276  -0.3508   H         1 RES1   0.0000
    52 C25     13.9049   5.5356   0.6401   C.3       1 RES1   0.0000
    53 H17     13.9523   4.8214  -0.0146   H         1 RES1   0.0000
    54 H18     13.9826   5.1345   1.5200   H         1 RES1   0.0000
    55 C26     15.0777   6.4882   0.4238   C.3       1 RES1   0.0000
    56 H19     15.9031   5.9831   0.4896   H         1 RES1   0.0000
    57 H20     15.0239   6.8454  -0.4764   H         1 RES1   0.0000
    58 C27     15.1391   7.6357   1.3913   C.3       1 RES1   0.0000
    59 H21     14.3178   8.1321   1.3519   H         1 RES1   0.0000
    60 H22     15.8716   8.2110   1.1604   H         1 RES1   0.0000
    61 H23     15.2654   7.2984   2.2814   H         1 RES1   0.0000
    62 C28     10.7771   4.6787  -1.7041   C.3       1 RES1   0.0000
    63 H24     10.9741   5.5660  -2.0125   H         1 RES1   0.0000
    64 H25      9.9661   4.3701  -2.1133   H         1 RES1   0.0000
    65 H26     11.4990   4.0906  -1.9423   H         1 RES1   0.0000
    66 C29      6.4391   2.0468  -1.7713   C.3       1 RES1   0.0000
    67 H27      6.2604   1.1461  -2.0534   H         1 RES1   0.0000
    68 H28      7.2701   2.3420  -2.1528   H         1 RES1   0.0000
    69 H29      5.7302   2.6219  -2.0666   H         1 RES1   0.0000
    70 C30      4.4156   0.7960   0.4151   C.3       1 RES1   0.0000
    71 H30      4.2546   0.2009   1.1634   H         1 RES1   0.0000
    72 H31      4.5124   0.2520  -0.3815   H         1 RES1   0.0000
    73 C31      3.2050   1.7261   0.2441   C.3       1 RES1   0.0000
    74 H32      3.1770   2.3554   0.9807   H         1 RES1   0.0000
    75 H33      3.3017   2.2316  -0.5788   H         1 RES1   0.0000
    76 C32      1.9009   0.9393   0.2017   C.3       1 RES1   0.0000
    77 H34      1.8201   0.4173   1.0143   H         1 RES1   0.0000
    78 H35      1.9268   0.3235  -0.5466   H         1 RES1   0.0000
    79 C33      0.6731   1.8445   0.0628   C.3       1 RES1   0.0000
    80 H36      0.5532   2.3464   0.8725   H         1 RES1   0.0000
    81 H37     -0.1039   1.3049  -0.0979   H         1 RES1   0.0000
    82 H38      0.8020   2.4474  -0.6723   H         1 RES1   0.0000
    83 C34      4.5519   0.4698   5.8241   C.3       1 RES1   0.0000
    84 H39      3.8480   0.7513   5.2190   H         1 RES1   0.0000
    85 H40      4.2052   0.5156   6.7273   H         1 RES1   0.0000
    86 C35      4.9344  -0.9713   5.5084   C.3       1 RES1   0.0000
    87 H41      5.4914  -1.3171   6.2231   H         1 RES1   0.0000
    88 H42      5.4534  -0.9920   4.6900   H         1 RES1   0.0000
    89 C36      3.6916  -1.8846   5.3462   C.3       1 RES1   0.0000
    90 H43      3.9774  -2.8109   5.4002   H         1 RES1   0.0000
    91 H44      3.0867  -1.7203   6.0857   H         1 RES1   0.0000
    92 C37      2.9555  -1.6888   4.0776   C.3       1 RES1   0.0000
    93 H45      2.6449  -0.7818   4.0250   H         1 RES1   0.0000
    94 H46      2.2040  -2.2856   4.0484   H         1 RES1   0.0000
    95 H47      3.5393  -1.8717   3.3366   H         1 RES1   0.0000
    96 C38      6.4493   1.8311   8.1347   C.3       1 RES1   0.0000
    97 H48      5.5894   1.4945   8.3963   H         1 RES1   0.0000
    98 H49      6.5915   2.6929   8.5337   H         1 RES1   0.0000
    99 H50      7.1338   1.2253   8.4285   H         1 RES1   0.0000
   100 C39     11.0273   1.8287   3.2475   C.ar      1 RES1   0.0000
   101 H51     11.4250   2.6635   3.1627   H         1 RES1   0.0000
   102 C40     11.8442   0.7089   3.3629   C.ar      1 RES1   0.0000
   103 H52     12.7707   0.7882   3.3644   H         1 RES1   0.0000
   104 C41     11.2267  -0.5457   3.4769   C.ar      1 RES1   0.0000
   105 C42      9.8373  -0.6308   3.4652   C.ar      1 RES1   0.0000
   106 H53      9.4111  -1.4541   3.5354   H         1 RES1   0.0000
   107 C43      9.1059   0.5374   3.3454   C.ar      1 RES1   0.0000
   108 H54      8.1767   0.4820   3.3278   H         1 RES1   0.0000
   109 C44     12.0127  -1.7522   3.6464   C.1       1 RES1   0.0000
   110 C45      5.9935   5.0050   3.1188   C.ar      1 RES1   0.0000
   111 H55      5.5947   4.1725   3.0107   H         1 RES1   0.0000
   112 C46      5.1802   6.1272   3.1758   C.ar      1 RES1   0.0000
   113 H56      4.2566   6.0508   3.1086   H         1 RES1   0.0000
   114 C47      5.7864   7.3756   3.3366   C.ar      1 RES1   0.0000
   115 C48      7.1709   7.4609   3.4243   C.ar      1 RES1   0.0000
   116 H57      7.5927   8.2815   3.5310   H         1 RES1   0.0000
   117 C49      7.9074   6.2849   3.3483   C.ar      1 RES1   0.0000
   118 H58      8.8341   6.3390   3.3951   H         1 RES1   0.0000
   119 C50      4.9949   8.5847   3.4331   C.1       1 RES1   0.0000
   120 Cl1      2.1339   3.0718   3.8996   Cl        2 RES2   0.0000
   121 O1       2.2610   1.6895   3.4784   O.3       2 RES2  -1.0000
   122 O2       0.7829   3.5002   3.6538   O.2       2 RES2   0.0000
   123 O3       2.4513   3.1865   5.2848   O.2       2 RES2   0.0000
   124 O4       3.0334   3.8797   3.1159   O.2       2 RES2   0.0000
   125 Cl2      8.6575  -0.7176   6.9085   Cl        3 RES3   0.0000
   126 Cl3     10.9997   1.0106   6.6886   Cl        3 RES3   0.0000
   127 C51      9.8744   0.4575   7.6480   C.3       3 RES3   0.0000
   128 H59      9.3839   1.2139   8.0061   H         3 RES3   0.0000
   129 H60     10.3060   0.0139   8.3949   H         3 RES3   0.0000
@<TRIPOS>BOND
     1     1     2    1
     2     2    12    1
     3     3     1    1
     4     4     1    1
     5     5     1    1
     6     6    21    2
     7     7    12    2
     8     8     1    1
     9     9   109    3
    10    10     1    1
    11    11   119    3
    12    12    13    1
    13    13    14    2
    14    14    15    1
    15    15     2    1
    16    16    15    2
    17    17    16    1
    18    18     3    2
    19    19    18    1
    20    20    19    2
    21    21     3    1
    22    22     4    1
    23    23    22    2
    24    24    23    1
    25    25     4    1
    26    26    25    1
    27    27    26    1
    28    28     5    1
    29    29    28    1
    30    30    29    2
    31    31     5    2
    32    32    13    1
    33    33    32    1
    34    34    32    1
    35    35    32    1
    36    36    14    1
    37    37    36    1
    38    38    36    1
    39    39    36    1
    40    40    39    1
    41    41    39    1
    42    42    39    1
    43    43    42    1
    44    44    42    1
    45    45    42    1
    46    46    45    1
    47    47    45    1
    48    48    45    1
    49    49    19    1
    50    50    49    1
    51    51    49    1
    52    52    49    1
    53    53    52    1
    54    54    52    1
    55    55    52    1
    56    56    55    1
    57    57    55    1
    58    58    55    1
    59    59    58    1
    60    60    58    1
    61    61    58    1
    62    62    20    1
    63    63    62    1
    64    64    62    1
    65    65    62    1
    66    66    23    1
    67    67    66    1
    68    68    66    1
    69    69    66    1
    70    70    24    1
    71    71    70    1
    72    72    70    1
    73    73    70    1
    74    74    73    1
    75    75    73    1
    76    76    73    1
    77    77    76    1
    78    78    76    1
    79    79    76    1
    80    80    79    1
    81    81    79    1
    82    82    79    1
    83    83    29    1
    84    84    83    1
    85    85    83    1
    86    86    83    1
    87    87    86    1
    88    88    86    1
    89    89    86    1
    90    90    89    1
    91    91    89    1
    92    92    89    1
    93    93    92    1
    94    94    92    1
    95    95    92    1
    96    96    30    1
    97    97    96    1
    98    98    96    1
    99    99    96    1
   100   100     8   ar
   101   101   100    1
   102   102   100   ar
   103   103   102    1
   104   104   102   ar
   105   105   104   ar
   106   106   105    1
   107   107     8   ar
   108   108   107    1
   109   109   104    1
   110   110    10   ar
   111   111   110    1
   112   112   110   ar
   113   113   112    1
   114   114   112   ar
   115   115   114   ar
   116   116   115    1
   117   117    10   ar
   118   118   117    1
   119   119   114    1
   120     6    22    1
   121     7    31    1
   122    16    18    1
   123    20    21    1
   124    24    25    2
   125    26    28    2
   126    30    31    1
   127   105   107   ar
   128   115   117   ar
   129   120   121    1
   130   122   120    2
   131   123   120    2
   132   124   120    2
   133   125   127    1
   134   126   127    1
   135   127   128    1
   136   129   127    1
@<TRIPOS>SUBSTRUCTURE
     1 RES1        1 GROUP             0 ****  ****    0  
     2 RES2      120 GROUP             0 ****  ****    0  
     3 RES3      125 GROUP             0 ****  ****    0  
@<TRIPOS>CRYSIN
   12.9350   14.3550   15.9460   94.6680  109.9130  109.8780     2     1
