@<TRIPOS>MOLECULE
CEVBAI
    99   106     2     0     0
SMALL
NO_CHARGES
****
Generated from the CSD

@<TRIPOS>ATOM
     1 C1       6.6747   5.5575   2.4739   C.ar      1 RES1   0.0000
     2 H1       6.2829   5.4732   1.6128   H         1 RES1   0.0000
     3 C2       8.0111   5.4413   2.5984   C.ar      1 RES1   0.0000
     4 H2       8.5414   5.2839   1.8258   H         1 RES1   0.0000
     5 C3       8.6336   5.5514   3.8452   C.ar      1 RES1   0.0000
     6 H3       9.5731   5.4431   3.9352   H         1 RES1   0.0000
     7 C4       7.8466   5.8185   4.9314   C.ar      1 RES1   0.0000
     8 H4       8.2332   5.9141   5.7940   H         1 RES1   0.0000
     9 C5       6.4769   5.9492   4.7543   C.ar      1 RES1   0.0000
    10 C6       4.2241   6.3679   5.4969   C.2       1 RES1   0.0000
    11 C7       2.1558   6.3838   4.0042   C.1       1 RES1   0.0000
    12 C8       4.4774   2.5893   3.2736   C.ar      1 RES1   0.0000
    13 C9       5.8390   2.5312   3.5721   C.ar      1 RES1   0.0000
    14 H5       6.2283   3.2288   4.0852   H         1 RES1   0.0000
    15 C10      6.6352   1.4913   3.1460   C.ar      1 RES1   0.0000
    16 H6       7.5526   1.4698   3.3906   H         1 RES1   0.0000
    17 C11      6.1113   0.4771   2.3614   C.ar      1 RES1   0.0000
    18 H7       6.6573  -0.2429   2.0704   H         1 RES1   0.0000
    19 C12      4.7941   0.5368   2.0178   C.ar      1 RES1   0.0000
    20 H8       4.4322  -0.1499   1.4688   H         1 RES1   0.0000
    21 C13      3.9657   1.5566   2.4379   C.ar      1 RES1   0.0000
    22 H9       3.0550   1.5712   2.1709   H         1 RES1   0.0000
    23 C14      3.3324   3.3778   5.7865   C.ar      1 RES1   0.0000
    24 C15      4.2907   2.5712   6.3926   C.ar      1 RES1   0.0000
    25 H10      5.0179   2.2255   5.8885   H         1 RES1   0.0000
    26 C16      4.1702   2.2787   7.7443   C.ar      1 RES1   0.0000
    27 H11      4.8314   1.7432   8.1689   H         1 RES1   0.0000
    28 C17      3.1153   2.7500   8.4705   C.ar      1 RES1   0.0000
    29 H12      3.0278   2.5177   9.3871   H         1 RES1   0.0000
    30 C18      2.1784   3.5641   7.8719   C.ar      1 RES1   0.0000
    31 H13      1.4562   3.9127   8.3804   H         1 RES1   0.0000
    32 C19      2.2910   3.8676   6.5441   C.ar      1 RES1   0.0000
    33 H14      1.6402   4.4264   6.1376   H         1 RES1   0.0000
    34 C20      1.7193   3.3314   3.4176   C.ar      1 RES1   0.0000
    35 C21      1.0769   2.2537   4.0237   C.ar      1 RES1   0.0000
    36 H15      1.4880   1.8027   4.7513   H         1 RES1   0.0000
    37 C22     -0.1504   1.8430   3.5676   C.ar      1 RES1   0.0000
    38 H16     -0.5786   1.1065   3.9877   H         1 RES1   0.0000
    39 C23     -0.7799   2.4751   2.5114   C.ar      1 RES1   0.0000
    40 H17     -1.6283   2.1832   2.1994   H         1 RES1   0.0000
    41 C24     -0.1338   3.5419   1.9248   C.ar      1 RES1   0.0000
    42 H18     -0.5452   3.9912   1.1957   H         1 RES1   0.0000
    43 C25      1.0975   3.9744   2.3719   C.ar      1 RES1   0.0000
    44 H19      1.5174   4.7185   1.9563   H         1 RES1   0.0000
    45 C26      5.5732   8.7389   2.2414   C.ar      1 RES1   0.0000
    46 C27      6.8588   8.6608   2.8085   C.ar      1 RES1   0.0000
    47 H20      6.9516   8.5138   3.7431   H         1 RES1   0.0000
    48 C28      7.9781   8.7957   2.0283   C.ar      1 RES1   0.0000
    49 H21      8.8388   8.7618   2.4304   H         1 RES1   0.0000
    50 C29      7.8707   8.9796   0.6736   C.ar      1 RES1   0.0000
    51 H22      8.6478   9.0644   0.1350   H         1 RES1   0.0000
    52 C30      6.6170   9.0373   0.1065   C.ar      1 RES1   0.0000
    53 H23      6.5391   9.1666  -0.8311   H         1 RES1   0.0000
    54 C31      5.4510   8.9101   0.8747   C.ar      1 RES1   0.0000
    55 H24      4.5956   8.9424   0.4651   H         1 RES1   0.0000
    56 C32      4.1114   9.4775   4.6523   C.ar      1 RES1   0.0000
    57 C33      5.1034  10.4027   4.8998   C.ar      1 RES1   0.0000
    58 H25      5.8297  10.4816   4.2922   H         1 RES1   0.0000
    59 C34      5.0627  11.2219   6.0205   C.ar      1 RES1   0.0000
    60 H26      5.7761  11.8223   6.2051   H         1 RES1   0.0000
    61 C35      3.9771  11.1535   6.8622   C.ar      1 RES1   0.0000
    62 H27      3.9498  11.7030   7.6363   H         1 RES1   0.0000
    63 C36      2.9373  10.3047   6.5981   C.ar      1 RES1   0.0000
    64 H28      2.1725  10.3062   7.1607   H         1 RES1   0.0000
    65 C37      2.9940   9.4527   5.5255   C.ar      1 RES1   0.0000
    66 H29      2.2827   8.8436   5.3664   H         1 RES1   0.0000
    67 C38      2.7193   9.1248   2.2189   C.ar      1 RES1   0.0000
    68 C39      2.7513  10.4955   2.0374   C.ar      1 RES1   0.0000
    69 H30      3.4524  11.0048   2.4259   H         1 RES1   0.0000
    70 C40      1.7727  11.1311   1.2917   C.ar      1 RES1   0.0000
    71 H31      1.8217  12.0694   1.1492   H         1 RES1   0.0000
    72 C41      0.7225  10.4046   0.7546   C.ar      1 RES1   0.0000
    73 H32      0.0385  10.8377   0.2580   H         1 RES1   0.0000
    74 C42      0.6865   9.0572   0.9512   C.ar      1 RES1   0.0000
    75 H33     -0.0306   8.5523   0.5881   H         1 RES1   0.0000
    76 C43      1.6691   8.4167   1.6668   C.ar      1 RES1   0.0000
    77 H34      1.6262   7.4739   1.7838   H         1 RES1   0.0000
    78 Br1      3.7480   5.7441   1.0928   Br        1 RES1   0.0000
    79 Fe1      3.8503   6.0966   3.6269   Fe        1 RES1   0.0000
    80 N1       5.8640   5.7925   3.5541   N.ar      1 RES1   0.0000
    81 N2       5.6098   6.2275   5.7625   N.am      1 RES1   0.0000
    82 H35      5.9092   6.3203   6.5846   H         1 RES1   0.0000
    83 O1       3.4971   6.6369   6.4166   O.2       1 RES1   0.0000
    84 O2       1.0701   6.5491   4.3628   O.2       1 RES1   0.0000
    85 P1       3.3958   3.8755   3.9883   P.3       1 RES1   0.0000
    86 P2       4.0703   8.3401   3.1998   P.3       1 RES1   0.0000
    87 C44      5.7852   8.3285   8.4615   C.3       2 RES2   0.0000
    88 H36      5.5075   8.6502   7.5673   H         2 RES2   0.0000
    89 H37      6.4867   8.9344   8.8065   H         2 RES2   0.0000
    90 C45      4.6299   8.3255   9.3751   C.3       2 RES2   0.0000
    91 H38      4.8017   8.9144  10.1523   H         2 RES2   0.0000
    92 H39      3.8185   8.6465   8.9085   H         2 RES2   0.0000
    93 C46      4.4573   6.9558   9.8072   C.3       2 RES2   0.0000
    94 H40      3.6262   6.5770   9.4231   H         2 RES2   0.0000
    95 H41      4.3974   6.9113  10.7944   H         2 RES2   0.0000
    96 C47      5.6461   6.1909   9.3226   C.3       2 RES2   0.0000
    97 H42      6.2559   5.9960  10.0787   H         2 RES2   0.0000
    98 H43      5.3600   5.3321   8.9220   H         2 RES2   0.0000
    99 O3       6.3027   6.9770   8.3624   O.3       2 RES2   0.0000
@<TRIPOS>BOND
     1     1     2    1
     2     3     1   ar
     3     4     3    1
     4     5     3   ar
     5     6     5    1
     6     7     5   ar
     7     8     7    1
     8     9     7   ar
     9    10    79    1
    10    11    79    1
    11    12    13   ar
    12    13    14    1
    13    15    13   ar
    14    16    15    1
    15    17    15   ar
    16    18    17    1
    17    19    17   ar
    18    20    19    1
    19    21    12   ar
    20    22    21    1
    21    23    24   ar
    22    24    25    1
    23    26    24   ar
    24    27    26    1
    25    28    26   ar
    26    29    28    1
    27    30    28   ar
    28    31    30    1
    29    32    23   ar
    30    33    32    1
    31    34    35   ar
    32    35    36    1
    33    37    35   ar
    34    38    37    1
    35    39    37   ar
    36    40    39    1
    37    41    39   ar
    38    42    41    1
    39    43    34   ar
    40    44    43    1
    41    45    46   ar
    42    46    47    1
    43    48    46   ar
    44    49    48    1
    45    50    48   ar
    46    51    50    1
    47    52    50   ar
    48    53    52    1
    49    54    45   ar
    50    55    54    1
    51    56    57   ar
    52    57    58    1
    53    59    57   ar
    54    60    59    1
    55    61    59   ar
    56    62    61    1
    57    63    61   ar
    58    64    63    1
    59    65    56   ar
    60    66    65    1
    61    67    68   ar
    62    68    69    1
    63    70    68   ar
    64    71    70    1
    65    72    70   ar
    66    73    72    1
    67    74    72   ar
    68    75    74    1
    69    76    67   ar
    70    77    76    1
    71    78    79    1
    72    79    80    1
    73    80     1   ar
    74    81     9    1
    75    82    81    1
    76    83    10    2
    77    84    11    3
    78    85    12    1
    79    86    45    1
    80     9    80   ar
    81    10    81   am
    82    19    21   ar
    83    23    85    1
    84    30    32   ar
    85    34    85    1
    86    41    43   ar
    87    52    54   ar
    88    56    86    1
    89    63    65   ar
    90    67    86    1
    91    74    76   ar
    92    79    85    1
    93    79    86    1
    94    87    88    1
    95    89    87    1
    96    90    87    1
    97    91    90    1
    98    92    90    1
    99    93    90    1
   100    94    93    1
   101    95    93    1
   102    96    93    1
   103    97    96    1
   104    98    96    1
   105    99    87    1
   106    96    99    1
@<TRIPOS>SUBSTRUCTURE
     1 RES1        1 GROUP             0 ****  ****    0  
     2 RES2       87 GROUP             0 ****  ****    0  
@<TRIPOS>CRYSIN
   11.0610   12.2380   15.9790   69.8940   86.6570   77.3210     2     1
