@<TRIPOS>MOLECULE
CEVQIH
    91    96     1     0     0
SMALL
NO_CHARGES
****
Generated from the CSD

@<TRIPOS>ATOM
     1 Fe1     11.8313   0.0021   3.5935   Fe        1 RES1   0.0000
     2 Cl1     13.6192  -1.2955   2.7065   Cl        1 RES1   0.0000
     3 N1      13.1436   1.8778   3.0401   N.ar      1 RES1   0.0000
     4 C1      13.8712   2.4741   4.0075   C.ar      1 RES1   0.0000
     5 C2      14.2428   3.8063   3.9342   C.ar      1 RES1   0.0000
     6 H1      14.7771   4.1921   4.6170   H         1 RES1   0.0000
     7 C3      13.8271   4.5672   2.8633   C.ar      1 RES1   0.0000
     8 H2      14.0310   5.4937   2.8216   H         1 RES1   0.0000
     9 C4      13.1181   3.9643   1.8571   C.ar      1 RES1   0.0000
    10 H3      12.8511   4.4648   1.0953   H         1 RES1   0.0000
    11 C5      12.7884   2.6129   1.9578   C.ar      1 RES1   0.0000
    12 C6      12.0558   1.9113   0.8351   C.3       1 RES1   0.0000
    13 H4      12.7234   1.4710   0.2487   H         1 RES1   0.0000
    14 H5      11.5861   2.5918   0.2918   H         1 RES1   0.0000
    15 P1      10.8243   0.6372   1.3937   P.3       1 RES1   0.0000
    16 C7      10.2583  -0.1349  -0.1811   C.3       1 RES1   0.0000
    17 H6      11.1062  -0.2776  -0.6885   H         1 RES1   0.0000
    18 Si1      9.6305  -1.9151   0.1432   Si        1 RES1   0.0000
    19 C8      10.9895  -2.9603   0.8553   C.3       1 RES1   0.0000
    20 H7      11.7737  -2.9201   0.2702   H         1 RES1   0.0000
    21 H8      10.6818  -3.8887   0.9286   H         1 RES1   0.0000
    22 H9      11.2272  -2.6243   1.7450   H         1 RES1   0.0000
    23 C9       8.1974  -1.9372   1.3339   C.3       1 RES1   0.0000
    24 H10      8.4556  -1.4806   2.1619   H         1 RES1   0.0000
    25 H11      7.9539  -2.8655   1.5352   H         1 RES1   0.0000
    26 H12      7.4320  -1.4777   0.9314   H         1 RES1   0.0000
    27 C10      9.1019  -2.7535  -1.4317   C.3       1 RES1   0.0000
    28 H13      9.8017  -2.6464  -2.1087   H         1 RES1   0.0000
    29 H14      8.2710  -2.3477  -1.7536   H         1 RES1   0.0000
    30 H15      8.9561  -3.7068  -1.2606   H         1 RES1   0.0000
    31 Si2      9.1776   0.8662  -1.3977   Si        1 RES1   0.0000
    32 C11      9.6258   2.6961  -1.5380   C.3       1 RES1   0.0000
    33 H16     10.5672   2.7842  -1.7896   H         1 RES1   0.0000
    34 H17      9.4746   3.1364  -0.6741   H         1 RES1   0.0000
    35 H18      9.0648   3.1192  -2.2208   H         1 RES1   0.0000
    36 C12      7.3545   0.7762  -0.9530   C.3       1 RES1   0.0000
    37 H19      7.2303   1.0681  -0.0259   H         1 RES1   0.0000
    38 H20      7.0401  -0.1474  -1.0493   H         1 RES1   0.0000
    39 H21      6.8436   1.3600  -1.5510   H         1 RES1   0.0000
    40 C13      9.4189   0.1598  -3.1048   C.3       1 RES1   0.0000
    41 H22     10.3757   0.0268  -3.2716   H         1 RES1   0.0000
    42 H23      9.0533   0.7800  -3.7703   H         1 RES1   0.0000
    43 H24      8.9534  -0.7006  -3.1709   H         1 RES1   0.0000
    44 C14      9.3942   1.6309   2.0066   C.3       1 RES1   0.0000
    45 H25      9.0596   2.2137   1.2793   H         1 RES1   0.0000
    46 H26      8.6574   1.0222   2.2726   H         1 RES1   0.0000
    47 N1A     10.5190   1.8778   4.1469   N.ar      1 RES1   0.0000
    48 C1A      9.7914   2.4741   3.1796   C.ar      1 RES1   0.0000
    49 C2A      9.4198   3.8063   3.2529   C.ar      1 RES1   0.0000
    50 H1A      8.8855   4.1921   2.5701   H         1 RES1   0.0000
    51 C3A      9.8355   4.5672   4.3237   C.ar      1 RES1   0.0000
    52 H2A      9.6316   5.4937   4.3654   H         1 RES1   0.0000
    53 C4A     10.5445   3.9643   5.3299   C.ar      1 RES1   0.0000
    54 H3A     10.8115   4.4648   6.0918   H         1 RES1   0.0000
    55 C5A     10.8742   2.6129   5.2293   C.ar      1 RES1   0.0000
    56 C6A     11.6068   1.9113   6.3519   C.3       1 RES1   0.0000
    57 H4A     10.9393   1.4710   6.9384   H         1 RES1   0.0000
    58 H5A     12.0765   2.5918   6.8953   H         1 RES1   0.0000
    59 P1A     12.8384   0.6372   5.7934   P.3       1 RES1   0.0000
    60 C7A     13.4043  -0.1349   7.3682   C.3       1 RES1   0.0000
    61 H6A     12.5564  -0.2776   7.8756   H         1 RES1   0.0000
    62 Si1A    14.0321  -1.9151   7.0439   Si        1 RES1   0.0000
    63 C8A     12.6732  -2.9603   6.3318   C.3       1 RES1   0.0000
    64 H7A     11.8890  -2.9201   6.9168   H         1 RES1   0.0000
    65 H8A     12.9808  -3.8887   6.2585   H         1 RES1   0.0000
    66 H9A     12.4354  -2.6243   5.4421   H         1 RES1   0.0000
    67 C9A     15.4652  -1.9372   5.8532   C.3       1 RES1   0.0000
    68 H10A    15.2071  -1.4806   5.0252   H         1 RES1   0.0000
    69 H11A    15.7087  -2.8655   5.6519   H         1 RES1   0.0000
    70 H12A    16.2306  -1.4777   6.2556   H         1 RES1   0.0000
    71 C10A    14.5608  -2.7535   8.6187   C.3       1 RES1   0.0000
    72 H13A    13.8609  -2.6464   9.2958   H         1 RES1   0.0000
    73 H14A    15.3917  -2.3477   8.9407   H         1 RES1   0.0000
    74 H15A    14.7065  -3.7068   8.4477   H         1 RES1   0.0000
    75 Si2A    14.4850   0.8662   8.5848   Si        1 RES1   0.0000
    76 C11A    14.0368   2.6961   8.7251   C.3       1 RES1   0.0000
    77 H16A    13.0955   2.7842   8.9767   H         1 RES1   0.0000
    78 H17A    14.1881   3.1364   7.8612   H         1 RES1   0.0000
    79 H18A    14.5978   3.1192   9.4079   H         1 RES1   0.0000
    80 C12A    16.3081   0.7762   8.1401   C.3       1 RES1   0.0000
    81 H19A    16.4323   1.0681   7.2130   H         1 RES1   0.0000
    82 H20A    16.6225  -0.1474   8.2364   H         1 RES1   0.0000
    83 H21A    16.8191   1.3600   8.7381   H         1 RES1   0.0000
    84 C13A    14.2437   0.1598  10.2919   C.3       1 RES1   0.0000
    85 H22A    13.2869   0.0268  10.4586   H         1 RES1   0.0000
    86 H23A    14.6093   0.7800  10.9574   H         1 RES1   0.0000
    87 H24A    14.7092  -0.7006  10.3580   H         1 RES1   0.0000
    88 C14A    14.2684   1.6309   5.1804   C.3       1 RES1   0.0000
    89 H25A    14.6030   2.2137   5.9078   H         1 RES1   0.0000
    90 H26A    15.0052   1.0222   4.9145   H         1 RES1   0.0000
    91 Cl1A    10.0435  -1.2955   4.4806   Cl        1 RES1   0.0000
@<TRIPOS>BOND
     1     1     2    1
     2     3     1    1
     3     4     3   ar
     4     5     4   ar
     5     6     5    1
     6     7     5   ar
     7     8     7    1
     8     9     7   ar
     9    10     9    1
    10    11     3   ar
    11    12    11    1
    12    13    12    1
    13    14    12    1
    14    15     1    1
    15    16    15    1
    16    17    16    1
    17    18    16    1
    18    19    18    1
    19    20    19    1
    20    21    19    1
    21    22    19    1
    22    23    18    1
    23    24    23    1
    24    25    23    1
    25    26    23    1
    26    27    18    1
    27    28    27    1
    28    29    27    1
    29    30    27    1
    30    31    16    1
    31    32    31    1
    32    33    32    1
    33    34    32    1
    34    35    32    1
    35    36    31    1
    36    37    36    1
    37    38    36    1
    38    39    36    1
    39    40    31    1
    40    41    40    1
    41    42    40    1
    42    43    40    1
    43    44    15    1
    44    45    44    1
    45    46    44    1
    46    47     1    1
    47    48    44    1
    48    49    48   ar
    49    50    49    1
    50    51    49   ar
    51    52    51    1
    52    53    51   ar
    53    54    53    1
    54    55    47   ar
    55    56    55    1
    56    57    56    1
    57    58    56    1
    58    59     1    1
    59    60    59    1
    60    61    60    1
    61    62    60    1
    62    63    62    1
    63    64    63    1
    64    65    63    1
    65    66    63    1
    66    67    62    1
    67    68    67    1
    68    69    67    1
    69    70    67    1
    70    71    62    1
    71    72    71    1
    72    73    71    1
    73    74    71    1
    74    75    60    1
    75    76    75    1
    76    77    76    1
    77    78    76    1
    78    79    76    1
    79    80    75    1
    80    81    80    1
    81    82    80    1
    82    83    80    1
    83    84    75    1
    84    85    84    1
    85    86    84    1
    86    87    84    1
    87    88     4    1
    88    89    88    1
    89    90    88    1
    90    91     1    1
    91     9    11   ar
    92    12    15    1
    93    47    48   ar
    94    53    55   ar
    95    56    59    1
    96    59    88    1
@<TRIPOS>SUBSTRUCTURE
     1 RES1        1 GROUP             0 ****  ****    0  
@<TRIPOS>CRYSIN
   26.6502    9.5709   15.5666   90.0000  112.5720   90.0000    15     1
