@<TRIPOS>MOLECULE
CEXFAN
    95   104     3     0     0
SMALL
USER_CHARGES
****
Generated from the CSD

@<TRIPOS>ATOM
     1 Fe1      3.9153   3.8873  10.8396   Fe        1 RES1   2.0000
     2 N1       4.7452   3.5441  12.6333   N.ar      1 RES1   0.0000
     3 N2       4.2551   2.0485  10.7057   N.ar      1 RES1   0.0000
     4 N3       3.1703   3.5081   9.0146   N.ar      1 RES1   0.0000
     5 N4       5.0598   0.0667  11.6829   N.ar      1 RES1   0.0000
     6 N5       4.1173   0.0545   9.4745   N.ar      1 RES1   0.0000
     7 N6       2.0741   3.8468  11.6442   N.ar      1 RES1   0.0000
     8 N7       3.5779   5.7296  10.9949   N.ar      1 RES1   0.0000
     9 N8       5.6252   4.6422  10.1120   N.ar      1 RES1   0.0000
    10 N9       2.1850   7.4441  11.7749   N.ar      1 RES1   0.0000
    11 N10      4.3029   7.9588  10.7727   N.ar      1 RES1   0.0000
    12 C1       4.9581   4.4246  13.6205   C.ar      1 RES1   0.0000
    13 H1       4.6774   5.3252  13.4989   H         1 RES1   0.0000
    14 C2       5.5749   4.0746  14.8153   C.ar      1 RES1   0.0000
    15 H2       5.7064   4.7244  15.4953   H         1 RES1   0.0000
    16 C3       5.9946   2.7759  15.0070   C.ar      1 RES1   0.0000
    17 H3       6.4290   2.5223  15.8133   H         1 RES1   0.0000
    18 C4       5.7724   1.8412  14.0040   C.ar      1 RES1   0.0000
    19 H4       6.0509   0.9409  14.1123   H         1 RES1   0.0000
    20 C5       5.1417   2.2476  12.8475   C.ar      1 RES1   0.0000
    21 C6       4.8302   1.3632  11.7121   C.ar      1 RES1   0.0000
    22 C7       4.7186  -0.5550  10.5245   C.ar      1 RES1   0.0000
    23 C8       3.8969   1.3407   9.6205   C.ar      1 RES1   0.0000
    24 C9       3.2271   2.1951   8.6318   C.ar      1 RES1   0.0000
    25 C10      2.6739   1.7286   7.4622   C.ar      1 RES1   0.0000
    26 H5       2.7360   0.8089   7.2292   H         1 RES1   0.0000
    27 C11      2.0253   2.6273   6.6309   C.ar      1 RES1   0.0000
    28 H6       1.6150   2.3341   5.8261   H         1 RES1   0.0000
    29 C12      1.9862   3.9624   6.9949   C.ar      1 RES1   0.0000
    30 H7       1.5610   4.5989   6.4301   H         1 RES1   0.0000
    31 C13      2.5657   4.3685   8.1814   C.ar      1 RES1   0.0000
    32 H8       2.5358   5.2889   8.4158   H         1 RES1   0.0000
    33 C14      4.9869  -1.9871  10.4150   C.ar      1 RES1   0.0000
    34 C15      5.8019  -2.6312  11.3328   C.ar      1 RES1   0.0000
    35 H9       6.2281  -2.1294  12.0183   H         1 RES1   0.0000
    36 C16      5.9981  -3.9954  11.2580   C.ar      1 RES1   0.0000
    37 H10      6.5605  -4.4206  11.8967   H         1 RES1   0.0000
    38 C17      5.3953  -4.7600  10.2745   C.ar      1 RES1   0.0000
    39 C18      4.6270  -4.1057   9.3298   C.ar      1 RES1   0.0000
    40 H11      4.2256  -4.6055   8.6282   H         1 RES1   0.0000
    41 C19      4.4297  -2.7415   9.3844   C.ar      1 RES1   0.0000
    42 H12      3.9106  -2.3143   8.7138   H         1 RES1   0.0000
    43 C20      5.5249  -6.2618  10.2598   C.3       1 RES1   0.0000
    44 H13      4.6792  -6.6656  10.5485   H         1 RES1   0.0000
    45 H14      6.2424  -6.5335  10.8692   H         1 RES1   0.0000
    46 H15      5.7358  -6.5633   9.3512   H         1 RES1   0.0000
    47 C21      1.3280   2.7808  11.9550   C.ar      1 RES1   0.0000
    48 H16      1.6720   1.9115  11.7845   H         1 RES1   0.0000
    49 C22      0.0665   2.9046  12.5194   C.ar      1 RES1   0.0000
    50 H17     -0.4334   2.1261  12.7399   H         1 RES1   0.0000
    51 C23     -0.4600   4.1522  12.7586   C.ar      1 RES1   0.0000
    52 H18     -1.3277   4.2457  13.1355   H         1 RES1   0.0000
    53 C24      0.2925   5.2711  12.4426   C.ar      1 RES1   0.0000
    54 H19     -0.0447   6.1440  12.5983   H         1 RES1   0.0000
    55 C25      1.5371   5.0839  11.8987   C.ar      1 RES1   0.0000
    56 C26      2.4459   6.1806  11.5473   C.ar      1 RES1   0.0000
    57 C27      3.1466   8.3130  11.3776   C.ar      1 RES1   0.0000
    58 C28      4.4830   6.6560  10.6230   C.ar      1 RES1   0.0000
    59 C29      5.6907   6.0060  10.0825   C.ar      1 RES1   0.0000
    60 C30      6.7988   6.6841   9.6223   C.ar      1 RES1   0.0000
    61 H20      6.8074   7.6329   9.6077   H         1 RES1   0.0000
    62 C31      7.8964   5.9716   9.1819   C.ar      1 RES1   0.0000
    63 H21      8.6697   6.4213   8.8608   H         1 RES1   0.0000
    64 C32      7.8457   4.5874   9.2193   C.ar      1 RES1   0.0000
    65 H22      8.5892   4.0740   8.9289   H         1 RES1   0.0000
    66 C33      6.6971   3.9574   9.6860   C.ar      1 RES1   0.0000
    67 H23      6.6704   3.0076   9.7039   H         1 RES1   0.0000
    68 C34      2.8901   9.7307  11.6807   C.ar      1 RES1   0.0000
    69 C35      1.8637  10.0691  12.5629   C.ar      1 RES1   0.0000
    70 H24      1.2972   9.3926  12.9150   H         1 RES1   0.0000
    71 C36      1.6706  11.3913  12.9243   C.ar      1 RES1   0.0000
    72 H25      0.9791  11.6079  13.5390   H         1 RES1   0.0000
    73 C37      2.4616  12.4058  12.4099   C.ar      1 RES1   0.0000
    74 C38      3.4510  12.0628  11.4865   C.ar      1 RES1   0.0000
    75 H26      3.9786  12.7469  11.0923   H         1 RES1   0.0000
    76 C39      3.6761  10.7419  11.1313   C.ar      1 RES1   0.0000
    77 H27      4.3650  10.5250  10.5137   H         1 RES1   0.0000
    78 C40      2.2740  13.8367  12.8669   C.3       1 RES1   0.0000
    79 H28      1.4225  13.9189  13.3452   H         1 RES1   0.0000
    80 H29      2.2688  14.4306  12.0865   H         1 RES1   0.0000
    81 H30      3.0100  14.0872  13.4628   H         1 RES1   0.0000
    82 P1      -0.3684   0.1696   9.6358   P.3       2 RES2  -1.0000
    83 F1      -0.7061  -1.3850   9.6719   F         2 RES2   0.0000
    84 F2      -1.8815   0.5058   9.2603   F         2 RES2   0.0000
    85 F3      -0.7442   0.2681  11.1854   F         2 RES2   0.0000
    86 F4       1.1375  -0.1271  10.0539   F         2 RES2   0.0000
    87 F5       0.0040   0.0792   8.1126   F         2 RES2   0.0000
    88 F6      -0.0240   1.7392   9.6030   F         2 RES2   0.0000
    89 P2       6.9559   8.1664   0.7013   P.3       3 RES3  -1.0000
    90 F7       6.4521   9.4259  -0.1299   F         3 RES3   0.0000
    91 F8       7.2340   7.3589  -0.6419   F         3 RES3   0.0000
    92 F9       5.4600   7.6039   0.6934   F         3 RES3   0.0000
    93 F10      6.6471   8.9618   2.0578   F         3 RES3   0.0000
    94 F11      8.4228   8.7624   0.7224   F         3 RES3   0.0000
    95 F12      7.4489   6.9198   1.5392   F         3 RES3   0.0000
@<TRIPOS>BOND
     1     1     2    1
     2     2    12   ar
     3     3     1    1
     4     4     1    1
     5     5    21   ar
     6     6    22   ar
     7     7     1    1
     8     8     1    1
     9     9     1    1
    10    10    56   ar
    11    11    57   ar
    12    12    13    1
    13    14    12   ar
    14    15    14    1
    15    16    14   ar
    16    17    16    1
    17    18    16   ar
    18    19    18    1
    19    20     2   ar
    20    21     3   ar
    21    22     5   ar
    22    23     3   ar
    23    24     4   ar
    24    25    24   ar
    25    26    25    1
    26    27    25   ar
    27    28    27    1
    28    29    27   ar
    29    30    29    1
    30    31     4   ar
    31    32    31    1
    32    33    22    1
    33    34    33   ar
    34    35    34    1
    35    36    34   ar
    36    37    36    1
    37    38    36   ar
    38    39    38   ar
    39    40    39    1
    40    41    33   ar
    41    42    41    1
    42    43    38    1
    43    44    43    1
    44    45    43    1
    45    46    43    1
    46    47     7   ar
    47    48    47    1
    48    49    47   ar
    49    50    49    1
    50    51    49   ar
    51    52    51    1
    52    53    51   ar
    53    54    53    1
    54    55     7   ar
    55    56     8   ar
    56    57    10   ar
    57    58     8   ar
    58    59     9   ar
    59    60    59   ar
    60    61    60    1
    61    62    60   ar
    62    63    62    1
    63    64    62   ar
    64    65    64    1
    65    66     9   ar
    66    67    66    1
    67    68    57    1
    68    69    68   ar
    69    70    69    1
    70    71    69   ar
    71    72    71    1
    72    73    71   ar
    73    74    73   ar
    74    75    74    1
    75    76    68   ar
    76    77    76    1
    77    78    73    1
    78    79    78    1
    79    80    78    1
    80    81    78    1
    81     6    23   ar
    82    11    58   ar
    83    18    20   ar
    84    20    21    1
    85    23    24    1
    86    29    31   ar
    87    39    41   ar
    88    53    55   ar
    89    55    56    1
    90    58    59    1
    91    64    66   ar
    92    74    76   ar
    93    82    83    1
    94    84    82    1
    95    85    82    1
    96    86    82    1
    97    87    82    1
    98    88    82    1
    99    89    90    1
   100    91    89    1
   101    92    89    1
   102    93    89    1
   103    94    89    1
   104    95    89    1
@<TRIPOS>SUBSTRUCTURE
     1 RES1        1 GROUP             0 ****  ****    0  
     2 RES2       82 GROUP             0 ****  ****    0  
     3 RES3       89 GROUP             0 ****  ****    0  
@<TRIPOS>CRYSIN
    8.9622   33.0144   13.3712   90.0000   92.0530   90.0000   231     1
