@<TRIPOS>MOLECULE
CICFIG
    86    92     1     0     0
SMALL
NO_CHARGES
****
Generated from the CSD

@<TRIPOS>ATOM
     1 Fe1      6.1233   3.7468   6.0942   Fe        1 RES1   0.0000
     2 S1       8.0654   2.5840   6.4457   S.3       1 RES1   0.0000
     3 P1       5.0265   1.8495   6.4933   P.3       1 RES1   0.0000
     4 P2       7.4566   5.5240   5.7233   P.3       1 RES1   0.0000
     5 N1       6.1449   2.9894   3.1733   N.1       1 RES1   0.0000
     6 N2       4.4548   4.8129   5.9409   N.ar      1 RES1   0.0000
     7 C1       6.8422   4.0860   9.1042   C.ar      1 RES1   0.0000
     8 C2       5.0509   5.3825   8.1563   C.ar      1 RES1   0.0000
     9 C3       7.6748   2.8689   9.2278   C.ar      1 RES1   0.0000
    10 C4       9.0691   1.0594   8.4204   C.ar      1 RES1   0.0000
    11 C5       8.5542   5.3916   4.2661   C.ar      1 RES1   0.0000
    12 C6       8.2697   2.1793   8.1447   C.ar      1 RES1   0.0000
    13 C7       4.9897   6.2038   9.2797   C.ar      1 RES1   0.0000
    14 C8       3.2263   1.9176   6.1942   C.ar      1 RES1   0.0000
    15 C9       4.1090   5.5169   7.0490   C.ar      1 RES1   0.0000
    16 C10      9.2255   0.5673   9.6981   C.ar      1 RES1   0.0000
    17 C11      6.2642   2.5397   1.7998   C.3       1 RES1   0.0000
    18 C12      2.0569   6.2352   6.0237   C.ar      1 RES1   0.0000
    19 C13      6.8172   4.9701  10.2027   C.ar      1 RES1   0.0000
    20 C14      2.9119   6.2358   7.1045   C.ar      1 RES1   0.0000
    21 C15      9.7494   4.6820   4.3450   C.ar      1 RES1   0.0000
    22 C16      6.0268   4.3692   7.9734   C.ar      1 RES1   0.0000
    23 C17      6.1614   3.2939   4.3023   C.1       1 RES1   0.0000
    24 C18     10.5328   4.4811   3.2192   C.ar      1 RES1   0.0000
    25 C19      5.9230   6.0241  10.2827   C.ar      1 RES1   0.0000
    26 C20      8.5908   1.1815  10.7624   C.ar      1 RES1   0.0000
    27 C21      8.1911   5.9254   3.0351   C.ar      1 RES1   0.0000
    28 C22      2.3711   2.4620   7.1423   C.ar      1 RES1   0.0000
    29 C23      2.6658   1.4604   5.0034   C.ar      1 RES1   0.0000
    30 C24      0.9988   2.4947   6.9382   C.ar      1 RES1   0.0000
    31 C25      1.2945   1.4960   4.7995   C.ar      1 RES1   0.0000
    32 C26      6.6160   7.1228   5.4391   C.3       1 RES1   0.0000
    33 C27      5.0717   1.0974   8.1453   C.3       1 RES1   0.0000
    34 C28      8.6365   5.9887   7.0345   C.3       1 RES1   0.0000
    35 C29     10.1667   5.0168   2.0042   C.ar      1 RES1   0.0000
    36 C30      5.5531   0.4145   5.5008   C.3       1 RES1   0.0000
    37 C31      5.2690   1.4023   1.5790   C.3       1 RES1   0.0000
    38 C32      9.0025   5.7505   1.9147   C.ar      1 RES1   0.0000
    39 C33      0.4676   2.0026   5.7724   C.ar      1 RES1   0.0000
    40 C34      3.6184   4.8590   4.8832   C.ar      1 RES1   0.0000
    41 C35      5.9484   3.7082   0.8820   C.3       1 RES1   0.0000
    42 C36      2.4328   5.5371   4.8881   C.ar      1 RES1   0.0000
    43 C37      7.8400   2.3137  10.5108   C.ar      1 RES1   0.0000
    44 C38      7.6872   2.0566   1.6042   C.3       1 RES1   0.0000
    45 H1       9.4676   0.6130   7.6676   H         1 RES1   0.0000
    46 H2      10.0255   4.3165   5.1963   H         1 RES1   0.0000
    47 H3       7.3559   2.7220  11.2108   H         1 RES1   0.0000
    48 H4       5.9436   7.0115   4.7732   H         1 RES1   0.0000
    49 H5      10.7216   4.8231   1.2394   H         1 RES1   0.0000
    50 H6       5.9421   6.6017  11.0001   H         1 RES1   0.0000
    51 H7       2.7201   2.7284   7.9327   H         1 RES1   0.0000
    52 H8       6.1907   7.3132   6.2345   H         1 RES1   0.0000
    53 H9       3.2184   1.0894   4.3350   H         1 RES1   0.0000
    54 H10      2.6787   6.7193   7.8519   H         1 RES1   0.0000
    55 H11     -0.4136   2.0328   5.6233   H         1 RES1   0.0000
    56 H12      4.3144   6.9066   9.3414   H         1 RES1   0.0000
    57 H13      7.4711   4.8374  10.9268   H         1 RES1   0.0000
    58 H14      9.1556   5.1740   7.3366   H         1 RES1   0.0000
    59 H15      3.9079   4.3323   4.0924   H         1 RES1   0.0000
    60 H16      8.1389   6.3619   7.8048   H         1 RES1   0.0000
    61 H17      7.3021   7.8309   5.1963   H         1 RES1   0.0000
    62 H18      0.4626   2.8903   7.6393   H         1 RES1   0.0000
    63 H19      9.7599  -0.2192   9.8435   H         1 RES1   0.0000
    64 H20      9.3016   6.7018   6.6407   H         1 RES1   0.0000
    65 H21      8.6108   0.8258  11.6753   H         1 RES1   0.0000
    66 H22      6.4857   0.2541   5.7323   H         1 RES1   0.0000
    67 H23      4.8127   1.7024   8.8411   H         1 RES1   0.0000
    68 H24      0.8493   1.1561   4.0134   H         1 RES1   0.0000
    69 H25     11.3362   3.9496   3.2912   H         1 RES1   0.0000
    70 H26      4.4841   0.3129   8.1453   H         1 RES1   0.0000
    71 H27      1.9064   5.5123   4.1206   H         1 RES1   0.0000
    72 H28      5.5143   0.6194   2.1496   H         1 RES1   0.0000
    73 H29      5.0393  -0.3065   5.7305   H         1 RES1   0.0000
    74 H30      7.4090   6.4223   2.9414   H         1 RES1   0.0000
    75 H31      5.9671   0.7782   8.3277   H         1 RES1   0.0000
    76 H32      5.5248   0.5876   4.5494   H         1 RES1   0.0000
    77 H33      1.1818   6.6748   6.0577   H         1 RES1   0.0000
    78 H34      4.3130   1.6993   1.7453   H         1 RES1   0.0000
    79 H35      8.6925   6.1301   1.1359   H         1 RES1   0.0000
    80 H36      5.2808   1.1593   0.6394   H         1 RES1   0.0000
    81 H37      7.7745   1.7787   0.7147   H         1 RES1   0.0000
    82 H38      8.2706   2.8268   1.6926   H         1 RES1   0.0000
    83 H39      7.9161   1.3658   2.2568   H         1 RES1   0.0000
    84 H40      6.6400   4.4784   1.0494   H         1 RES1   0.0000
    85 H41      5.1355   4.0179   1.0814   H         1 RES1   0.0000
    86 H42      6.0248   3.3668  -0.0376   H         1 RES1   0.0000
@<TRIPOS>BOND
     1     1     2    1
     2     2    12    1
     3     3     1    1
     4     4     1    1
     5     5    17    1
     6     6     1    1
     7     7     9    1
     8     8    13   ar
     9     9    12   ar
    10    10    12   ar
    11    11     4    1
    12    13    25   ar
    13    14     3    1
    14    15     6   ar
    15    16    10   ar
    16    17    37    1
    17    18    20   ar
    18    19     7   ar
    19    20    15   ar
    20    21    11   ar
    21    22     1    1
    22    23     1    1
    23    24    21   ar
    24    25    19   ar
    25    26    16   ar
    26    27    11   ar
    27    28    14   ar
    28    29    14   ar
    29    30    28   ar
    30    31    29   ar
    31    32     4    1
    32    33     3    1
    33    34     4    1
    34    35    24   ar
    35    36     3    1
    36    37    72    1
    37    38    27   ar
    38    39    30   ar
    39    40     6   ar
    40    41    17    1
    41    42    18   ar
    42    43     9   ar
    43    44    17    1
    44    45    10    1
    45    46    21    1
    46    47    43    1
    47    48    32    1
    48    49    35    1
    49    50    25    1
    50    51    28    1
    51    52    32    1
    52    53    29    1
    53    54    20    1
    54    55    39    1
    55    56    13    1
    56    57    19    1
    57    58    34    1
    58    59    40    1
    59    60    34    1
    60    61    32    1
    61    62    30    1
    62    63    16    1
    63    64    34    1
    64    65    26    1
    65    66    36    1
    66    67    33    1
    67    68    31    1
    68    69    24    1
    69    70    33    1
    70    71    42    1
    71    73    36    1
    72    74    27    1
    73    75    33    1
    74    76    36    1
    75    77    18    1
    76    78    37    1
    77    79    38    1
    78    80    37    1
    79    81    44    1
    80    82    44    1
    81    83    44    1
    82    84    41    1
    83    85    41    1
    84    86    41    1
    85     5    23    3
    86     7    22   ar
    87     8    15    1
    88     8    22   ar
    89    26    43   ar
    90    31    39   ar
    91    35    38   ar
    92    40    42   ar
@<TRIPOS>SUBSTRUCTURE
     1 RES1        1 GROUP             0 ****  ****    0  
@<TRIPOS>CRYSIN
   11.3002   15.8810   18.8280   90.0000   92.7150   90.0000   231     1
