@<TRIPOS>MOLECULE
CICQAG
   111   124     1     0     0
SMALL
NO_CHARGES
****
Generated from the CSD

@<TRIPOS>ATOM
     1 Fe1      5.6086   5.4490  12.0181   Fe        1 RES1   0.0000
     2 N1       4.5019   3.8734  11.5056   N.2       1 RES1   0.0000
     3 N2       5.9866   5.7979  10.0907   N.2       1 RES1   0.0000
     4 N3       6.7304   7.0077  12.5231   N.2       1 RES1   0.0000
     5 N4       5.2197   5.0984  13.9417   N.2       1 RES1   0.0000
     6 N5       3.9429   6.6287  11.8934   N.3       1 RES1   0.0000
     7 H1       3.7960   6.7266  11.1400   H         1 RES1   0.0000
     8 H2       3.3527   6.2141  12.1811   H         1 RES1   0.0000
     9 N6       7.2159   4.1905  12.0504   N.3       1 RES1   0.0000
    10 H3       6.9407   3.4593  11.8054   H         1 RES1   0.0000
    11 H4       7.7190   4.4524  11.4661   H         1 RES1   0.0000
    12 C1       3.8609   2.9805  12.3549   C.2       1 RES1   0.0000
    13 C2       4.2879   3.3788  10.2345   C.2       1 RES1   0.0000
    14 C3       5.5964   5.0415   9.0047   C.2       1 RES1   0.0000
    15 C4       6.6806   6.8694   9.5493   C.2       1 RES1   0.0000
    16 C5       7.3318   7.9180  11.6730   C.2       1 RES1   0.0000
    17 C6       6.9609   7.4926  13.7917   C.2       1 RES1   0.0000
    18 C7       5.6047   5.8589  15.0199   C.2       1 RES1   0.0000
    19 C8       4.4955   4.0604  14.4720   C.2       1 RES1   0.0000
    20 C9       3.2364   1.9520  11.5919   C.2       1 RES1   0.0000
    21 H5       2.7521   1.2582  11.9229   H         1 RES1   0.0000
    22 C10      3.4967   2.1923  10.2991   C.2       1 RES1   0.0000
    23 H6       3.2180   1.6938   9.5906   H         1 RES1   0.0000
    24 C11      6.0896   5.6221   7.7996   C.2       1 RES1   0.0000
    25 H7       5.9969   5.2794   6.9521   H         1 RES1   0.0000
    26 C12      6.7251   6.7523   8.1257   C.2       1 RES1   0.0000
    27 H8       7.1175   7.3436   7.5414   H         1 RES1   0.0000
    28 C13      7.9922   8.9419  12.4360   C.2       1 RES1   0.0000
    29 H9       8.5000   9.6825  12.0818   H         1 RES1   0.0000
    30 C14      7.7688   8.6757  13.7272   C.2       1 RES1   0.0000
    31 H10      8.0738   9.1616  14.4356   H         1 RES1   0.0000
    32 C15      5.0930   5.2985  16.2316   C.2       1 RES1   0.0000
    33 H11      5.1877   5.6277  17.0493   H         1 RES1   0.0000
    34 C16      4.4290   4.1851  15.8923   C.2       1 RES1   0.0000
    35 H12      4.0150   3.6177  16.4584   H         1 RES1   0.0000
    36 C17      4.7956   3.9068   9.0626   C.2       1 RES1   0.0000
    37 C18      7.2715   7.8962  10.2908   C.2       1 RES1   0.0000
    38 C19      6.4109   6.9836  14.9653   C.2       1 RES1   0.0000
    39 C20      3.8734   3.0453  13.7437   C.2       1 RES1   0.0000
    40 C21      4.4142   3.2413   7.7798   C.ar      1 RES1   0.0000
    41 C22      5.1970   2.2376   7.2319   C.ar      1 RES1   0.0000
    42 H13      5.9847   2.0278   7.6142   H         1 RES1   0.0000
    43 C23      4.7818   1.5560   6.1063   C.ar      1 RES1   0.0000
    44 H14      5.3141   0.8914   5.7504   H         1 RES1   0.0000
    45 C24      3.5806   1.8564   5.5187   C.ar      1 RES1   0.0000
    46 H15      3.3005   1.3906   4.8168   H         1 RES1   0.0000
    47 C25      2.8123   2.8769   6.0252   C.ar      1 RES1   0.0000
    48 H16      2.0102   3.1073   5.6097   H         1 RES1   0.0000
    49 C26      3.2294   3.5578   7.1491   C.ar      1 RES1   0.0000
    50 H17      2.6829   4.2670   7.5000   H         1 RES1   0.0000
    51 C27      7.8000   9.0728   9.5360   C.ar      1 RES1   0.0000
    52 C28      6.9581  10.0807   9.1735   C.ar      1 RES1   0.0000
    53 H18      6.0882  10.0204   9.3953   H         1 RES1   0.0000
    54 C29      7.3921  11.1788   8.4882   C.ar      1 RES1   0.0000
    55 H19      6.8169  11.8112   8.2747   H         1 RES1   0.0000
    56 C30      8.6760  11.3129   8.1357   C.ar      1 RES1   0.0000
    57 H20      8.9815  12.0940   7.6225   H         1 RES1   0.0000
    58 C31      9.5265  10.3465   8.5064   C.ar      1 RES1   0.0000
    59 H21     10.3160  10.4228   8.3177   H         1 RES1   0.0000
    60 C32      9.1056   9.2281   9.1950   C.ar      1 RES1   0.0000
    61 H22      9.7204   8.5711   9.4301   H         1 RES1   0.0000
    62 C33      6.6341   7.7695  16.2183   C.ar      1 RES1   0.0000
    63 C34      7.6908   7.5411  17.0625   C.ar      1 RES1   0.0000
    64 H23      8.2699   6.8324  16.8904   H         1 RES1   0.0000
    65 C35      7.9110   8.3485  18.1600   C.ar      1 RES1   0.0000
    66 H24      8.6049   8.1859  18.6930   H         1 RES1   0.0000
    67 C36      7.0810   9.3871  18.4298   C.ar      1 RES1   0.0000
    68 H25      7.2493   9.9476  19.1515   H         1 RES1   0.0000
    69 C37      6.0004   9.6054  17.6369   C.ar      1 RES1   0.0000
    70 H26      5.4188  10.2880  17.8322   H         1 RES1   0.0000
    71 C38      5.7762   8.8001  16.5312   C.ar      1 RES1   0.0000
    72 H27      5.0850   8.9463  16.0329   H         1 RES1   0.0000
    73 C39      3.2199   1.9500  14.5217   C.ar      1 RES1   0.0000
    74 C40      1.8450   1.8186  14.5829   C.ar      1 RES1   0.0000
    75 H28      1.2936   2.4054  14.0930   H         1 RES1   0.0000
    76 C41      1.2776   0.8205  15.3609   C.ar      1 RES1   0.0000
    77 H29      0.4113   0.7525  15.4106   H         1 RES1   0.0000
    78 C42      2.0711  -0.0550  16.0478   C.ar      1 RES1   0.0000
    79 H30      1.6637  -0.7567  16.5875   H         1 RES1   0.0000
    80 C43      3.4099   0.0459  15.9800   C.ar      1 RES1   0.0000
    81 H31      3.9993  -0.6181  16.4865   H         1 RES1   0.0000
    82 C44      3.9868   1.0445  15.2235   C.ar      1 RES1   0.0000
    83 H32      4.9511   1.1109  15.1855   H         1 RES1   0.0000
    84 C45      3.8645   7.9208  12.4973   C.3       1 RES1   0.0000
    85 H33      4.5996   8.4535  12.1563   H         1 RES1   0.0000
    86 H34      4.0053   7.8125  13.4507   H         1 RES1   0.0000
    87 C46      2.6038   8.7016  12.3036   C.ar      1 RES1   0.0000
    88 C47      1.5027   8.4888  13.0783   C.ar      1 RES1   0.0000
    89 H35      1.5220   7.8392  13.7056   H         1 RES1   0.0000
    90 C48      0.3693   9.2384  12.9194   C.ar      1 RES1   0.0000
    91 H36     -0.4015   9.0660  13.4739   H         1 RES1   0.0000
    92 C49      0.3266  10.1998  12.0090   C.ar      1 RES1   0.0000
    93 H37     -0.4518  10.7180  11.9130   H         1 RES1   0.0000
    94 C50      1.3845  10.4455  11.2211   C.ar      1 RES1   0.0000
    95 H38      1.3445  11.1813  10.5110   H         1 RES1   0.0000
    96 C51      2.5283   9.6914  11.3750   C.ar      1 RES1   0.0000
    97 H39      3.2008   9.8495  10.8751   H         1 RES1   0.0000
    98 C52      8.0355   3.9372  13.1975   C.3       1 RES1   0.0000
    99 H40      7.4750   3.9412  13.9887   H         1 RES1   0.0000
   100 H41      8.6765   4.6598  13.2885   H         1 RES1   0.0000
   101 C53      8.7840   2.6277  13.1412   C.ar      1 RES1   0.0000
   102 C54      9.9316   2.5174  12.4162   C.ar      1 RES1   0.0000
   103 H42     10.2452   3.2206  11.9891   H         1 RES1   0.0000
   104 C55     10.6102   1.3357  12.3417   C.ar      1 RES1   0.0000
   105 H43     11.3116   1.2759  11.9014   H         1 RES1   0.0000
   106 C56     10.1275   0.2522  13.0137   C.ar      1 RES1   0.0000
   107 H44     10.5399  -0.4930  12.9740   H         1 RES1   0.0000
   108 C57      9.0030   0.3560  13.7371   C.ar      1 RES1   0.0000
   109 H45      8.6789  -0.3884  14.2022   H         1 RES1   0.0000
   110 C58      8.3299   1.5248  13.8033   C.ar      1 RES1   0.0000
   111 H46      7.5528   1.5787  14.3015   H         1 RES1   0.0000
@<TRIPOS>BOND
     1     1     2    1
     2     2    12    1
     3     3     1    1
     4     4     1    1
     5     5     1    1
     6     6     1    1
     7     7     6    1
     8     8     6    1
     9     9     1    1
    10    10     9    1
    11    11     9    1
    12    12    20    1
    13    13     2    1
    14    14     3    2
    15    15     3    1
    16    16     4    1
    17    17     4    1
    18    18     5    1
    19    19     5    2
    20    20    21    1
    21    22    13    1
    22    23    22    1
    23    24    14    1
    24    25    24    1
    25    26    15    1
    26    27    26    1
    27    28    16    2
    28    29    28    1
    29    30    17    2
    30    31    30    1
    31    32    18    1
    32    33    32    1
    33    34    19    1
    34    35    34    1
    35    36    13    2
    36    37    15    2
    37    38    17    1
    38    39    12    2
    39    40    36    1
    40    41    40   ar
    41    42    41    1
    42    43    41   ar
    43    44    43    1
    44    45    43   ar
    45    46    45    1
    46    47    45   ar
    47    48    47    1
    48    49    40   ar
    49    50    49    1
    50    51    37    1
    51    52    51   ar
    52    53    52    1
    53    54    52   ar
    54    55    54    1
    55    56    54   ar
    56    57    56    1
    57    58    56   ar
    58    59    58    1
    59    60    51   ar
    60    61    60    1
    61    62    38    1
    62    63    62   ar
    63    64    63    1
    64    65    63   ar
    65    66    65    1
    66    67    65   ar
    67    68    67    1
    68    69    67   ar
    69    70    69    1
    70    71    62   ar
    71    72    71    1
    72    73    39    1
    73    74    73   ar
    74    75    74    1
    75    76    74   ar
    76    77    76    1
    77    78    76   ar
    78    79    78    1
    79    80    78   ar
    80    81    80    1
    81    82    73   ar
    82    83    82    1
    83    84     6    1
    84    85    84    1
    85    86    84    1
    86    87    84    1
    87    88    87   ar
    88    89    88    1
    89    90    88   ar
    90    91    90    1
    91    92    90   ar
    92    93    92    1
    93    94    92   ar
    94    95    94    1
    95    96    87   ar
    96    97    96    1
    97    98     9    1
    98    99    98    1
    99   100    98    1
   100   101    98    1
   101   102   101   ar
   102   103   102    1
   103   104   102   ar
   104   105   104    1
   105   106   104   ar
   106   107   106    1
   107   108   106   ar
   108   109   108    1
   109   110   101   ar
   110   111   110    1
   111    14    36    1
   112    16    37    1
   113    18    38    2
   114    19    39    1
   115    20    22    2
   116    24    26    2
   117    28    30    1
   118    32    34    2
   119    47    49   ar
   120    58    60   ar
   121    69    71   ar
   122    80    82   ar
   123    94    96   ar
   124   108   110   ar
@<TRIPOS>SUBSTRUCTURE
     1 RES1        1 GROUP             0 ****  ****    0  
@<TRIPOS>CRYSIN
   11.7420   12.3480   17.4040   97.6900  101.9700  112.1600     2     1
