@<TRIPOS>MOLECULE
CIDDUR
    88    94     4     0     0
SMALL
USER_CHARGES
****
Generated from the CSD

@<TRIPOS>ATOM
     1 Fe1      6.9119   8.7505  10.0703   Fe        1 RES1   2.0000
     2 N1       6.5411   7.7828   8.3810   N.ar      1 RES1   0.0000
     3 N2       6.5478  10.2252   8.9598   N.ar      1 RES1   0.0000
     4 N3       7.2032  10.2033  11.3742   N.ar      1 RES1   0.0000
     5 N4       5.0898   8.4843  10.7697   N.ar      1 RES1   0.0000
     6 N5       7.2220   7.2203  11.1205   N.ar      1 RES1   0.0000
     7 N6       8.8503   8.5640   9.7794   N.ar      1 RES1   0.0000
     8 C1       6.6379   6.4604   8.1533   C.ar      1 RES1   0.0000
     9 C2       6.3732   5.8920   6.9164   C.ar      1 RES1   0.0000
    10 C3       5.9774   6.7100   5.8732   C.ar      1 RES1   0.0000
    11 C4       5.8869   8.0804   6.0827   C.ar      1 RES1   0.0000
    12 C5       6.1844   8.5881   7.3386   C.ar      1 RES1   0.0000
    13 C6       6.1834  10.0165   7.6730   C.ar      1 RES1   0.0000
    14 C7       5.8867  11.0763   6.8361   C.ar      1 RES1   0.0000
    15 C8       5.9648  12.3753   7.3585   C.ar      1 RES1   0.0000
    16 C9       6.3253  12.5847   8.6885   C.ar      1 RES1   0.0000
    17 C10      6.6205  11.4704   9.4620   C.ar      1 RES1   0.0000
    18 C11      7.0331  11.4605  10.8733   C.ar      1 RES1   0.0000
    19 C12      7.2378  12.5957  11.6343   C.ar      1 RES1   0.0000
    20 C13      7.6132  12.4483  12.9624   C.ar      1 RES1   0.0000
    21 C14      7.7649  11.1760  13.4809   C.ar      1 RES1   0.0000
    22 C15      7.5556  10.0769  12.6629   C.ar      1 RES1   0.0000
    23 C16      4.0363   9.3030  10.6208   C.ar      1 RES1   0.0000
    24 C17      2.8095   9.0583  11.2213   C.ar      1 RES1   0.0000
    25 C18      2.6481   7.9128  11.9797   C.ar      1 RES1   0.0000
    26 C19      3.7289   7.0559  12.1430   C.ar      1 RES1   0.0000
    27 C20      4.9379   7.3736  11.5446   C.ar      1 RES1   0.0000
    28 C21      6.1757   6.5976  11.7070   C.ar      1 RES1   0.0000
    29 C22      6.3335   5.3968  12.3645   C.ar      1 RES1   0.0000
    30 C23      7.6149   4.8419  12.4450   C.ar      1 RES1   0.0000
    31 C24      8.6964   5.4750  11.8211   C.ar      1 RES1   0.0000
    32 C25      8.4511   6.6744  11.1608   C.ar      1 RES1   0.0000
    33 C26      9.4156   7.4895  10.4033   C.ar      1 RES1   0.0000
    34 C27     10.7705   7.2205  10.3143   C.ar      1 RES1   0.0000
    35 C28     11.5761   8.0717   9.5613   C.ar      1 RES1   0.0000
    36 C29     11.0050   9.1689   8.9361   C.ar      1 RES1   0.0000
    37 C30      9.6383   9.3797   9.0642   C.ar      1 RES1   0.0000
    38 C31      5.8430  14.7167   6.9578   C.3       1 RES1   0.0000
    39 C32      5.4777  15.6187   5.8645   C.1       1 RES1   0.0000
    40 C33      5.2156  16.3675   4.9899   C.1       1 RES1   0.0000
    41 C34      9.0006   3.1134  13.3243   C.3       1 RES1   0.0000
    42 C35      8.8875   2.0198  14.2849   C.1       1 RES1   0.0000
    43 C36      8.8610   1.1372  15.0724   C.1       1 RES1   0.0000
    44 O1       5.6733  13.3665   6.4804   O.3       1 RES1   0.0000
    45 O2       7.6940   3.6946  13.1486   O.3       1 RES1   0.0000
    46 H1       6.9027   5.9179   8.8724   H         1 RES1   0.0000
    47 H2       6.4737   4.9734   6.8030   H         1 RES1   0.0000
    48 H3       5.7715   6.3449   5.0380   H         1 RES1   0.0000
    49 H4       5.6230   8.6584   5.3757   H         1 RES1   0.0000
    50 H5       5.6457  10.9387   5.9302   H         1 RES1   0.0000
    51 H6       6.3808  13.4454   9.0545   H         1 RES1   0.0000
    52 H7       7.1338  13.4545  11.2545   H         1 RES1   0.0000
    53 H8       7.7658  13.2025  13.4990   H         1 RES1   0.0000
    54 H9       8.0148  11.0530  14.3718   H         1 RES1   0.0000
    55 H10      7.6594   9.2108  13.0112   H         1 RES1   0.0000
    56 H11      4.1470  10.0781  10.0982   H         1 RES1   0.0000
    57 H12      2.1070   9.6860  11.1086   H         1 RES1   0.0000
    58 H13      1.8150   7.7199  12.3844   H         1 RES1   0.0000
    59 H14      3.6533   6.2621  12.6499   H         1 RES1   0.0000
    60 H15      5.6066   4.9567  12.7541   H         1 RES1   0.0000
    61 H16      9.5492   5.1010  11.8340   H         1 RES1   0.0000
    62 H17     11.1331   6.4776  10.7625   H         1 RES1   0.0000
    63 H18     12.5065   7.9089   9.4770   H         1 RES1   0.0000
    64 H19     11.5315   9.7717   8.4402   H         1 RES1   0.0000
    65 H20      9.2440  10.1326   8.6389   H         1 RES1   0.0000
    66 H21      6.7845  14.8637   7.2158   H         1 RES1   0.0000
    67 H22      5.2658  14.8667   7.7383   H         1 RES1   0.0000
    68 H23      5.0379  16.9659   4.2861   H         1 RES1   0.0000
    69 H24      9.6098   3.7989  13.6825   H         1 RES1   0.0000
    70 H25      9.3194   2.7783  12.4636   H         1 RES1   0.0000
    71 H26      8.8307   0.4359  15.6921   H         1 RES1   0.0000
    72 O3       6.2798  10.4869   3.4953   O.3       2 RES2   0.0000
    73 H27      7.0876  10.2480   3.8733   H         2 RES2   0.0000
    74 H28      5.9617   9.8427   2.9561   H         2 RES2   0.0000
    75 P1       4.2370   7.5004   1.9336   P.3       3 RES3  -1.0000
    76 F1       5.0794   7.4675   0.5740   F         3 RES3   0.0000
    77 F2       3.4060   7.5342   3.3020   F         3 RES3   0.0000
    78 F3       2.8737   7.4063   1.1036   F         3 RES3   0.0000
    79 F4       4.3075   5.9073   2.0085   F         3 RES3   0.0000
    80 F5       5.6127   7.5812   2.7697   F         3 RES3   0.0000
    81 F6       4.1839   9.0920   1.8677   F         3 RES3   0.0000
    82 P2       9.6132   8.9589   4.8487   P.3       4 RES4  -1.0000
    83 F7       8.5185   8.2124   3.9695   F         4 RES4   0.0000
    84 F8      10.6742   9.7675   5.7218   F         4 RES4   0.0000
    85 F9       9.2992   8.0095   6.0798   F         4 RES4   0.0000
    86 F10     10.7439   7.9693   4.3188   F         4 RES4   0.0000
    87 F11      9.9073   9.9554   3.6376   F         4 RES4   0.0000
    88 F12      8.4712   9.9571   5.3679   F         4 RES4   0.0000
@<TRIPOS>BOND
     1     1     2    1
     2     2     8   ar
     3     3     1    1
     4     4     1    1
     5     5     1    1
     6     6     1    1
     7     7     1    1
     8     8     9   ar
     9     9    10   ar
    10    10    11   ar
    11    11    12   ar
    12    12     2   ar
    13    13     3   ar
    14    14    13   ar
    15    15    14   ar
    16    16    15   ar
    17    17     3   ar
    18    18     4   ar
    19    19    18   ar
    20    20    19   ar
    21    21    20   ar
    22    22     4   ar
    23    23     5   ar
    24    24    23   ar
    25    25    24   ar
    26    26    25   ar
    27    27     5   ar
    28    28     6   ar
    29    29    28   ar
    30    30    29   ar
    31    31    30   ar
    32    32     6   ar
    33    33     7   ar
    34    34    33   ar
    35    35    34   ar
    36    36    35   ar
    37    37     7   ar
    38    38    39    1
    39    39    40    3
    40    40    68    1
    41    41    42    1
    42    42    43    3
    43    43    71    1
    44    44    15    1
    45    45    30    1
    46    46     8    1
    47    47     9    1
    48    48    10    1
    49    49    11    1
    50    50    14    1
    51    51    16    1
    52    52    19    1
    53    53    20    1
    54    54    21    1
    55    55    22    1
    56    56    23    1
    57    57    24    1
    58    58    25    1
    59    59    26    1
    60    60    29    1
    61    61    31    1
    62    62    34    1
    63    63    35    1
    64    64    36    1
    65    65    37    1
    66    66    38    1
    67    67    38    1
    68    69    41    1
    69    70    41    1
    70    12    13    1
    71    16    17   ar
    72    17    18    1
    73    21    22   ar
    74    26    27   ar
    75    27    28    1
    76    31    32   ar
    77    32    33    1
    78    36    37   ar
    79    38    44    1
    80    41    45    1
    81    72    73    1
    82    74    72    1
    83    75    76    1
    84    77    75    1
    85    78    75    1
    86    79    75    1
    87    80    75    1
    88    81    75    1
    89    82    83    1
    90    84    82    1
    91    85    82    1
    92    86    82    1
    93    87    82    1
    94    88    82    1
@<TRIPOS>SUBSTRUCTURE
     1 RES1        1 GROUP             0 ****  ****    0  
     2 RES2       72 GROUP             0 ****  ****    0  
     3 RES3       75 GROUP             0 ****  ****    0  
     4 RES4       82 GROUP             0 ****  ****    0  
@<TRIPOS>CRYSIN
   11.6253   11.6286   14.1691   87.7040   78.7790   76.0560     2     1
