@<TRIPOS>MOLECULE
CIDXAR
    81    90     3     0     0
SMALL
USER_CHARGES
****
Generated from the CSD

@<TRIPOS>ATOM
     1 P1       8.2577   7.3912   0.0000   P.3       1 RES1  -1.0000
     2 F1       8.5789   8.5134   1.0782   F         1 RES1   0.0000
     3 F2       6.7235   7.3813   0.4404   F         1 RES1   0.0000
     4 F3       8.5816   6.2532   1.0766   F         1 RES1   0.0000
     5 F1B      7.9365   8.5134  -1.0782   F         1 RES1   0.0000
     6 F2B      9.7919   7.3813  -0.4404   F         1 RES1   0.0000
     7 F3B      7.9338   6.2532  -1.0766   F         1 RES1   0.0000
     8 O1      11.8424   0.0000   1.0911   O.3       2 RES2   0.0000
     9 Fe1      5.4839   8.8743   4.9595   Fe        3 RES3   2.0000
    10 N1       4.0882   7.5071   4.7363   N.ar      3 RES3   0.0000
    11 N2       5.2702   8.9707   3.0917   N.ar      3 RES3   0.0000
    12 N3       6.8551  10.2427   4.5746   N.ar      3 RES3   0.0000
    13 C1       3.5715   6.7128   5.6875   C.ar      3 RES3   0.0000
    14 C2       2.6199   5.7400   5.4118   C.ar      3 RES3   0.0000
    15 C3       2.1744   5.5857   4.1084   C.ar      3 RES3   0.0000
    16 C4       2.6837   6.4159   3.1205   C.ar      3 RES3   0.0000
    17 C5       3.6396   7.3602   3.4518   C.ar      3 RES3   0.0000
    18 C6       4.2659   8.2898   2.5035   C.ar      3 RES3   0.0000
    19 C7       3.8837   8.5656   1.2022   C.ar      3 RES3   0.0000
    20 C8       4.5424   9.5739   0.4860   C.ar      3 RES3   0.0000
    21 C9       5.6017  10.2368   1.1139   C.ar      3 RES3   0.0000
    22 C10      5.9409   9.9227   2.4153   C.ar      3 RES3   0.0000
    23 C11      6.9484  10.5895   3.2594   C.ar      3 RES3   0.0000
    24 C12      7.8907  11.4709   2.7971   C.ar      3 RES3   0.0000
    25 C13      8.7654  12.0693   3.7047   C.ar      3 RES3   0.0000
    26 C14      8.6655  11.7422   5.0378   C.ar      3 RES3   0.0000
    27 C15      7.7115  10.8331   5.4356   C.ar      3 RES3   0.0000
    28 C16      4.1117   9.9647  -0.8729   C.2       3 RES3   0.0000
    29 C17      4.7603  10.9397  -1.6664   C.2       3 RES3   0.0000
    30 C18      4.1346  11.1715  -2.8983   C.2       3 RES3   0.0000
    31 C19      3.0183   9.4532  -1.5077   C.2       3 RES3   0.0000
    32 S1       2.7883  10.1612  -3.0401   S.3       3 RES3   0.0000
    33 H1       3.8761   6.8461   6.5792   H         3 RES3   0.0000
    34 H2       2.2894   5.1825   6.0942   H         3 RES3   0.0000
    35 H3       1.5484   4.9147   3.8962   H         3 RES3   0.0000
    36 H4       2.3902   6.3442   2.2288   H         3 RES3   0.0000
    37 H5       3.1708   8.0783   0.8124   H         3 RES3   0.0000
    38 H6       6.0820  10.8952   0.6537   H         3 RES3   0.0000
    39 H7       7.9475  11.6875   1.8658   H         3 RES3   0.0000
    40 H8       9.3953  12.6857   3.4081   H         3 RES3   0.0000
    41 H9       9.2299  12.1330   5.6647   H         3 RES3   0.0000
    42 H10      7.6437  10.6132   6.3481   H         3 RES3   0.0000
    43 H11      5.5138  11.4224  -1.3807   H         3 RES3   0.0000
    44 H12      4.3939  11.7693  -3.5421   H         3 RES3   0.0000
    45 H13      2.4531   8.7832  -1.1526   H         3 RES3   0.0000
    46 N1B      6.8797   7.5071   5.1826   N.ar      3 RES3   0.0000
    47 N2B      5.6976   8.9707   6.8272   N.ar      3 RES3   0.0000
    48 N3B      4.1128  10.2427   5.3443   N.ar      3 RES3   0.0000
    49 C1B      7.3963   6.7128   4.2314   C.ar      3 RES3   0.0000
    50 C2B      8.3480   5.7400   4.5072   C.ar      3 RES3   0.0000
    51 C3B      8.7934   5.5857   5.8105   C.ar      3 RES3   0.0000
    52 C4B      8.2842   6.4159   6.7984   C.ar      3 RES3   0.0000
    53 C5B      7.3282   7.3602   6.4671   C.ar      3 RES3   0.0000
    54 C6B      6.7019   8.2898   7.4154   C.ar      3 RES3   0.0000
    55 C7B      7.0841   8.5656   8.7168   C.ar      3 RES3   0.0000
    56 C8B      6.4254   9.5739   9.4329   C.ar      3 RES3   0.0000
    57 C9B      5.3662  10.2368   8.8050   C.ar      3 RES3   0.0000
    58 C10B     5.0269   9.9227   7.5037   C.ar      3 RES3   0.0000
    59 C11B     4.0194  10.5895   6.6596   C.ar      3 RES3   0.0000
    60 C12B     3.0772  11.4709   7.1218   C.ar      3 RES3   0.0000
    61 C13B     2.2024  12.0693   6.2142   C.ar      3 RES3   0.0000
    62 C14B     2.3023  11.7422   4.8811   C.ar      3 RES3   0.0000
    63 C15B     3.2564  10.8331   4.4834   C.ar      3 RES3   0.0000
    64 C16B     6.8562   9.9647  10.7918   C.2       3 RES3   0.0000
    65 C17B     6.2076  10.9397  11.5853   C.2       3 RES3   0.0000
    66 C18B     6.8332  11.1715  12.8173   C.2       3 RES3   0.0000
    67 C19B     7.9495   9.4532  11.4266   C.2       3 RES3   0.0000
    68 S1B      8.1795  10.1612  12.9590   S.3       3 RES3   0.0000
    69 H1B      7.0917   6.8461   3.3397   H         3 RES3   0.0000
    70 H2B      8.6784   5.1825   3.8247   H         3 RES3   0.0000
    71 H3B      9.4194   4.9147   6.0228   H         3 RES3   0.0000
    72 H4B      8.5777   6.3442   7.6902   H         3 RES3   0.0000
    73 H5B      7.7970   8.0783   9.1066   H         3 RES3   0.0000
    74 H6B      4.8858  10.8952   9.2653   H         3 RES3   0.0000
    75 H7B      3.0203  11.6875   8.0532   H         3 RES3   0.0000
    76 H8B      1.5725  12.6857   6.5108   H         3 RES3   0.0000
    77 H9B      1.7379  12.1330   4.2542   H         3 RES3   0.0000
    78 H10B     3.3241  10.6132   3.5708   H         3 RES3   0.0000
    79 H11B     5.4540  11.4224  11.2997   H         3 RES3   0.0000
    80 H12B     6.5739  11.7693  13.4610   H         3 RES3   0.0000
    81 H13B     8.5148   8.7832  11.0715   H         3 RES3   0.0000
@<TRIPOS>BOND
     1     1     2    1
     2     3     1    1
     3     4     1    1
     4     5     1    1
     5     6     1    1
     6     7     1    1
     7     9    10    1
     8    10    13   ar
     9    11     9    1
    10    12     9    1
    11    13    14   ar
    12    14    15   ar
    13    15    16   ar
    14    16    17   ar
    15    17    10   ar
    16    18    11   ar
    17    19    18   ar
    18    20    19   ar
    19    21    20   ar
    20    22    11   ar
    21    23    12   ar
    22    24    23   ar
    23    25    24   ar
    24    26    25   ar
    25    27    12   ar
    26    28    20    1
    27    29    28    1
    28    30    29    2
    29    31    28    2
    30    32    30    1
    31    33    13    1
    32    34    14    1
    33    35    15    1
    34    36    16    1
    35    37    19    1
    36    38    21    1
    37    39    24    1
    38    40    25    1
    39    41    26    1
    40    42    27    1
    41    43    29    1
    42    44    30    1
    43    45    31    1
    44    46     9    1
    45    47     9    1
    46    48     9    1
    47    49    46   ar
    48    50    49   ar
    49    51    50   ar
    50    52    51   ar
    51    53    46   ar
    52    54    47   ar
    53    55    54   ar
    54    56    55   ar
    55    57    56   ar
    56    58    47   ar
    57    59    48   ar
    58    60    59   ar
    59    61    60   ar
    60    62    61   ar
    61    63    48   ar
    62    64    56    1
    63    65    64    1
    64    66    65    2
    65    67    64    2
    66    68    66    1
    67    69    49    1
    68    70    50    1
    69    71    51    1
    70    72    52    1
    71    73    55    1
    72    74    57    1
    73    75    60    1
    74    76    61    1
    75    77    62    1
    76    78    63    1
    77    79    65    1
    78    80    66    1
    79    81    67    1
    80    17    18    1
    81    21    22   ar
    82    22    23    1
    83    26    27   ar
    84    31    32    1
    85    52    53   ar
    86    53    54    1
    87    57    58   ar
    88    58    59    1
    89    62    63   ar
    90    67    68    1
@<TRIPOS>SUBSTRUCTURE
     1 RES1        1 GROUP             0 ****  ****    0  
     2 RES2        8 GROUP             0 ****  ****    0  
     3 RES3        9 GROUP             0 ****  ****    0  
@<TRIPOS>CRYSIN
   16.5154   28.1966   11.3649   90.0000  119.2179   90.0000    12     1
