@<TRIPOS>MOLECULE
CIKZIJ
    77    84     3     0     0
SMALL
USER_CHARGES
****
Generated from the CSD

@<TRIPOS>ATOM
     1 S1      11.8895  11.2683   2.5995   S.o2      1 RES1   0.0000
     2 F1       9.7699  11.0407   4.1343   F         1 RES1   0.0000
     3 F2      11.6331  10.6672   5.1267   F         1 RES1   0.0000
     4 F3      11.0610  12.6743   4.6500   F         1 RES1   0.0000
     5 O1      13.2047  11.7430   2.8832   O.2       1 RES1   0.0000
     6 O2      11.8056   9.8643   2.3388   O.3       1 RES1  -1.0000
     7 O3      11.1088  12.1052   1.7464   O.2       1 RES1   0.0000
     8 C25     11.0452  11.4203   4.1983   C.3       1 RES1   0.0000
     9 S2       2.7123   4.4446   2.9549   S.o2      2 RES2   0.0000
    10 F4       1.5916   6.6320   3.8670   F         2 RES2   0.0000
    11 F5       1.0210   6.1240   1.8642   F         2 RES2   0.0000
    12 O4       3.8069   5.2815   2.5551   O.3       2 RES2  -1.0000
    13 O5       2.7819   3.9153   4.2837   O.2       2 RES2   0.0000
    14 O6       2.2585   3.5013   1.9747   O.2       2 RES2   0.0000
    15 F6       0.2208   5.0144   3.5252   F         2 RES2   0.0000
    16 C26      1.3201   5.6085   3.0533   C.3       2 RES2   0.0000
    17 Fe1      6.8592   8.3138   3.3740   Fe        3 RES3   2.0000
    18 N1       7.2191  10.1076   2.7509   N.2       3 RES3   0.0000
    19 N2       7.1326   9.1348   6.0535   N.pl3     3 RES3   0.0000
    20 N3       8.1723   7.9414   2.0581   N.ar      3 RES3   0.0000
    21 N4       8.0876  10.1629   1.6985   N.pl3     3 RES3   0.0000
    22 N5       5.4823   8.8914   4.5420   N.ar      3 RES3   0.0000
    23 N6       6.9805   6.3630   3.5609   N.2       3 RES3   0.0000
    24 N7       7.8892   8.5629   5.0366   N.2       3 RES3   0.0000
    25 N8       7.8896   5.7918   2.6727   N.pl3     3 RES3   0.0000
    26 N9       5.3342   8.1779   2.1752   N.2       3 RES3   0.0000
    27 N10      4.1658   8.6142   2.7274   N.pl3     3 RES3   0.0000
    28 N11      6.7877  11.3145   2.9864   N.2       3 RES3   0.0000
    29 N12      5.0902   7.8221   0.9458   N.2       3 RES3   0.0000
    30 C1       8.5470   6.6785   1.8102   C.ar      3 RES3   0.0000
    31 C2       8.6542   8.9325   1.3054   C.ar      3 RES3   0.0000
    32 C3       4.2439   9.0521   4.0653   C.ar      3 RES3   0.0000
    33 C4       6.4784   5.3673   4.2682   C.2       3 RES3   0.0000
    34 C5       5.7807   9.3445   5.7689   C.ar      3 RES3   0.0000
    35 C6       9.0858   8.3542   5.5580   C.2       3 RES3   0.0000
    36 C7       9.5597   8.7409   0.2880   C.ar      3 RES3   0.0000
    37 H1       9.8916   9.4649  -0.2299   H         3 RES3   0.0000
    38 C8       8.1922  11.4338   1.2603   C.2       3 RES3   0.0000
    39 H2       8.7190  11.7590   0.5397   H         3 RES3   0.0000
    40 C9       4.8223   9.9394   6.5707   C.ar      3 RES3   0.0000
    41 H3       5.0374  10.2618   7.4380   H         3 RES3   0.0000
    42 C10      9.4581   6.3788   0.8080   C.ar      3 RES3   0.0000
    43 H4       9.7278   5.4835   0.6398   H         3 RES3   0.0000
    44 C11      3.1727   8.5363   1.8205   C.2       3 RES3   0.0000
    45 H5       2.2612   8.7786   1.9336   H         3 RES3   0.0000
    46 C12      7.9350   4.4285   2.8480   C.2       3 RES3   0.0000
    47 C13      9.1194   8.7974   6.8892   C.2       3 RES3   0.0000
    48 H6       9.8701   8.7661   7.4706   H         3 RES3   0.0000
    49 C14      7.8842   9.2807   7.1996   C.2       3 RES3   0.0000
    50 C15      7.0458   4.1518   3.8380   C.2       3 RES3   0.0000
    51 H7       6.8423   3.2893   4.1800   H         3 RES3   0.0000
    52 C16      7.3737  12.1466   2.0821   C.2       3 RES3   0.0000
    53 H8       7.2324  13.0847   2.0319   H         3 RES3   0.0000
    54 C17      9.9617   7.4340   0.0596   C.ar      3 RES3   0.0000
    55 H9      10.5962   7.2565  -0.6248   H         3 RES3   0.0000
    56 C18      7.3767   9.8453   8.4782   C.3       3 RES3   0.0000
    57 H10      7.0285  10.7479   8.3213   H         3 RES3   0.0000
    58 H11      8.1072   9.8858   9.1302   H         3 RES3   0.0000
    59 H12      6.6599   9.2745   8.8256   H         3 RES3   0.0000
    60 C19     10.1793   7.6980   4.7772   C.3       3 RES3   0.0000
    61 H13      9.9196   6.7776   4.5616   H         3 RES3   0.0000
    62 H14     11.0014   7.6888   5.3103   H         3 RES3   0.0000
    63 H15     10.3331   8.1966   3.9477   H         3 RES3   0.0000
    64 C20      8.8475   3.5186   2.0981   C.3       3 RES3   0.0000
    65 H16      8.6878   3.6154   1.1361   H         3 RES3   0.0000
    66 H17      8.6772   2.5914   2.3659   H         3 RES3   0.0000
    67 H18      9.7784   3.7508   2.2995   H         3 RES3   0.0000
    68 C21      3.2198   9.6009   4.7876   C.ar      3 RES3   0.0000
    69 H19      2.3393   9.6717   4.4376   H         3 RES3   0.0000
    70 C22      3.7657   8.0354   0.7117   C.2       3 RES3   0.0000
    71 H20      3.3228   7.8577  -0.1097   H         3 RES3   0.0000
    72 C23      5.4906   5.6038   5.3514   C.3       3 RES3   0.0000
    73 H21      5.9252   6.0767   6.0921   H         3 RES3   0.0000
    74 H22      5.1435   4.7453   5.6706   H         3 RES3   0.0000
    75 H23      4.7516   6.1476   5.0064   H         3 RES3   0.0000
    76 C24      3.5428  10.0479   6.0647   C.ar      3 RES3   0.0000
    77 H24      2.8642  10.4374   6.6033   H         3 RES3   0.0000
@<TRIPOS>BOND
     1     1     5    2
     2     2     8    1
     3     3     8    1
     4     4     8    1
     5     6     1    1
     6     7     1    2
     7     8     1    1
     8     9    12    1
     9    10    16    1
    10    11    16    1
    11    13     9    2
    12    14     9    2
    13    15    16    1
    14    16     9    1
    15    17    18    1
    16    18    21    1
    17    19    24    1
    18    20    17    1
    19    21    31    1
    20    22    17    1
    21    23    17    1
    22    24    17    1
    23    25    23    1
    24    26    17    1
    25    27    26    1
    26    28    18    2
    27    29    26    2
    28    30    20   ar
    29    31    20   ar
    30    32    22   ar
    31    33    23    2
    32    34    19    1
    33    35    24    2
    34    36    31   ar
    35    37    36    1
    36    38    21    1
    37    39    38    1
    38    40    34   ar
    39    41    40    1
    40    42    30   ar
    41    43    42    1
    42    44    27    1
    43    45    44    1
    44    46    25    1
    45    47    35    1
    46    48    47    1
    47    49    19    1
    48    50    33    1
    49    51    50    1
    50    52    28    1
    51    53    52    1
    52    54    36   ar
    53    55    54    1
    54    56    49    1
    55    57    56    1
    56    58    56    1
    57    59    56    1
    58    60    35    1
    59    61    60    1
    60    62    60    1
    61    63    60    1
    62    64    46    1
    63    65    64    1
    64    66    64    1
    65    67    64    1
    66    68    32   ar
    67    69    68    1
    68    70    29    1
    69    71    70    1
    70    72    33    1
    71    73    72    1
    72    74    72    1
    73    75    72    1
    74    76    40   ar
    75    77    76    1
    76    22    34   ar
    77    25    30    1
    78    27    32    1
    79    38    52    2
    80    42    54   ar
    81    44    70    2
    82    46    50    2
    83    47    49    2
    84    68    76   ar
@<TRIPOS>SUBSTRUCTURE
     1 RES1        1 GROUP             0 ****  ****    0  
     2 RES2        9 GROUP             0 ****  ****    0  
     3 RES3       17 GROUP             0 ****  ****    0  
@<TRIPOS>CRYSIN
   11.6007   12.5162   13.0109   86.9960   75.9910   70.0260     2     1
