@<TRIPOS>MOLECULE
CILNIX
    94    97     2     0     0
SMALL
USER_CHARGES
****
Generated from the CSD

@<TRIPOS>ATOM
     1 Fe1      2.6631  17.8768   8.2198   Fe        1 RES1   1.0000
     2 P1       4.7491  17.0977   7.8343   P.3       1 RES1   0.0000
     3 P2       2.7924  19.1973   6.4129   P.3       1 RES1   0.0000
     4 O1       0.3276  19.4051   9.1334   O.2       1 RES1   0.0000
     5 O2       2.8497  16.6394  10.8763   O.2       1 RES1   0.0000
     6 O3       1.2824  15.8165   6.6089   O.2       1 RES1   0.0000
     7 C1       5.2594  16.9819   6.0770   C.3       1 RES1   0.0000
     8 H1       6.2013  16.7545   6.0409   H         1 RES1   0.0000
     9 H2       4.7668  16.2590   5.6573   H         1 RES1   0.0000
    10 N1       5.0449  18.1978   5.3157   N.3       1 RES1   0.0000
    11 C2       2.8822  21.7610   7.4458   C.3       1 RES1   0.0000
    12 H3       2.0522  21.9867   7.0180   H         1 RES1   0.0000
    13 H4       3.4091  22.5563   7.5589   H         1 RES1   0.0000
    14 H5       2.7050  21.3692   8.3032   H         1 RES1   0.0000
    15 C3       7.4456  17.5357   8.6819   C.3       1 RES1   0.0000
    16 H6       7.7307  17.3194   7.7917   H         1 RES1   0.0000
    17 H7       7.4508  16.7425   9.2212   H         1 RES1   0.0000
    18 H8       8.0439  18.1834   9.0606   H         1 RES1   0.0000
    19 C4       4.0733  14.3261   8.0188   C.3       1 RES1   0.0000
    20 H9       3.9889  14.3155   7.0622   H         1 RES1   0.0000
    21 H10      3.2198  14.5214   8.4130   H         1 RES1   0.0000
    22 H11      4.3764  13.4682   8.3229   H         1 RES1   0.0000
    23 C5       1.1319  19.5721   5.7198   C.3       1 RES1   0.0000
    24 H12      0.6850  18.7339   5.5245   H         1 RES1   0.0000
    25 H13      0.6124  20.0288   6.3999   H         1 RES1   0.0000
    26 C6       3.6690  18.4352   4.9845   C.3       1 RES1   0.0000
    27 H14      3.2406  17.5970   4.7508   H         1 RES1   0.0000
    28 H15      3.6154  19.0259   4.2164   H         1 RES1   0.0000
    29 C7       5.0829  15.3998   8.4302   C.3       1 RES1   0.0000
    30 H16      5.9577  15.1317   8.1081   H         1 RES1   0.0000
    31 H17      5.1247  15.4213   9.3983   H         1 RES1   0.0000
    32 C8       6.0313  18.1123   8.6368   C.3       1 RES1   0.0000
    33 H18      6.0703  18.9661   8.1786   H         1 RES1   0.0000
    34 H19      5.7502  18.2863   9.5474   H         1 RES1   0.0000
    35 C9       5.8784  18.1851   4.0991   C.3       1 RES1   0.0000
    36 H20      6.7981  18.0590   4.3426   H         1 RES1   0.0000
    37 H21      5.7824  19.0211   3.6360   H         1 RES1   0.0000
    38 H22      5.5975  17.4678   3.5262   H         1 RES1   0.0000
    39 C10      2.7678  17.0788   9.8278   C.1       1 RES1   0.0000
    40 C11      3.6376  20.7737   6.5876   C.3       1 RES1   0.0000
    41 H23      4.5118  20.6200   6.9786   H         1 RES1   0.0000
    42 H24      3.7717  21.1585   5.7081   H         1 RES1   0.0000
    43 C12      1.1256  20.4201   4.4639   C.3       1 RES1   0.0000
    44 H25      1.5393  19.9331   3.7475   H         1 RES1   0.0000
    45 H26      1.6136  21.2303   4.6229   H         1 RES1   0.0000
    46 H27      0.2209  20.6320   4.2262   H         1 RES1   0.0000
    47 C13      1.8243  16.5870   7.2475   C.1       1 RES1   0.0000
    48 C14      1.2132  18.8064   8.7479   C.1       1 RES1   0.0000
    49 H28      3.3603  18.9541   8.8475   H         1 RES1   0.0000
    50 F1       1.2980   9.3110  10.7096   F         2 RES2   0.0000
    51 F2       2.1840  11.6121   9.3611   F         2 RES2   0.0000
    52 F3       5.4420   8.6851  12.8182   F         2 RES2   0.0000
    53 F4       2.8404   9.1010  13.0641   F         2 RES2   0.0000
    54 F5      -2.4907   9.2461  14.5871   F         2 RES2   0.0000
    55 F6      -0.8914  11.3438  14.3951   F         2 RES2   0.0000
    56 F7       2.1245  12.2911  17.2423   F         2 RES2   0.0000
    57 C15      1.7493  12.1609  14.9100   C.ar      2 RES2   0.0000
    58 F8       0.9447  12.8433   7.3857   F         2 RES2   0.0000
    59 F9      -0.3343   7.2073  10.9268   F         2 RES2   0.0000
    60 F10     -2.2113  14.6272  10.4056   F         2 RES2   0.0000
    61 F11      3.3890  13.4041  11.1332   F         2 RES2   0.0000
    62 F12      5.9870  12.9242  10.8476   F         2 RES2   0.0000
    63 F13      1.8461  16.2100  14.6380   F         2 RES2   0.0000
    64 F14      1.3712  14.7756  12.4832   F         2 RES2   0.0000
    65 F15      2.1440  15.0128  17.0818   F         2 RES2   0.0000
    66 F16      7.0734  10.5869  11.7358   F         2 RES2   0.0000
    67 F17     -1.0433  13.3189  12.3954   F         2 RES2   0.0000
    68 F18     -2.2515   7.1379  12.8533   F         2 RES2   0.0000
    69 F19     -1.2593  14.3964   7.8560   F         2 RES2   0.0000
    70 C16      3.5636  10.1092  12.5138   C.ar      2 RES2   0.0000
    71 C17      1.5490  14.0834  13.6399   C.ar      2 RES2   0.0000
    72 C18     -0.6438  13.7645   8.8696   C.ar      2 RES2   0.0000
    73 C19     -1.1251  13.8634  10.1496   C.ar      2 RES2   0.0000
    74 C20     -1.5203   9.2502  13.6451   C.ar      2 RES2   0.0000
    75 C21      4.9218   9.8617  12.4036   C.ar      2 RES2   0.0000
    76 C22      0.3524  10.4179  12.5792   C.ar      2 RES2   0.0000
    77 C23      3.8444  12.1980  11.5561   C.ar      2 RES2   0.0000
    78 C24      5.2011  11.9876  11.4119   C.ar      2 RES2   0.0000
    79 C25     -1.4110   8.1930  12.7750   C.ar      2 RES2   0.0000
    80 C26      5.7546  10.8122  11.8523   C.ar      2 RES2   0.0000
    81 C27      0.4706  12.9890   8.6399   C.ar      2 RES2   0.0000
    82 C28      0.3815   9.3311  11.7140   C.ar      2 RES2   0.0000
    83 C29     -0.4790  13.1944  11.1635   C.ar      2 RES2   0.0000
    84 C30      2.9486  11.2770  12.0869   C.ar      2 RES2   0.0000
    85 C31     -0.6686  10.3313  13.5227   C.ar      2 RES2   0.0000
    86 C32      1.0947  12.3493   9.6955   C.ar      2 RES2   0.0000
    87 C33      0.6796  12.4450  11.0143   C.ar      2 RES2   0.0000
    88 C34     -0.4468   8.2377  11.7912   C.ar      2 RES2   0.0000
    89 B1       1.3654  11.6973  12.3295   B         2 RES2  -1.0000
    90 C35      1.5047  12.6997  13.6482   C.ar      2 RES2   0.0000
    91 C36      1.7758  14.8644  14.7474   C.ar      2 RES2   0.0000
    92 F20      1.8241  10.8129  15.0503   F         2 RES2   0.0000
    93 C37      1.9311  12.8988  16.0513   C.ar      2 RES2   0.0000
    94 C38      1.9493  14.2712  15.9762   C.ar      2 RES2   0.0000
@<TRIPOS>BOND
     1     1     2    1
     2     2     7    1
     3     3     1    1
     4     4    48    3
     5     5    39    3
     6     6    47    3
     7     7     8    1
     8     9     7    1
     9    10     7    1
    10    11    12    1
    11    13    11    1
    12    14    11    1
    13    15    16    1
    14    17    15    1
    15    18    15    1
    16    19    20    1
    17    21    19    1
    18    22    19    1
    19    23     3    1
    20    24    23    1
    21    25    23    1
    22    26     3    1
    23    27    26    1
    24    28    26    1
    25    29     2    1
    26    30    29    1
    27    31    29    1
    28    32     2    1
    29    33    32    1
    30    34    32    1
    31    35    10    1
    32    36    35    1
    33    37    35    1
    34    38    35    1
    35    39     1    1
    36    40     3    1
    37    41    40    1
    38    42    40    1
    39    43    23    1
    40    44    43    1
    41    45    43    1
    42    46    43    1
    43    47     1    1
    44    48     1    1
    45    49     1    1
    46    10    26    1
    47    11    40    1
    48    15    32    1
    49    19    29    1
    50    50    82    1
    51    51    86    1
    52    52    75    1
    53    53    70    1
    54    54    74    1
    55    55    85    1
    56    56    93    1
    57    57    90   ar
    58    58    81    1
    59    59    88    1
    60    60    73    1
    61    61    77    1
    62    62    78    1
    63    63    91    1
    64    64    71    1
    65    65    94    1
    66    66    80    1
    67    67    83    1
    68    68    79    1
    69    69    72    1
    70    70    75   ar
    71    71    90   ar
    72    72    73   ar
    73    73    83   ar
    74    74    79   ar
    75    75    80   ar
    76    76    82   ar
    77    77    78   ar
    78    78    80   ar
    79    79    88   ar
    80    81    72   ar
    81    82    88   ar
    82    83    87   ar
    83    84    70   ar
    84    85    74   ar
    85    86    81   ar
    86    87    86   ar
    87    89    76    1
    88    90    89    1
    89    91    71   ar
    90    92    57    1
    91    93    57   ar
    92    94    91   ar
    93    76    85   ar
    94    77    84   ar
    95    84    89    1
    96    87    89    1
    97    93    94   ar
@<TRIPOS>SUBSTRUCTURE
     1 RES1        1 GROUP             0 ****  ****    0  
     2 RES2       50 GROUP             0 ****  ****    0  
@<TRIPOS>CRYSIN
   10.3430   23.9350   16.4840   90.0000   96.0140   90.0000   231     1
