@<TRIPOS>MOLECULE
CITQII
   101   108     1     0     0
SMALL
NO_CHARGES
****
Generated from the CSD

@<TRIPOS>ATOM
     1 Fe1      1.7873   3.2287   1.9870   Fe        1 RES1   0.0000
     2 H1       3.0842   3.1577   2.5551   H         1 RES1   0.0000
     3 P1       3.0586   4.5831   0.7588   P.3       1 RES1   0.0000
     4 P2       1.4970   2.0078   3.8118   P.3       1 RES1   0.0000
     5 Si1      1.7354   4.9934   3.4369   Si        1 RES1   0.0000
     6 N1       0.0753   3.5494   1.4038   N.1       1 RES1   0.0000
     7 N2      -0.9665   3.7368   1.0660   N.1       1 RES1   0.0000
     8 N3       1.9273   1.6948   0.9348   N.1       1 RES1   0.0000
     9 N4       1.9215   0.7557   0.3499   N.1       1 RES1   0.0000
    10 C1       0.1885   6.0786   3.5660   C.3       1 RES1   0.0000
    11 H2       0.0159   6.5055   2.7008   H         1 RES1   0.0000
    12 H3       0.3290   6.7679   4.2481   H         1 RES1   0.0000
    13 H4      -0.5799   5.5238   3.8155   H         1 RES1   0.0000
    14 C2       3.8226   5.9032   1.7995   C.ar      1 RES1   0.0000
    15 C3       3.1730   6.1556   3.0182   C.ar      1 RES1   0.0000
    16 C4       3.6569   7.1989   3.8250   C.ar      1 RES1   0.0000
    17 H5       3.2116   7.4022   4.6391   H         1 RES1   0.0000
    18 C5       4.7721   7.9385   3.4568   C.ar      1 RES1   0.0000
    19 H6       5.0860   8.6377   4.0181   H         1 RES1   0.0000
    20 C6       5.4277   7.6546   2.2672   C.ar      1 RES1   0.0000
    21 H7       6.2009   8.1492   2.0222   H         1 RES1   0.0000
    22 C7       4.9556   6.6491   1.4344   C.ar      1 RES1   0.0000
    23 H8       5.4000   6.4651   0.6153   H         1 RES1   0.0000
    24 C8       1.7810   2.9516   5.3553   C.ar      1 RES1   0.0000
    25 C9       1.9394   4.3348   5.2092   C.ar      1 RES1   0.0000
    26 C10      2.1152   5.1070   6.3670   C.ar      1 RES1   0.0000
    27 H9       2.2137   6.0488   6.2900   H         1 RES1   0.0000
    28 C11      2.1476   4.5183   7.6217   C.ar      1 RES1   0.0000
    29 H10      2.2871   5.0545   8.3935   H         1 RES1   0.0000
    30 C12      1.9769   3.1495   7.7519   C.ar      1 RES1   0.0000
    31 H11      1.9929   2.7496   8.6136   H         1 RES1   0.0000
    32 C13      1.7830   2.3620   6.6270   C.ar      1 RES1   0.0000
    33 H12      1.6517   1.4255   6.7180   H         1 RES1   0.0000
    34 C14      2.2745   5.5455  -0.6415   C.3       1 RES1   0.0000
    35 H13      1.8226   4.8813  -1.2369   H         1 RES1   0.0000
    36 C15      3.2560   6.3417  -1.5174   C.3       1 RES1   0.0000
    37 H14      3.7745   6.9612  -0.9453   H         1 RES1   0.0000
    38 H15      3.8936   5.7155  -1.9438   H         1 RES1   0.0000
    39 C16      2.5336   7.1449  -2.6058   C.3       1 RES1   0.0000
    40 H16      3.1938   7.6757  -3.1181   H         1 RES1   0.0000
    41 H17      2.0859   6.5234  -3.2331   H         1 RES1   0.0000
    42 C17      1.4982   8.0787  -1.9881   C.3       1 RES1   0.0000
    43 H18      1.9513   8.7348  -1.4014   H         1 RES1   0.0000
    44 H19      1.0318   8.5773  -2.7050   H         1 RES1   0.0000
    45 C18      0.4838   7.2834  -1.1765   C.3       1 RES1   0.0000
    46 H20     -0.0142   6.6738  -1.7769   H         1 RES1   0.0000
    47 H21     -0.1664   7.9042  -0.7616   H         1 RES1   0.0000
    48 C19      1.1799   6.4667  -0.0825   C.3       1 RES1   0.0000
    49 H22      0.5053   5.9179   0.3905   H         1 RES1   0.0000
    50 H23      1.5832   7.0858   0.5765   H         1 RES1   0.0000
    51 C20      4.5558   3.8360  -0.0481   C.3       1 RES1   0.0000
    52 H24      5.0759   4.5929  -0.4440   H         1 RES1   0.0000
    53 C21      5.4749   3.1568   0.9689   C.3       1 RES1   0.0000
    54 H25      5.6854   3.7901   1.7000   H         1 RES1   0.0000
    55 H26      5.0125   2.3750   1.3628   H         1 RES1   0.0000
    56 C22      6.7703   2.7003   0.2992   C.3       1 RES1   0.0000
    57 H27      7.2698   3.4906  -0.0262   H         1 RES1   0.0000
    58 H28      7.3366   2.2306   0.9616   H         1 RES1   0.0000
    59 C23      6.4769   1.7707  -0.8665   C.3       1 RES1   0.0000
    60 H29      6.0890   0.9287  -0.5193   H         1 RES1   0.0000
    61 H30      7.3260   1.5474  -1.3239   H         1 RES1   0.0000
    62 C24      5.5122   2.3846  -1.8773   C.3       1 RES1   0.0000
    63 H31      5.2828   1.7090  -2.5636   H         1 RES1   0.0000
    64 H32      5.9543   3.1446  -2.3326   H         1 RES1   0.0000
    65 C25      4.2296   2.8757  -1.2005   C.3       1 RES1   0.0000
    66 H33      3.7228   2.1004  -0.8510   H         1 RES1   0.0000
    67 H34      3.6616   3.3391  -1.8659   H         1 RES1   0.0000
    68 C26     -0.1394   1.2142   4.1626   C.3       1 RES1   0.0000
    69 H35     -0.0050   0.5856   4.9286   H         1 RES1   0.0000
    70 C27     -1.2115   2.2295   4.5903   C.3       1 RES1   0.0000
    71 H36     -0.8870   2.7539   5.3647   H         1 RES1   0.0000
    72 H37     -1.3956   2.8564   3.8465   H         1 RES1   0.0000
    73 C28     -2.4922   1.4838   4.9691   C.3       1 RES1   0.0000
    74 H38     -2.3136   0.9033   5.7507   H         1 RES1   0.0000
    75 H39     -3.1875   2.1392   5.2284   H         1 RES1   0.0000
    76 C29     -3.0070   0.6348   3.8212   C.3       1 RES1   0.0000
    77 H40     -3.2757   1.2233   3.0718   H         1 RES1   0.0000
    78 H41     -3.8067   0.1319   4.1173   H         1 RES1   0.0000
    79 C30     -1.9405  -0.3472   3.3377   C.3       1 RES1   0.0000
    80 H42     -2.2773  -0.8342   2.5443   H         1 RES1   0.0000
    81 H43     -1.7576  -1.0107   4.0494   H         1 RES1   0.0000
    82 C31     -0.6403   0.3814   2.9742   C.3       1 RES1   0.0000
    83 H44     -0.7991   0.9747   2.1977   H         1 RES1   0.0000
    84 H45      0.0502  -0.2805   2.7193   H         1 RES1   0.0000
    85 C32      2.7050   0.5756   3.8861   C.3       1 RES1   0.0000
    86 H46      2.8537   0.2969   2.9374   H         1 RES1   0.0000
    87 C33      2.2959  -0.6998   4.6359   C.3       1 RES1   0.0000
    88 H47      2.2061  -0.5040   5.6021   H         1 RES1   0.0000
    89 H48      1.4189  -1.0156   4.3021   H         1 RES1   0.0000
    90 C34      3.3489  -1.7903   4.4273   C.3       1 RES1   0.0000
    91 H49      3.0791  -2.6049   4.9211   H         1 RES1   0.0000
    92 H50      3.3979  -2.0186   3.4652   H         1 RES1   0.0000
    93 C35      4.7203  -1.3418   4.9084   C.3       1 RES1   0.0000
    94 H51      5.3870  -2.0446   4.7043   H         1 RES1   0.0000
    95 H52      4.6997  -1.2150   5.8900   H         1 RES1   0.0000
    96 C36      5.1373  -0.0389   4.2385   C.3       1 RES1   0.0000
    97 H53      5.2922  -0.2024   3.2745   H         1 RES1   0.0000
    98 H54      5.9885   0.2745   4.6352   H         1 RES1   0.0000
    99 C37      4.0741   1.0488   4.4013   C.3       1 RES1   0.0000
   100 H55      4.3518   1.8566   3.9007   H         1 RES1   0.0000
   101 H56      3.9983   1.2930   5.3577   H         1 RES1   0.0000
@<TRIPOS>BOND
     1     1     2    1
     2     3     1    1
     3     4     1    1
     4     5     1    1
     5     6     1    1
     6     7     6    3
     7     8     1    1
     8     9     8    3
     9    10     5    1
    10    11    10    1
    11    12    10    1
    12    13    10    1
    13    14     3    1
    14    15     5    1
    15    16    15   ar
    16    17    16    1
    17    18    16   ar
    18    19    18    1
    19    20    18   ar
    20    21    20    1
    21    22    14   ar
    22    23    22    1
    23    24     4    1
    24    25     5    1
    25    26    25   ar
    26    27    26    1
    27    28    26   ar
    28    29    28    1
    29    30    28   ar
    30    31    30    1
    31    32    24   ar
    32    33    32    1
    33    34     3    1
    34    35    34    1
    35    36    34    1
    36    37    36    1
    37    38    36    1
    38    39    36    1
    39    40    39    1
    40    41    39    1
    41    42    39    1
    42    43    42    1
    43    44    42    1
    44    45    42    1
    45    46    45    1
    46    47    45    1
    47    48    34    1
    48    49    48    1
    49    50    48    1
    50    51     3    1
    51    52    51    1
    52    53    51    1
    53    54    53    1
    54    55    53    1
    55    56    53    1
    56    57    56    1
    57    58    56    1
    58    59    56    1
    59    60    59    1
    60    61    59    1
    61    62    59    1
    62    63    62    1
    63    64    62    1
    64    65    51    1
    65    66    65    1
    66    67    65    1
    67    68     4    1
    68    69    68    1
    69    70    68    1
    70    71    70    1
    71    72    70    1
    72    73    70    1
    73    74    73    1
    74    75    73    1
    75    76    73    1
    76    77    76    1
    77    78    76    1
    78    79    76    1
    79    80    79    1
    80    81    79    1
    81    82    68    1
    82    83    82    1
    83    84    82    1
    84    85     4    1
    85    86    85    1
    86    87    85    1
    87    88    87    1
    88    89    87    1
    89    90    87    1
    90    91    90    1
    91    92    90    1
    92    93    90    1
    93    94    93    1
    94    95    93    1
    95    96    93    1
    96    97    96    1
    97    98    96    1
    98    99    85    1
    99   100    99    1
   100   101    99    1
   101    14    15   ar
   102    20    22   ar
   103    24    25   ar
   104    30    32   ar
   105    45    48    1
   106    62    65    1
   107    79    82    1
   108    96    99    1
@<TRIPOS>SUBSTRUCTURE
     1 RES1        1 GROUP             0 ****  ****    0  
@<TRIPOS>CRYSIN
   12.4181   23.2868   13.0781   90.0000   98.6048   90.0000   231     1
