@<TRIPOS>MOLECULE
CIWGEX02
    97   102     4     0     0
SMALL
USER_CHARGES
****
Generated from the CSD

@<TRIPOS>ATOM
     1 Fe1      5.8584   3.2481   7.4883   Fe        1 RES1   1.0000
     2 O1       4.8835   4.8393   7.4075   O.3       1 RES1   0.0000
     3 O2       4.3881   2.3001   8.2116   O.3       1 RES1   0.0000
     4 N1       5.3417   2.6912   5.7105   N.2       1 RES1   0.0000
     5 N2       6.4788   3.8264   9.2451   N.2       1 RES1   0.0000
     6 N3       6.9772   1.5740   7.4396   N.3       1 RES1   0.0000
     7 H1       6.7842   1.2691   8.1448   H         1 RES1   0.0000
     8 N4       7.5546   4.1452   6.8752   N.3       1 RES1   0.0000
     9 H2       7.3829   4.5958   6.2480   H         1 RES1   0.0000
    10 C1       3.8838   5.0793   6.5681   C.ar      1 RES1   0.0000
    11 C2       3.6491   4.3713   5.3835   C.ar      1 RES1   0.0000
    12 C3       2.6160   4.8025   4.5230   C.ar      1 RES1   0.0000
    13 H3       2.4844   4.3541   3.7194   H         1 RES1   0.0000
    14 C4       1.8148   5.8407   4.8280   C.ar      1 RES1   0.0000
    15 H4       1.1388   6.0993   4.2439   H         1 RES1   0.0000
    16 C5       2.0046   6.5108   6.0061   C.ar      1 RES1   0.0000
    17 H5       1.4482   7.2241   6.2203   H         1 RES1   0.0000
    18 C6       3.0122   6.1429   6.8844   C.ar      1 RES1   0.0000
    19 H6       3.1147   6.6004   7.6866   H         1 RES1   0.0000
    20 C7       4.4330   3.2421   4.9866   C.2       1 RES1   0.0000
    21 H7       4.2744   2.8811   4.1445   H         1 RES1   0.0000
    22 C8       3.8258   2.5692   9.3862   C.ar      1 RES1   0.0000
    23 C9       4.4999   3.1817  10.4485   C.ar      1 RES1   0.0000
    24 C10      3.8500   3.3138  11.7071   C.ar      1 RES1   0.0000
    25 H8       4.3157   3.6692  12.4290   H         1 RES1   0.0000
    26 C11      2.5569   2.9258  11.8684   C.ar      1 RES1   0.0000
    27 H9       2.1343   3.0354  12.6896   H         1 RES1   0.0000
    28 C12      1.8792   2.3717  10.8060   C.ar      1 RES1   0.0000
    29 H10      0.9915   2.1136  10.9128   H         1 RES1   0.0000
    30 C13      2.4997   2.1939   9.5867   C.ar      1 RES1   0.0000
    31 H11      2.0228   1.8145   8.8840   H         1 RES1   0.0000
    32 C14      5.8172   3.7348  10.3379   C.2       1 RES1   0.0000
    33 H12      6.2204   4.0494  11.1146   H         1 RES1   0.0000
    34 C15      6.0992   1.5507   5.1686   C.3       1 RES1   0.0000
    35 H13      6.8808   1.8639   4.6875   H         1 RES1   0.0000
    36 H14      5.5454   1.0389   4.5580   H         1 RES1   0.0000
    37 C16      6.5127   0.6962   6.3414   C.3       1 RES1   0.0000
    38 H15      5.7613   0.1615   6.6418   H         1 RES1   0.0000
    39 H16      7.2268   0.0951   6.0759   H         1 RES1   0.0000
    40 C17      7.8997   5.1787   7.8808   C.3       1 RES1   0.0000
    41 H17      7.3026   5.9385   7.7964   H         1 RES1   0.0000
    42 H18      8.8091   5.4863   7.7437   H         1 RES1   0.0000
    43 C18      7.7612   4.5564   9.2596   C.3       1 RES1   0.0000
    44 H19      8.4966   3.9487   9.4349   H         1 RES1   0.0000
    45 H20      7.7543   5.2430   9.9445   H         1 RES1   0.0000
    46 C19      8.6303   3.1641   6.5937   C.3       1 RES1   0.0000
    47 H21      9.4924   3.5538   6.8101   H         1 RES1   0.0000
    48 H22      8.6289   2.9391   5.6501   H         1 RES1   0.0000
    49 C20      8.4165   1.9204   7.4120   C.3       1 RES1   0.0000
    50 H23      8.9220   1.1867   7.0285   H         1 RES1   0.0000
    51 H24      8.7349   2.0665   8.3167   H         1 RES1   0.0000
    52 N5       5.1045   1.3631  15.4219   N.1       2 RES2   0.0000
    53 N6       8.1297   3.1586  12.9491   N.1       2 RES2   0.0000
    54 N7      10.6943   0.5226  21.6383   N.1       2 RES2   0.0000
    55 N8      13.8356   1.9967  19.1110   N.1       2 RES2   0.0000
    56 C21      8.5023   1.8922  16.2160   C.2       2 RES2   0.0000
    57 C22      9.8737   2.2325  16.0279   C.2       2 RES2   0.0000
    58 H25     10.1450   2.5816  15.2098   H         2 RES2   0.0000
    59 C23     10.7927   2.0608  17.0091   C.2       2 RES2   0.0000
    60 H26     11.6835   2.2736  16.8469   H         2 RES2   0.0000
    61 C24     10.4083   1.5557  18.2920   C.2       2 RES2   0.0000
    62 C25      9.0327   1.2122  18.4791   C.2       2 RES2   0.0000
    63 H27      8.7600   0.8681  19.2987   H         2 RES2   0.0000
    64 C26      8.1254   1.3729  17.5040   C.2       2 RES2   0.0000
    65 H28      7.2382   1.1449  17.6632   H         2 RES2   0.0000
    66 C27      7.5566   2.0779  15.2148   C.2       2 RES2   0.0000
    67 C28      6.1978   1.6802  15.3538   C.1       2 RES2   0.0000
    68 C29      7.8953   2.6685  13.9568   C.1       2 RES2   0.0000
    69 C30     11.3494   1.3942  19.3100   C.2       2 RES2  -1.0000
    70 C31     10.9698   0.9087  20.6043   C.1       2 RES2   0.0000
    71 C32     12.7254   1.7388  19.1693   C.1       2 RES2   0.0000
    72 N9       7.5930   3.9893   3.5586   N.1       3 RES3   0.0000
    73 N10     10.7385   5.1420   0.9037   N.1       3 RES3   0.0000
    74 N11      1.8891   4.7183  -2.4938   N.1       3 RES3   0.0000
    75 N12      4.8359   6.4345  -5.1321   N.1       3 RES3   0.0000
    76 C33      7.2601   4.9462   0.1965   C.2       3 RES3   0.0000
    77 C34      5.8869   4.6498   0.4323   C.2       3 RES3   0.0000
    78 H29      5.6264   4.3411   1.2700   H         3 RES3   0.0000
    79 C35      4.9537   4.8067  -0.5319   C.2       3 RES3   0.0000
    80 H30      4.0660   4.6000  -0.3475   H         3 RES3   0.0000
    81 C36      5.3091   5.2853  -1.8311   C.2       3 RES3   0.0000
    82 C37      6.6789   5.5852  -2.0732   C.2       3 RES3   0.0000
    83 H31      6.9328   5.9075  -2.9079   H         3 RES3   0.0000
    84 C38      7.6228   5.4118  -1.1146   C.2       3 RES3   0.0000
    85 H32      8.5138   5.5960  -1.3074   H         3 RES3   0.0000
    86 C39      8.2220   4.7791   1.1960   C.2       3 RES3   0.0000
    87 C40      7.8602   4.3355   2.4973   C.1       3 RES3   0.0000
    88 C41      9.6125   5.0048   1.0036   C.1       3 RES3   0.0000
    89 C42      4.3310   5.4517  -2.8181   C.2       3 RES3   0.0000
    90 C43      2.9728   5.0538  -2.6152   C.1       3 RES3   0.0000
    91 C44      4.6346   5.9855  -4.1038   C.1       3 RES3   0.0000
    92 O3       6.0538  13.0374   7.5120   O.3       4 RES4   0.0000
    93 H33      6.2992  13.9204   7.6610   H         4 RES4   0.0000
    94 C45      5.5230  12.9482   6.2462   C.3       4 RES4   0.0000
    95 H34      5.1969  13.8086   5.9736   H         4 RES4   0.0000
    96 H35      4.7994  12.3168   6.2459   H         4 RES4   0.0000
    97 H36      6.2025  12.6550   5.6338   H         4 RES4   0.0000
@<TRIPOS>BOND
     1     1     2    1
     2     2    10    1
     3     3     1    1
     4     4     1    1
     5     5     1    1
     6     6     1    1
     7     7     6    1
     8     8     1    1
     9     9     8    1
    10    10    11   ar
    11    11    12   ar
    12    12    13    1
    13    14    12   ar
    14    15    14    1
    15    16    14   ar
    16    17    16    1
    17    18    10   ar
    18    19    18    1
    19    20     4    2
    20    21    20    1
    21    22     3    1
    22    23    22   ar
    23    24    23   ar
    24    25    24    1
    25    26    24   ar
    26    27    26    1
    27    28    26   ar
    28    29    28    1
    29    30    22   ar
    30    31    30    1
    31    32     5    2
    32    33    32    1
    33    34     4    1
    34    35    34    1
    35    36    34    1
    36    37     6    1
    37    38    37    1
    38    39    37    1
    39    40     8    1
    40    41    40    1
    41    42    40    1
    42    43     5    1
    43    44    43    1
    44    45    43    1
    45    46     8    1
    46    47    46    1
    47    48    46    1
    48    49     6    1
    49    50    49    1
    50    51    49    1
    51    11    20    1
    52    16    18   ar
    53    23    32    1
    54    28    30   ar
    55    34    37    1
    56    40    43    1
    57    46    49    1
    58    52    67    3
    59    53    68    3
    60    54    70    3
    61    55    71    3
    62    56    57    1
    63    57    58    1
    64    59    57    2
    65    60    59    1
    66    61    59    1
    67    62    61    1
    68    63    62    1
    69    64    56    1
    70    65    64    1
    71    66    56    2
    72    67    66    1
    73    68    66    1
    74    69    61    2
    75    70    69    1
    76    71    69    1
    77    62    64    2
    78    72    87    3
    79    73    88    3
    80    74    90    3
    81    75    91    3
    82    76    77    1
    83    77    78    1
    84    79    77    2
    85    80    79    1
    86    81    79    1
    87    82    81    1
    88    83    82    1
    89    84    76    1
    90    85    84    1
    91    86    76    2
    92    87    86    1
    93    88    86    1
    94    89    81    2
    95    90    89    1
    96    91    89    1
    97    82    84    2
    98    92    93    1
    99    94    92    1
   100    95    94    1
   101    96    94    1
   102    97    94    1
@<TRIPOS>SUBSTRUCTURE
     1 RES1        1 GROUP             0 ****  ****    0  
     2 RES2       52 GROUP             0 ****  ****    0  
     3 RES3       72 GROUP             0 ****  ****    0  
     4 RES4       92 GROUP             0 ****  ****    0  
@<TRIPOS>CRYSIN
    8.9838   13.4223   17.5869   88.9850   85.4250   78.7820     2     1
