@<TRIPOS>MOLECULE
CIWGEX03
    97   102     4     0     0
SMALL
USER_CHARGES
****
Generated from the CSD

@<TRIPOS>ATOM
     1 Fe1      5.8739   3.2230   7.4585   Fe        1 RES1   1.0000
     2 O1       4.9037   4.8193   7.3790   O.3       1 RES1   0.0000
     3 O2       4.3967   2.2853   8.1698   O.3       1 RES1   0.0000
     4 N1       5.3528   2.6634   5.6887   N.2       1 RES1   0.0000
     5 N2       6.4861   3.7991   9.2098   N.2       1 RES1   0.0000
     6 N3       6.9776   1.5479   7.4304   N.3       1 RES1   0.0000
     7 H1       6.8666   1.1296   8.1446   H         1 RES1   0.0000
     8 N4       7.5649   4.1234   6.8404   N.3       1 RES1   0.0000
     9 H2       7.4141   4.5494   6.1037   H         1 RES1   0.0000
    10 C1       3.9003   5.0535   6.5588   C.ar      1 RES1   0.0000
    11 C2       3.6613   4.3386   5.3627   C.ar      1 RES1   0.0000
    12 C3       2.6252   4.7542   4.5030   C.ar      1 RES1   0.0000
    13 H3       2.4917   4.3042   3.7003   H         1 RES1   0.0000
    14 C4       1.8147   5.8033   4.8241   C.ar      1 RES1   0.0000
    15 H4       1.1344   6.0650   4.2462   H         1 RES1   0.0000
    16 C5       2.0132   6.4719   6.0134   C.ar      1 RES1   0.0000
    17 H5       1.4529   7.1798   6.2373   H         1 RES1   0.0000
    18 C6       3.0239   6.1120   6.8766   C.ar      1 RES1   0.0000
    19 H6       3.1300   6.5720   7.6779   H         1 RES1   0.0000
    20 C7       4.4511   3.2125   4.9650   C.2       1 RES1   0.0000
    21 H7       4.2981   2.8547   4.1204   H         1 RES1   0.0000
    22 C8       3.8306   2.5564   9.3434   C.ar      1 RES1   0.0000
    23 C9       4.5064   3.1524  10.4178   C.ar      1 RES1   0.0000
    24 C10      3.8556   3.2868  11.6586   C.ar      1 RES1   0.0000
    25 H8       4.3233   3.6436  12.3792   H         1 RES1   0.0000
    26 C11      2.5556   2.9062  11.8311   C.ar      1 RES1   0.0000
    27 H9       2.1376   3.0044  12.6561   H         1 RES1   0.0000
    28 C12      1.8747   2.3736  10.7568   C.ar      1 RES1   0.0000
    29 H10      0.9812   2.1350  10.8553   H         1 RES1   0.0000
    30 C13      2.4933   2.1886   9.5410   C.ar      1 RES1   0.0000
    31 H11      2.0147   1.8127   8.8378   H         1 RES1   0.0000
    32 C14      5.8331   3.7043  10.3053   C.2       1 RES1   0.0000
    33 H12      6.2419   4.0122  11.0818   H         1 RES1   0.0000
    34 C15      6.1114   1.5203   5.1485   C.3       1 RES1   0.0000
    35 H13      6.8938   1.8330   4.6679   H         1 RES1   0.0000
    36 H14      5.5585   1.0085   4.5376   H         1 RES1   0.0000
    37 C16      6.5240   0.6673   6.3175   C.3       1 RES1   0.0000
    38 H15      5.7745   0.1257   6.6108   H         1 RES1   0.0000
    39 H16      7.2438   0.0729   6.0536   H         1 RES1   0.0000
    40 C17      7.9047   5.1529   7.8527   C.3       1 RES1   0.0000
    41 H17      7.3082   5.9129   7.7658   H         1 RES1   0.0000
    42 H18      8.8144   5.4616   7.7193   H         1 RES1   0.0000
    43 C18      7.7636   4.5409   9.2255   C.3       1 RES1   0.0000
    44 H19      8.5034   3.9407   9.4082   H         1 RES1   0.0000
    45 H20      7.7478   5.2316   9.9062   H         1 RES1   0.0000
    46 C19      8.6439   3.1256   6.5751   C.3       1 RES1   0.0000
    47 H21      9.5063   3.5117   6.7940   H         1 RES1   0.0000
    48 H22      8.6476   2.8916   5.6337   H         1 RES1   0.0000
    49 C20      8.4175   1.8864   7.4049   C.3       1 RES1   0.0000
    50 H23      8.9197   1.1464   7.0294   H         1 RES1   0.0000
    51 H24      8.7329   2.0377   8.3095   H         1 RES1   0.0000
    52 N5       5.1050   1.3516  15.3726   N.1       2 RES2   0.0000
    53 N6       8.1349   3.1463  12.8903   N.1       2 RES2   0.0000
    54 N7      10.6964   0.5041  21.5727   N.1       2 RES2   0.0000
    55 N8      13.8385   1.9689  19.0373   N.1       2 RES2   0.0000
    56 C21      8.5036   1.8768  16.1593   C.2       2 RES2   0.0000
    57 C22      9.8794   2.2156  15.9640   C.2       2 RES2   0.0000
    58 H25     10.1499   2.5629  15.1447   H         2 RES2   0.0000
    59 C23     10.7962   2.0428  16.9438   C.2       2 RES2   0.0000
    60 H26     11.6866   2.2578  16.7825   H         2 RES2   0.0000
    61 C24     10.4132   1.5331  18.2251   C.2       2 RES2   0.0000
    62 C25      9.0371   1.1933  18.4255   C.2       2 RES2   0.0000
    63 H27      8.7659   0.8541  19.2479   H         2 RES2   0.0000
    64 C26      8.1232   1.3565  17.4400   C.2       2 RES2   0.0000
    65 H28      7.2354   1.1278  17.5961   H         2 RES2   0.0000
    66 C27      7.5607   2.0633  15.1511   C.2       2 RES2   0.0000
    67 C28      6.1976   1.6674  15.2916   C.1       2 RES2   0.0000
    68 C29      7.8988   2.6524  13.8981   C.1       2 RES2   0.0000
    69 C30     11.3480   1.3720  19.2487   C.2       2 RES2  -1.0000
    70 C31     10.9758   0.8874  20.5353   C.1       2 RES2   0.0000
    71 C32     12.7263   1.7078  19.1029   C.1       2 RES2   0.0000
    72 N9       7.5984   3.9619   3.5594   N.1       3 RES3   0.0000
    73 N10     10.7473   5.1090   0.9004   N.1       3 RES3   0.0000
    74 N11      1.8958   4.6808  -2.4722   N.1       3 RES3   0.0000
    75 N12      4.8459   6.3926  -5.1202   N.1       3 RES3   0.0000
    76 C33      7.2664   4.9154   0.2006   C.2       3 RES3   0.0000
    77 C34      5.8937   4.6195   0.4497   C.2       3 RES3   0.0000
    78 H29      5.6373   4.3147   1.2901   H         3 RES3   0.0000
    79 C35      4.9560   4.7745  -0.5173   C.2       3 RES3   0.0000
    80 H30      4.0684   4.5668  -0.3329   H         3 RES3   0.0000
    81 C36      5.3127   5.2528  -1.8154   C.2       3 RES3   0.0000
    82 C37      6.6871   5.5498  -2.0656   C.2       3 RES3   0.0000
    83 H31      6.9405   5.8689  -2.9016   H         3 RES3   0.0000
    84 C38      7.6288   5.3747  -1.1064   C.2       3 RES3   0.0000
    85 H32      8.5205   5.5551  -1.2993   H         3 RES3   0.0000
    86 C39      8.2247   4.7479   1.2014   C.2       3 RES3   0.0000
    87 C40      7.8706   4.3044   2.5048   C.1       3 RES3   0.0000
    88 C41      9.6189   4.9721   1.0055   C.1       3 RES3   0.0000
    89 C42      4.3347   5.4168  -2.8016   C.2       3 RES3   0.0000
    90 C43      2.9780   5.0165  -2.5996   C.1       3 RES3   0.0000
    91 C44      4.6311   5.9512  -4.0842   C.1       3 RES3   0.0000
    92 O3       6.1109  12.9447   7.4712   O.3       4 RES4   0.0000
    93 H33      6.4021  13.7763   7.5877   H         4 RES4   0.0000
    94 C45      5.5839  12.8776   6.2063   C.3       4 RES4   0.0000
    95 H34      5.1498  13.7071   5.9958   H         4 RES4   0.0000
    96 H35      4.9448  12.1620   6.1638   H         4 RES4   0.0000
    97 H36      6.2881  12.7149   5.5744   H         4 RES4   0.0000
@<TRIPOS>BOND
     1     1     2    1
     2     2    10    1
     3     3     1    1
     4     4     1    1
     5     5     1    1
     6     6     1    1
     7     7     6    1
     8     8     1    1
     9     9     8    1
    10    10    11   ar
    11    11    12   ar
    12    12    13    1
    13    14    12   ar
    14    15    14    1
    15    16    14   ar
    16    17    16    1
    17    18    10   ar
    18    19    18    1
    19    20     4    2
    20    21    20    1
    21    22     3    1
    22    23    22   ar
    23    24    23   ar
    24    25    24    1
    25    26    24   ar
    26    27    26    1
    27    28    26   ar
    28    29    28    1
    29    30    22   ar
    30    31    30    1
    31    32     5    2
    32    33    32    1
    33    34     4    1
    34    35    34    1
    35    36    34    1
    36    37     6    1
    37    38    37    1
    38    39    37    1
    39    40     8    1
    40    41    40    1
    41    42    40    1
    42    43     5    1
    43    44    43    1
    44    45    43    1
    45    46     8    1
    46    47    46    1
    47    48    46    1
    48    49     6    1
    49    50    49    1
    50    51    49    1
    51    11    20    1
    52    16    18   ar
    53    23    32    1
    54    28    30   ar
    55    34    37    1
    56    40    43    1
    57    46    49    1
    58    52    67    3
    59    53    68    3
    60    54    70    3
    61    55    71    3
    62    56    57    1
    63    57    58    1
    64    59    57    2
    65    60    59    1
    66    61    59    1
    67    62    61    1
    68    63    62    1
    69    64    56    1
    70    65    64    1
    71    66    56    2
    72    67    66    1
    73    68    66    1
    74    69    61    2
    75    70    69    1
    76    71    69    1
    77    62    64    2
    78    72    87    3
    79    73    88    3
    80    74    90    3
    81    75    91    3
    82    76    77    1
    83    77    78    1
    84    79    77    2
    85    80    79    1
    86    81    79    1
    87    82    81    1
    88    83    82    1
    89    84    76    1
    90    85    84    1
    91    86    76    2
    92    87    86    1
    93    88    86    1
    94    89    81    2
    95    90    89    1
    96    91    89    1
    97    82    84    2
    98    92    93    1
    99    94    92    1
   100    95    94    1
   101    96    94    1
   102    97    94    1
@<TRIPOS>SUBSTRUCTURE
     1 RES1        1 GROUP             0 ****  ****    0  
     2 RES2       52 GROUP             0 ****  ****    0  
     3 RES3       72 GROUP             0 ****  ****    0  
     4 RES4       92 GROUP             0 ****  ****    0  
@<TRIPOS>CRYSIN
    8.9616   13.3489   17.5163   88.9760   85.3650   78.5250     2     1
