@<TRIPOS>MOLECULE
CIWGEX
    97   102     4     0     0
SMALL
USER_CHARGES
****
Generated from the CSD

@<TRIPOS>ATOM
     1 Fe1      5.9396   3.1098   7.4137   Fe        1 RES1   1.0000
     2 O1       4.9598   4.7096   7.3343   O.3       1 RES1   0.0000
     3 O2       4.4478   2.1751   8.1093   O.3       1 RES1   0.0000
     4 N1       5.4237   2.5551   5.6411   N.2       1 RES1   0.0000
     5 N2       6.5449   3.6677   9.1734   N.2       1 RES1   0.0000
     6 N3       7.0334   1.4292   7.3974   N.3       1 RES1   0.0000
     7 N4       7.6331   4.0053   6.8068   N.3       1 RES1   0.0000
     8 C1       3.9415   4.9215   6.5256   C.ar      1 RES1   0.0000
     9 C2       3.7089   4.2179   5.3210   C.ar      1 RES1   0.0000
    10 C3       2.6508   4.6134   4.4680   C.ar      1 RES1   0.0000
    11 H1       2.5167   4.1532   3.6472   H         1 RES1   0.0000
    12 C4       1.8162   5.6470   4.8021   C.ar      1 RES1   0.0000
    13 H2       1.1115   5.9045   4.2183   H         1 RES1   0.0000
    14 C5       2.0125   6.3141   6.0077   C.ar      1 RES1   0.0000
    15 H3       1.4322   7.0274   6.2476   H         1 RES1   0.0000
    16 C6       3.0343   5.9565   6.8564   C.ar      1 RES1   0.0000
    17 H4       3.1336   6.4146   7.6833   H         1 RES1   0.0000
    18 C7       4.5114   3.1001   4.9146   C.2       1 RES1   0.0000
    19 H5       4.3590   2.7368   4.0499   H         1 RES1   0.0000
    20 C8       3.8690   2.4408   9.2868   C.ar      1 RES1   0.0000
    21 C9       4.5644   2.9988  10.3795   C.ar      1 RES1   0.0000
    22 C10      3.9095   3.1205  11.6252   C.ar      1 RES1   0.0000
    23 H6       4.3959   3.4469  12.3738   H         1 RES1   0.0000
    24 C11      2.5877   2.7780  11.7839   C.ar      1 RES1   0.0000
    25 H7       2.1607   2.8723  12.6272   H         1 RES1   0.0000
    26 C12      1.8874   2.2912  10.6871   C.ar      1 RES1   0.0000
    27 H8       0.9648   2.0816  10.7750   H         1 RES1   0.0000
    28 C13      2.5179   2.1078   9.4663   C.ar      1 RES1   0.0000
    29 H9       2.0256   1.7496   8.7370   H         1 RES1   0.0000
    30 C14      5.8991   3.5413  10.2738   C.2       1 RES1   0.0000
    31 H10      6.3267   3.8230  11.0736   H         1 RES1   0.0000
    32 C15      6.1870   1.4141   5.0990   C.3       1 RES1   0.0000
    33 H11      6.9937   1.7346   4.6228   H         1 RES1   0.0000
    34 H12      5.6306   0.8973   4.4631   H         1 RES1   0.0000
    35 C16      6.5793   0.5501   6.2775   C.3       1 RES1   0.0000
    36 H13      5.8043   0.0072   6.5688   H         1 RES1   0.0000
    37 H14      7.3092  -0.0649   6.0150   H         1 RES1   0.0000
    38 C17      7.9647   5.0408   7.8263   C.3       1 RES1   0.0000
    39 H15      7.3514   5.8130   7.7388   H         1 RES1   0.0000
    40 H16      8.8921   5.3621   7.6954   H         1 RES1   0.0000
    41 C18      7.8187   4.4141   9.1984   C.3       1 RES1   0.0000
    42 H17      8.5749   3.8029   9.3828   H         1 RES1   0.0000
    43 H18      7.7969   5.1136   9.8983   H         1 RES1   0.0000
    44 C19      8.7255   3.0116   6.5580   C.3       1 RES1   0.0000
    45 H19      9.5993   3.4091   6.7997   H         1 RES1   0.0000
    46 H20      8.7482   2.7745   5.5967   H         1 RES1   0.0000
    47 C20      8.4816   1.7606   7.3901   C.3       1 RES1   0.0000
    48 H21      8.9947   1.0030   7.0115   H         1 RES1   0.0000
    49 H22      8.7939   1.9112   8.3169   H         1 RES1   0.0000
    50 H23      7.4365   4.4228   6.0220   H         1 RES1   0.0000
    51 H24      6.8621   1.0125   8.1416   H         1 RES1   0.0000
    52 N5       7.6523   3.8387   3.5856   N.1       2 RES2   0.0000
    53 N6      10.7894   5.0014   0.9108   N.1       2 RES2   0.0000
    54 N7       1.8752   4.5689  -2.4300   N.1       2 RES2   0.0000
    55 N8       4.8284   6.3094  -5.1045   N.1       2 RES2   0.0000
    56 C21      7.2820   4.8156   0.2133   C.2       2 RES2   0.0000
    57 C22      5.9113   4.5223   0.4725   C.2       2 RES2   0.0000
    58 H25      5.6549   4.2102   1.3332   H         2 RES2   0.0000
    59 C23      4.9609   4.6814  -0.4920   C.2       2 RES2   0.0000
    60 H26      4.0540   4.4794  -0.2934   H         2 RES2   0.0000
    61 C24      5.3108   5.1476  -1.7953   C.2       2 RES2   0.0000
    62 C25      6.6873   5.4437  -2.0560   C.2       2 RES2   0.0000
    63 H27      6.9394   5.7675  -2.9129   H         2 RES2   0.0000
    64 C26      7.6390   5.2703  -1.1042   C.2       2 RES2   0.0000
    65 H28      8.5489   5.4510  -1.3089   H         2 RES2   0.0000
    66 C27      8.2556   4.6465   1.2122   C.2       2 RES2   0.0000
    67 C28      7.9047   4.1934   2.5232   C.1       2 RES2   0.0000
    68 C29      9.6517   4.8672   1.0098   C.1       2 RES2   0.0000
    69 C30      4.3157   5.3209  -2.7730   C.2       2 RES2  -1.0000
    70 C31      2.9634   4.9104  -2.5633   C.1       2 RES2   0.0000
    71 C32      4.6156   5.8630  -4.0649   C.1       2 RES2   0.0000
    72 O3       6.2147  12.6144   7.3956   O.3       3 RES3   0.0000
    73 C33      5.6846  12.6480   6.1020   C.3       3 RES3   0.0000
    74 H29      4.8761  12.0944   6.0654   H         3 RES3   0.0000
    75 H30      6.3467  12.3007   5.4682   H         3 RES3   0.0000
    76 H31      5.4585  13.5711   5.8657   H         3 RES3   0.0000
    77 H32      6.4964  13.3985   7.6208   H         3 RES3   0.0000
    78 N9       5.1617   1.2055  15.3224   N.1       4 RES4   0.0000
    79 N10      8.2078   2.9810  12.7958   N.1       4 RES4   0.0000
    80 N11     10.8053   0.2883  21.4840   N.1       4 RES4   0.0000
    81 N12     13.9648   1.7465  18.9238   N.1       4 RES4   0.0000
    82 C34      8.5803   1.7531  16.0942   C.2       4 RES4   0.0000
    83 C35      9.9613   2.0846  15.8814   C.2       4 RES4   0.0000
    84 H33     10.2316   2.4404  15.0437   H         4 RES4   0.0000
    85 C36     10.8883   1.8985  16.8582   C.2       4 RES4   0.0000
    86 H34     11.7984   2.1083  16.6876   H         4 RES4   0.0000
    87 C37     10.5061   1.3887  18.1453   C.2       4 RES4   0.0000
    88 C38      9.1223   1.0610  18.3581   C.2       4 RES4   0.0000
    89 H35      8.8490   0.7183  19.2012   H         4 RES4   0.0000
    90 C39      8.1980   1.2310  17.3785   C.2       4 RES4   0.0000
    91 H36      7.2898   1.0031  17.5434   H         4 RES4   0.0000
    92 C40      7.6319   1.9268  15.0871   C.2       4 RES4   0.0000
    93 C41      6.2615   1.5321  15.2355   C.1       4 RES4   0.0000
    94 C42      7.9704   2.5035  13.8151   C.1       4 RES4   0.0000
    95 C43     11.4490   1.2044  19.1559   C.2       4 RES4   0.0000
    96 C44     11.0808   0.6992  20.4476   C.1       4 RES4   0.0000
    97 C45     12.8358   1.5118  18.9967   C.1       4 RES4   0.0000
@<TRIPOS>BOND
     1     1     2    1
     2     2     8    1
     3     3     1    1
     4     4     1    1
     5     5     1    1
     6     6     1    1
     7     7     1    1
     8     8     9   ar
     9     9    10   ar
    10    10    11    1
    11    12    10   ar
    12    13    12    1
    13    14    12   ar
    14    15    14    1
    15    16     8   ar
    16    17    16    1
    17    18     4    2
    18    19    18    1
    19    20     3    1
    20    21    20   ar
    21    22    21   ar
    22    23    22    1
    23    24    22   ar
    24    25    24    1
    25    26    24   ar
    26    27    26    1
    27    28    20   ar
    28    29    28    1
    29    30     5    2
    30    31    30    1
    31    32     4    1
    32    33    32    1
    33    34    32    1
    34    35     6    1
    35    36    35    1
    36    37    35    1
    37    38     7    1
    38    39    38    1
    39    40    38    1
    40    41     5    1
    41    42    41    1
    42    43    41    1
    43    44     7    1
    44    45    44    1
    45    46    44    1
    46    47     6    1
    47    48    47    1
    48    49    47    1
    49    50     7    1
    50    51     6    1
    51     9    18    1
    52    14    16   ar
    53    21    30    1
    54    26    28   ar
    55    32    35    1
    56    38    41    1
    57    44    47    1
    58    52    67    3
    59    53    68    3
    60    54    70    3
    61    55    71    3
    62    56    57    1
    63    57    58    1
    64    59    57    2
    65    60    59    1
    66    61    59    1
    67    62    61    1
    68    63    62    1
    69    64    56    1
    70    65    64    1
    71    66    56    2
    72    67    66    1
    73    68    66    1
    74    69    61    2
    75    70    69    1
    76    71    69    1
    77    62    64    2
    78    72    73    1
    79    73    74    1
    80    75    73    1
    81    76    73    1
    82    77    72    1
    83    78    93    3
    84    79    94    3
    85    80    96    3
    86    81    97    3
    87    82    83    1
    88    83    84    1
    89    85    83    2
    90    86    85    1
    91    87    85    1
    92    88    87    1
    93    89    88    1
    94    90    82    1
    95    91    90    1
    96    92    82    2
    97    93    92    1
    98    94    92    1
    99    95    87    2
   100    96    95    1
   101    97    95    1
   102    88    90    2
@<TRIPOS>SUBSTRUCTURE
     1 RES1        1 GROUP             0 ****  ****    0  
     2 RES2       52 GROUP             0 ****  ****    0  
     3 RES3       72 GROUP             0 ****  ****    0  
     4 RES4       78 GROUP             0 ****  ****    0  
@<TRIPOS>CRYSIN
    8.9571   13.1036   17.4234   89.3378   85.1008   78.0273     2     1
