@<TRIPOS>MOLECULE
CIWGEX01
    97   102     4     0     0
SMALL
USER_CHARGES
****
Generated from the CSD

@<TRIPOS>ATOM
     1 Fe1      5.9064   3.1703   7.4388   Fe        1 RES1   1.0000
     2 O1       4.9335   4.7707   7.3627   O.3       1 RES1   0.0000
     3 O2       4.4189   2.2352   8.1427   O.3       1 RES1   0.0000
     4 N1       5.3830   2.6154   5.6682   N.2       1 RES1   0.0000
     5 N2       6.5177   3.7402   9.1917   N.2       1 RES1   0.0000
     6 N3       7.0067   1.4977   7.4136   N.3       1 RES1   0.0000
     7 N4       7.5982   4.0646   6.8278   N.3       1 RES1   0.0000
     8 C1       3.9178   4.9956   6.5451   C.ar      1 RES1   0.0000
     9 C2       3.6863   4.2830   5.3475   C.ar      1 RES1   0.0000
    10 C3       2.6367   4.6971   4.4900   C.ar      1 RES1   0.0000
    11 H1       2.5005   4.2461   3.6772   H         1 RES1   0.0000
    12 C4       1.8243   5.7343   4.8204   C.ar      1 RES1   0.0000
    13 H2       1.1305   5.9924   4.2398   H         1 RES1   0.0000
    14 C5       2.0192   6.4096   6.0171   C.ar      1 RES1   0.0000
    15 H3       1.4526   7.1233   6.2482   H         1 RES1   0.0000
    16 C6       3.0356   6.0410   6.8680   C.ar      1 RES1   0.0000
    17 H4       3.1416   6.4974   7.6818   H         1 RES1   0.0000
    18 C7       4.4782   3.1621   4.9462   C.2       1 RES1   0.0000
    19 H5       4.3231   2.8012   4.0918   H         1 RES1   0.0000
    20 C8       3.8531   2.5009   9.3229   C.ar      1 RES1   0.0000
    21 C9       4.5382   3.0832  10.4018   C.ar      1 RES1   0.0000
    22 C10      3.8809   3.2056  11.6436   C.ar      1 RES1   0.0000
    23 H6       4.3549   3.5474  12.3798   H         1 RES1   0.0000
    24 C11      2.5718   2.8407  11.8074   C.ar      1 RES1   0.0000
    25 H7       2.1495   2.9371  12.6411   H         1 RES1   0.0000
    26 C12      1.8811   2.3274  10.7265   C.ar      1 RES1   0.0000
    27 H8       0.9743   2.0977  10.8208   H         1 RES1   0.0000
    28 C13      2.5069   2.1475   9.5082   C.ar      1 RES1   0.0000
    29 H9       2.0232   1.7817   8.7897   H         1 RES1   0.0000
    30 C14      5.8650   3.6289  10.2924   C.2       1 RES1   0.0000
    31 H10      6.2825   3.9239  11.0803   H         1 RES1   0.0000
    32 C15      6.1493   1.4753   5.1230   C.3       1 RES1   0.0000
    33 H11      6.9432   1.7959   4.6457   H         1 RES1   0.0000
    34 H12      5.5968   0.9607   4.4976   H         1 RES1   0.0000
    35 C16      6.5561   0.6119   6.2996   C.3       1 RES1   0.0000
    36 H13      5.7955   0.0674   6.5931   H         1 RES1   0.0000
    37 H14      7.2832   0.0102   6.0375   H         1 RES1   0.0000
    38 C17      7.9328   5.1018   7.8400   C.3       1 RES1   0.0000
    39 H15      7.3247   5.8655   7.7515   H         1 RES1   0.0000
    40 H16      8.8500   5.4193   7.7062   H         1 RES1   0.0000
    41 C18      7.7932   4.4819   9.2142   C.3       1 RES1   0.0000
    42 H17      8.5412   3.8756   9.3959   H         1 RES1   0.0000
    43 H18      7.7750   5.1771   9.9045   H         1 RES1   0.0000
    44 C19      8.6823   3.0736   6.5701   C.3       1 RES1   0.0000
    45 H19      9.5497   3.4674   6.8004   H         1 RES1   0.0000
    46 H20      8.6951   2.8394   5.6194   H         1 RES1   0.0000
    47 C20      8.4522   1.8301   7.3979   C.3       1 RES1   0.0000
    48 H21      8.9590   1.0823   7.0182   H         1 RES1   0.0000
    49 H22      8.7670   1.9799   8.3142   H         1 RES1   0.0000
    50 H23      7.4120   4.4964   6.0915   H         1 RES1   0.0000
    51 H24      6.8352   1.1033   8.1208   H         1 RES1   0.0000
    52 N5       7.6285   3.9107   3.5681   N.1       2 RES2   0.0000
    53 N6      10.7804   5.0630   0.8997   N.1       2 RES2   0.0000
    54 N7       1.8914   4.6412  -2.4568   N.1       2 RES2   0.0000
    55 N8       4.8439   6.3645  -5.1139   N.1       2 RES2   0.0000
    56 C21      7.2846   4.8707   0.2040   C.2       2 RES2   0.0000
    57 C22      5.9032   4.5831   0.4595   C.2       2 RES2   0.0000
    58 H25      5.6444   4.2837   1.3117   H         2 RES2   0.0000
    59 C23      4.9660   4.7343  -0.5045   C.2       2 RES2   0.0000
    60 H26      4.0704   4.5207  -0.3170   H         2 RES2   0.0000
    61 C24      5.3178   5.2163  -1.8100   C.2       2 RES2   0.0000
    62 C25      6.6983   5.5061  -2.0617   C.2       2 RES2   0.0000
    63 H27      6.9531   5.8237  -2.9090   H         2 RES2   0.0000
    64 C26      7.6415   5.3327  -1.1091   C.2       2 RES2   0.0000
    65 H28      8.5417   5.5167  -1.3082   H         2 RES2   0.0000
    66 C27      8.2481   4.7032   1.2016   C.2       2 RES2   0.0000
    67 C28      7.8939   4.2601   2.5110   C.1       2 RES2   0.0000
    68 C29      9.6465   4.9277   1.0046   C.1       2 RES2   0.0000
    69 C30      4.3369   5.3800  -2.7921   C.2       2 RES2   0.0000
    70 C31      2.9826   4.9796  -2.5878   C.1       2 RES2   0.0000
    71 C32      4.6368   5.9127  -4.0823   C.1       2 RES2   0.0000
    72 O3       6.1623  12.7968   7.4428   O.3       3 RES3   0.0000
    73 C33      5.6468  12.7489   6.1700   C.3       3 RES3   0.0000
    74 H29      4.8529  12.1910   6.1629   H         3 RES3   0.0000
    75 H30      6.3085  12.3765   5.5672   H         3 RES3   0.0000
    76 H31      5.4135  13.6447   5.8824   H         3 RES3   0.0000
    77 H32      6.4139  13.5800   7.6139   H         3 RES3   0.0000
    78 N9       5.1346   1.2777  15.3471   N.1       4 RES4   0.0000
    79 N10      8.1772   3.0784  12.8578   N.1       4 RES4   0.0000
    80 N11     10.7592   0.4067  21.5424   N.1       4 RES4   0.0000
    81 N12     13.9054   1.8697  18.9928   N.1       4 RES4   0.0000
    82 C34      8.5459   1.8080  16.1277   C.2       4 RES4   0.0000
    83 C35      9.9246   2.1366  15.9314   C.2       4 RES4   0.0000
    84 H33     10.1976   2.4828  15.1006   H         4 RES4   0.0000
    85 C36     10.8454   1.9629  16.9051   C.2       4 RES4   0.0000
    86 H34     11.7441   2.1783  16.7380   H         4 RES4   0.0000
    87 C37     10.4656   1.4525  18.1924   C.2       4 RES4   0.0000
    88 C38      9.0851   1.1169  18.3962   C.2       4 RES4   0.0000
    89 H35      8.8116   0.7717  19.2272   H         4 RES4   0.0000
    90 C39      8.1684   1.2876  17.4144   C.2       4 RES4   0.0000
    91 H36      7.2699   1.0620  17.5759   H         4 RES4   0.0000
    92 C40      7.5999   1.9896  15.1222   C.2       4 RES4   0.0000
    93 C41      6.2338   1.5968  15.2639   C.1       4 RES4   0.0000
    94 C42      7.9385   2.5827  13.8663   C.1       4 RES4   0.0000
    95 C43     11.4053   1.2836  19.2093   C.2       4 RES4  -1.0000
    96 C44     11.0345   0.7933  20.5018   C.1       4 RES4   0.0000
    97 C45     12.7884   1.6146  19.0590   C.1       4 RES4   0.0000
@<TRIPOS>BOND
     1     1     2    1
     2     2     8    1
     3     3     1    1
     4     4     1    1
     5     5     1    1
     6     6     1    1
     7     7     1    1
     8     8     9   ar
     9     9    10   ar
    10    10    11    1
    11    12    10   ar
    12    13    12    1
    13    14    12   ar
    14    15    14    1
    15    16     8   ar
    16    17    16    1
    17    18     4    2
    18    19    18    1
    19    20     3    1
    20    21    20   ar
    21    22    21   ar
    22    23    22    1
    23    24    22   ar
    24    25    24    1
    25    26    24   ar
    26    27    26    1
    27    28    20   ar
    28    29    28    1
    29    30     5    2
    30    31    30    1
    31    32     4    1
    32    33    32    1
    33    34    32    1
    34    35     6    1
    35    36    35    1
    36    37    35    1
    37    38     7    1
    38    39    38    1
    39    40    38    1
    40    41     5    1
    41    42    41    1
    42    43    41    1
    43    44     7    1
    44    45    44    1
    45    46    44    1
    46    47     6    1
    47    48    47    1
    48    49    47    1
    49    50     7    1
    50    51     6    1
    51     9    18    1
    52    14    16   ar
    53    21    30    1
    54    26    28   ar
    55    32    35    1
    56    38    41    1
    57    44    47    1
    58    52    67    3
    59    53    68    3
    60    54    70    3
    61    55    71    3
    62    56    57    1
    63    57    58    1
    64    59    57    2
    65    60    59    1
    66    61    59    1
    67    62    61    1
    68    63    62    1
    69    64    56    1
    70    65    64    1
    71    66    56    2
    72    67    66    1
    73    68    66    1
    74    69    61    2
    75    70    69    1
    76    71    69    1
    77    62    64    2
    78    72    73    1
    79    73    74    1
    80    75    73    1
    81    76    73    1
    82    77    72    1
    83    78    93    3
    84    79    94    3
    85    80    96    3
    86    81    97    3
    87    82    83    1
    88    83    84    1
    89    85    83    2
    90    86    85    1
    91    87    85    1
    92    88    87    1
    93    89    88    1
    94    90    82    1
    95    91    90    1
    96    92    82    2
    97    93    92    1
    98    94    92    1
    99    95    87    2
   100    96    95    1
   101    97    95    1
   102    88    90    2
@<TRIPOS>SUBSTRUCTURE
     1 RES1        1 GROUP             0 ****  ****    0  
     2 RES2       52 GROUP             0 ****  ****    0  
     3 RES3       72 GROUP             0 ****  ****    0  
     4 RES4       78 GROUP             0 ****  ****    0  
@<TRIPOS>CRYSIN
    8.9675   13.2483   17.4794   89.1589   85.2423   78.3151     2     1
