@<TRIPOS>MOLECULE
CIWHAU01
    91    97     3     0     0
SMALL
USER_CHARGES
****
Generated from the CSD

@<TRIPOS>ATOM
     1 Fe1      4.9748   2.6981   7.3978   Fe        1 RES1   1.0000
     2 C1       3.0655   4.7469   6.7061   C.ar      1 RES1   0.0000
     3 C2       2.8222   4.2410   5.4151   C.ar      1 RES1   0.0000
     4 C3       1.9013   4.8444   4.5946   C.ar      1 RES1   0.0000
     5 H1       1.7605   4.5254   3.7322   H         1 RES1   0.0000
     6 C4       1.2163   5.8805   5.0438   C.ar      1 RES1   0.0000
     7 H2       0.5851   6.2626   4.4770   H         1 RES1   0.0000
     8 C5       1.3769   6.4329   6.2923   C.ar      1 RES1   0.0000
     9 H3       0.8853   7.1789   6.5518   H         1 RES1   0.0000
    10 C6       2.3052   5.8385   7.1642   C.ar      1 RES1   0.0000
    11 H4       2.4143   6.1612   8.0290   H         1 RES1   0.0000
    12 C7       3.4927   3.0819   4.9164   C.2       1 RES1   0.0000
    13 H5       3.2913   2.8189   4.0468   H         1 RES1   0.0000
    14 C8       3.0892   1.7431   9.3041   C.ar      1 RES1   0.0000
    15 C9       3.6744   2.4334  10.3722   C.ar      1 RES1   0.0000
    16 C10      2.9564   2.5935  11.5801   C.ar      1 RES1   0.0000
    17 H6       3.3418   3.0410  12.2980   H         1 RES1   0.0000
    18 C11      1.6932   2.0863  11.6845   C.ar      1 RES1   0.0000
    19 H7       1.2208   2.1946  12.4786   H         1 RES1   0.0000
    20 C12      1.1152   1.4263  10.6464   C.ar      1 RES1   0.0000
    21 H8       0.2481   1.0991  10.7291   H         1 RES1   0.0000
    22 C13      1.8029   1.2405   9.4791   C.ar      1 RES1   0.0000
    23 H9       1.4026   0.7666   8.7861   H         1 RES1   0.0000
    24 C14      4.9781   3.0226  10.2987   C.2       1 RES1   0.0000
    25 H10      5.3365   3.3686  11.0840   H         1 RES1   0.0000
    26 C15      4.9659   1.2282   4.8651   C.3       1 RES1   0.0000
    27 H11      4.2840   0.6633   4.4691   H         1 RES1   0.0000
    28 H12      5.5497   1.5434   4.1571   H         1 RES1   0.0000
    29 C16      5.7191   0.4842   5.8219   C.3       1 RES1   0.0000
    30 H13      5.1706  -0.2659   6.1000   H         1 RES1   0.0000
    31 H14      6.4879   0.1154   5.3602   H         1 RES1   0.0000
    32 C17      7.0876   4.6137   8.0024   C.3       1 RES1   0.0000
    33 H15      6.4921   5.3795   8.0180   H         1 RES1   0.0000
    34 H16      7.9949   4.9383   7.8887   H         1 RES1   0.0000
    35 C18      6.9771   3.8528   9.3094   C.3       1 RES1   0.0000
    36 H17      7.7196   3.2375   9.4096   H         1 RES1   0.0000
    37 H18      6.9773   4.4660  10.0618   H         1 RES1   0.0000
    38 C19      7.8247   2.8540   6.4709   C.3       1 RES1   0.0000
    39 H19      7.8622   2.8203   5.5016   H         1 RES1   0.0000
    40 H20      8.6633   3.2234   6.7888   H         1 RES1   0.0000
    41 C20      7.6744   1.5853   6.9608   C.3       1 RES1   0.0000
    42 H21      8.0091   1.5586   7.8714   H         1 RES1   0.0000
    43 H22      8.2120   0.9771   6.4307   H         1 RES1   0.0000
    44 N1       4.3340   2.3799   5.5497   N.2       1 RES1   0.0000
    45 N2       5.6866   3.1108   9.2406   N.2       1 RES1   0.0000
    46 N3       6.1792   1.0862   6.9520   N.3       1 RES1   0.0000
    47 H23      6.1259   0.5383   7.6753   H         1 RES1   0.0000
    48 N4       6.7308   3.7270   6.8782   N.3       1 RES1   0.0000
    49 H24      6.5782   4.2893   6.1968   H         1 RES1   0.0000
    50 O1       3.9609   4.2608   7.5239   O.3       1 RES1   0.0000
    51 O2       3.7134   1.5153   8.1613   O.3       1 RES1   0.0000
    52 C21      7.7623   1.3469  16.2550   C.2       2 RES2   0.0000
    53 C22      9.1353   1.6889  16.0334   C.2       2 RES2   0.0000
    54 H25      9.3933   2.0073  15.1987   H         2 RES2   0.0000
    55 C23     10.0589   1.5617  16.9991   C.2       2 RES2   0.0000
    56 H26     10.9455   1.7729  16.8146   H         2 RES2   0.0000
    57 C24      9.7038   1.1062  18.3038   C.2       2 RES2   0.0000
    58 C25      8.3400   0.7639  18.5314   C.2       2 RES2   0.0000
    59 H27      8.0837   0.4472  19.3676   H         2 RES2   0.0000
    60 C26      7.4168   0.8873  17.5665   C.2       2 RES2   0.0000
    61 H28      6.5320   0.6686  17.7533   H         2 RES2   0.0000
    62 C27      6.8096   1.4597  15.2444   C.2       2 RES2   0.0000
    63 C28      5.4348   1.0942  15.4243   C.1       2 RES2   0.0000
    64 C29      7.1111   1.9167  13.9340   C.1       2 RES2   0.0000
    65 C30     10.6626   0.9727  19.3088   C.2       2 RES2  -1.0000
    66 C31     10.3307   0.5351  20.6224   C.1       2 RES2   0.0000
    67 C32     12.0352   1.2815  19.1240   C.1       2 RES2   0.0000
    68 N5       4.3385   0.8190  15.5103   N.1       2 RES2   0.0000
    69 N6       7.2936   2.2769  12.8632   N.1       2 RES2   0.0000
    70 N7      10.1190   0.1711  21.6874   N.1       2 RES2   0.0000
    71 N8      13.1533   1.5088  19.0411   N.1       2 RES2   0.0000
    72 C33      6.7955   4.8509   0.1042   C.2       3 RES3   0.0000
    73 C34      5.4025   4.5654   0.2861   C.2       3 RES3   0.0000
    74 H29      5.1035   4.2679   1.1149   H         3 RES3   0.0000
    75 C35      4.5175   4.7196  -0.7196   C.2       3 RES3   0.0000
    76 H30      3.6209   4.5168  -0.5757   H         3 RES3   0.0000
    77 C36      4.9350   5.1874  -2.0003   C.2       3 RES3   0.0000
    78 C37      6.3151   5.4653  -2.1908   C.2       3 RES3   0.0000
    79 H31      6.6117   5.7703  -3.0177   H         3 RES3   0.0000
    80 C38      7.2030   5.2918  -1.1852   C.2       3 RES3   0.0000
    81 H32      8.1037   5.4659  -1.3408   H         3 RES3   0.0000
    82 C39      7.7054   4.6738   1.1460   C.2       3 RES3   0.0000
    83 C40      7.2663   4.2520   2.4458   C.1       3 RES3   0.0000
    84 C41      9.1074   4.8885   0.9969   C.1       3 RES3   0.0000
    85 C42      4.0014   5.3588  -3.0234   C.2       3 RES3   0.0000
    86 C43      2.6319   4.9754  -2.8538   C.1       3 RES3   0.0000
    87 C44      4.3385   5.8939  -4.3028   C.1       3 RES3   0.0000
    88 N9       6.9281   3.9019   3.4756   N.1       3 RES3   0.0000
    89 N10     10.2347   5.0136   0.9113   N.1       3 RES3   0.0000
    90 N11      1.5491   4.6583  -2.7486   N.1       3 RES3   0.0000
    91 N12      4.5883   6.3447  -5.3260   N.1       3 RES3   0.0000
@<TRIPOS>BOND
     1     1    44    1
     2     2     3   ar
     3     3     4   ar
     4     4     5    1
     5     6     4   ar
     6     7     6    1
     7     8     6   ar
     8     9     8    1
     9    10     2   ar
    10    11    10    1
    11    12     3    1
    12    13    12    1
    13    14    15   ar
    14    15    16   ar
    15    16    17    1
    16    18    16   ar
    17    19    18    1
    18    20    18   ar
    19    21    20    1
    20    22    14   ar
    21    23    22    1
    22    24    15    1
    23    25    24    1
    24    26    27    1
    25    28    26    1
    26    29    26    1
    27    30    29    1
    28    31    29    1
    29    32    33    1
    30    34    32    1
    31    35    32    1
    32    36    35    1
    33    37    35    1
    34    38    39    1
    35    40    38    1
    36    41    38    1
    37    42    41    1
    38    43    41    1
    39    44    12    2
    40    45     1    1
    41    46     1    1
    42    47    46    1
    43    48     1    1
    44    49    48    1
    45    50     1    1
    46    51     1    1
    47     2    50    1
    48     8    10   ar
    49    14    51    1
    50    20    22   ar
    51    24    45    2
    52    26    44    1
    53    29    46    1
    54    32    48    1
    55    35    45    1
    56    38    48    1
    57    41    46    1
    58    52    53    1
    59    53    54    1
    60    55    53    2
    61    56    55    1
    62    57    55    1
    63    58    57    1
    64    59    58    1
    65    60    52    1
    66    61    60    1
    67    62    52    2
    68    63    62    1
    69    64    62    1
    70    65    57    2
    71    66    65    1
    72    67    65    1
    73    68    63    3
    74    69    64    3
    75    70    66    3
    76    71    67    3
    77    58    60    2
    78    72    73    1
    79    73    74    1
    80    75    73    2
    81    76    75    1
    82    77    75    1
    83    78    77    1
    84    79    78    1
    85    80    72    1
    86    81    80    1
    87    82    72    2
    88    83    82    1
    89    84    82    1
    90    85    77    2
    91    86    85    1
    92    87    85    1
    93    88    83    3
    94    89    84    3
    95    90    86    3
    96    91    87    3
    97    78    80    2
@<TRIPOS>SUBSTRUCTURE
     1 RES1        1 GROUP             0 ****  ****    0  
     2 RES2       52 GROUP             0 ****  ****    0  
     3 RES3       72 GROUP             0 ****  ****    0  
@<TRIPOS>CRYSIN
    8.8948   13.0374   17.7142   91.1060   87.0620   82.8460     2     1
