@<TRIPOS>MOLECULE
CIWHAU
    91    97     3     0     0
SMALL
USER_CHARGES
****
Generated from the CSD

@<TRIPOS>ATOM
     1 Fe1      5.0590   2.6876   7.3560   Fe        1 RES1   1.0000
     2 C1       3.1099   4.6882   6.6576   C.ar      1 RES1   0.0000
     3 C2       2.8927   4.1597   5.3778   C.ar      1 RES1   0.0000
     4 C3       1.9388   4.7440   4.5698   C.ar      1 RES1   0.0000
     5 H1       1.8114   4.4128   3.7096   H         1 RES1   0.0000
     6 C4       1.2000   5.7632   4.9829   C.ar      1 RES1   0.0000
     7 H2       0.5531   6.1192   4.4174   H         1 RES1   0.0000
     8 C5       1.3786   6.3051   6.2431   C.ar      1 RES1   0.0000
     9 H3       0.8674   7.0321   6.5192   H         1 RES1   0.0000
    10 C6       2.3198   5.7584   7.0868   C.ar      1 RES1   0.0000
    11 H4       2.4296   6.1013   7.9435   H         1 RES1   0.0000
    12 C7       3.6085   3.0229   4.8874   C.2       1 RES1   0.0000
    13 H5       3.4102   2.7414   4.0237   H         1 RES1   0.0000
    14 C8       3.1172   1.7539   9.2065   C.ar      1 RES1   0.0000
    15 C9       3.6871   2.4463  10.2888   C.ar      1 RES1   0.0000
    16 C10      2.9363   2.5980  11.4668   C.ar      1 RES1   0.0000
    17 H6       3.3110   3.0480  12.1887   H         1 RES1   0.0000
    18 C11      1.6764   2.1032  11.5758   C.ar      1 RES1   0.0000
    19 H7       1.1930   2.2196  12.3617   H         1 RES1   0.0000
    20 C12      1.1200   1.4257  10.5089   C.ar      1 RES1   0.0000
    21 H8       0.2560   1.0901  10.5765   H         1 RES1   0.0000
    22 C13      1.8270   1.2462   9.3576   C.ar      1 RES1   0.0000
    23 H9       1.4398   0.7732   8.6567   H         1 RES1   0.0000
    24 C14      4.9967   3.0221  10.2312   C.2       1 RES1   0.0000
    25 H10      5.3483   3.3607  11.0226   H         1 RES1   0.0000
    26 C15      5.2273   1.2301   4.8792   C.3       1 RES1   0.0000
    27 H11      4.6244   0.7090   4.3265   H         1 RES1   0.0000
    28 H12      5.9399   1.5724   4.3179   H         1 RES1   0.0000
    29 C16      5.7789   0.4008   5.9285   C.3       1 RES1   0.0000
    30 H13      5.0896  -0.2095   6.2362   H         1 RES1   0.0000
    31 H14      6.4979  -0.1331   5.5571   H         1 RES1   0.0000
    32 C17      7.1235   4.6124   7.9586   C.3       1 RES1   0.0000
    33 H15      6.5293   5.3787   7.9683   H         1 RES1   0.0000
    34 H16      8.0326   4.9328   7.8519   H         1 RES1   0.0000
    35 C18      6.9980   3.8492   9.2573   C.3       1 RES1   0.0000
    36 H17      7.7398   3.2327   9.3608   H         1 RES1   0.0000
    37 H18      6.9956   4.4604  10.0102   H         1 RES1   0.0000
    38 C19      7.8684   2.8231   6.4294   C.3       1 RES1   0.0000
    39 H19      7.8682   2.7375   5.4641   H         1 RES1   0.0000
    40 H20      8.7176   3.2099   6.6962   H         1 RES1   0.0000
    41 C20      7.7308   1.5215   7.0235   C.3       1 RES1   0.0000
    42 H21      8.0579   1.5434   7.9371   H         1 RES1   0.0000
    43 H22      8.2606   0.8788   6.5278   H         1 RES1   0.0000
    44 N1       4.4876   2.3625   5.5202   N.2       1 RES1   0.0000
    45 N2       5.7171   3.1085   9.1900   N.2       1 RES1   0.0000
    46 N3       6.2633   1.0983   7.0130   N.3       1 RES1   0.0000
    47 H23      6.1861   0.5248   7.7582   H         1 RES1   0.0000
    48 N4       6.7729   3.7227   6.8411   N.3       1 RES1   0.0000
    49 H24      6.5821   4.2401   6.1218   H         1 RES1   0.0000
    50 O1       4.0343   4.2449   7.4761   O.3       1 RES1   0.0000
    51 O2       3.7576   1.5310   8.0589   O.3       1 RES1   0.0000
    52 C21      7.7927   1.2981  16.1516   C.2       2 RES2   0.0000
    53 C22      9.1659   1.6404  15.9229   C.2       2 RES2   0.0000
    54 H25      9.4264   1.9585  15.0888   H         2 RES2   0.0000
    55 C23     10.0899   1.5055  16.9030   C.2       2 RES2   0.0000
    56 H26     10.9774   1.7162  16.7224   H         2 RES2   0.0000
    57 C24      9.7341   1.0511  18.2015   C.2       2 RES2   0.0000
    58 C25      8.3629   0.7179  18.4302   C.2       2 RES2   0.0000
    59 H27      8.1038   0.4075  19.2676   H         2 RES2   0.0000
    60 C26      7.4366   0.8448  17.4579   C.2       2 RES2   0.0000
    61 H28      6.5502   0.6325  17.6416   H         2 RES2   0.0000
    62 C27      6.8398   1.4233  15.1399   C.2       2 RES2   0.0000
    63 C28      5.4698   1.0600  15.3309   C.1       2 RES2   0.0000
    64 C29      7.1382   1.8686  13.8371   C.1       2 RES2   0.0000
    65 C30     10.6910   0.9170  19.2095   C.2       2 RES2  -1.0000
    66 C31     10.3591   0.4702  20.5211   C.1       2 RES2   0.0000
    67 C32     12.0717   1.2236  19.0193   C.1       2 RES2   0.0000
    68 N5       4.3725   0.7806  15.4255   N.1       2 RES2   0.0000
    69 N6       7.3132   2.2249  12.7667   N.1       2 RES2   0.0000
    70 N7      10.1222   0.1169  21.5762   N.1       2 RES2   0.0000
    71 N8      13.1856   1.4475  18.9346   N.1       2 RES2   0.0000
    72 C33      6.7990   4.8285   0.0951   C.2       3 RES3   0.0000
    73 C34      5.4108   4.5381   0.2898   C.2       3 RES3   0.0000
    74 H29      5.1192   4.2333   1.1188   H         3 RES3   0.0000
    75 C35      4.5174   4.6993  -0.7111   C.2       3 RES3   0.0000
    76 H30      3.6208   4.5017  -0.5607   H         3 RES3   0.0000
    77 C36      4.9273   5.1659  -1.9935   C.2       3 RES3   0.0000
    78 C37      6.3099   5.4482  -2.1890   C.2       3 RES3   0.0000
    79 H31      6.5993   5.7616  -3.0152   H         3 RES3   0.0000
    80 C38      7.2095   5.2678  -1.1929   C.2       3 RES3   0.0000
    81 H32      8.1100   5.4342  -1.3543   H         3 RES3   0.0000
    82 C39      7.7144   4.6464   1.1382   C.2       3 RES3   0.0000
    83 C40      7.2858   4.2247   2.4287   C.1       3 RES3   0.0000
    84 C41      9.1140   4.8620   0.9820   C.1       3 RES3   0.0000
    85 C42      3.9865   5.3455  -3.0084   C.2       3 RES3   0.0000
    86 C43      2.6207   4.9544  -2.8363   C.1       3 RES3   0.0000
    87 C44      4.3205   5.8890  -4.2793   C.1       3 RES3   0.0000
    88 N9       6.9461   3.8850   3.4592   N.1       3 RES3   0.0000
    89 N10     10.2475   4.9857   0.8876   N.1       3 RES3   0.0000
    90 N11      1.5374   4.6358  -2.7215   N.1       3 RES3   0.0000
    91 N12      4.5663   6.3391  -5.3001   N.1       3 RES3   0.0000
@<TRIPOS>BOND
     1     1    44    1
     2     2     3   ar
     3     3     4   ar
     4     4     5    1
     5     6     4   ar
     6     7     6    1
     7     8     6   ar
     8     9     8    1
     9    10     2   ar
    10    11    10    1
    11    12     3    1
    12    13    12    1
    13    14    15   ar
    14    15    16   ar
    15    16    17    1
    16    18    16   ar
    17    19    18    1
    18    20    18   ar
    19    21    20    1
    20    22    14   ar
    21    23    22    1
    22    24    15    1
    23    25    24    1
    24    26    27    1
    25    28    26    1
    26    29    26    1
    27    30    29    1
    28    31    29    1
    29    32    33    1
    30    34    32    1
    31    35    32    1
    32    36    35    1
    33    37    35    1
    34    38    39    1
    35    40    38    1
    36    41    38    1
    37    42    41    1
    38    43    41    1
    39    44    12    2
    40    45     1    1
    41    46     1    1
    42    47    46    1
    43    48     1    1
    44    49    48    1
    45    50     1    1
    46    51     1    1
    47     2    50    1
    48     8    10   ar
    49    14    51    1
    50    20    22   ar
    51    24    45    2
    52    26    44    1
    53    29    46    1
    54    32    48    1
    55    35    45    1
    56    38    48    1
    57    41    46    1
    58    52    53    1
    59    53    54    1
    60    55    53    2
    61    56    55    1
    62    57    55    1
    63    58    57    1
    64    59    58    1
    65    60    52    1
    66    61    60    1
    67    62    52    2
    68    63    62    1
    69    64    62    1
    70    65    57    2
    71    66    65    1
    72    67    65    1
    73    68    63    3
    74    69    64    3
    75    70    66    3
    76    71    67    3
    77    58    60    2
    78    72    73    1
    79    73    74    1
    80    75    73    2
    81    76    75    1
    82    77    75    1
    83    78    77    1
    84    79    78    1
    85    80    72    1
    86    81    80    1
    87    82    72    2
    88    83    82    1
    89    84    82    1
    90    85    77    2
    91    86    85    1
    92    87    85    1
    93    88    83    3
    94    89    84    3
    95    90    86    3
    96    91    87    3
    97    78    80    2
@<TRIPOS>SUBSTRUCTURE
     1 RES1        1 GROUP             0 ****  ****    0  
     2 RES2       52 GROUP             0 ****  ****    0  
     3 RES3       72 GROUP             0 ****  ****    0  
@<TRIPOS>CRYSIN
    8.8932   12.9755   17.6089   91.2340   86.9220   82.7570     2     1
