@<TRIPOS>MOLECULE
CIWHAU02
    91    97     3     0     0
SMALL
USER_CHARGES
****
Generated from the CSD

@<TRIPOS>ATOM
     1 Fe1      5.1647   2.6864   7.3616   Fe        1 RES1   1.0000
     2 C1       3.1922   4.6522   6.6483   C.ar      1 RES1   0.0000
     3 C2       2.9798   4.1028   5.3677   C.ar      1 RES1   0.0000
     4 C3       2.0046   4.6606   4.5380   C.ar      1 RES1   0.0000
     5 H1       1.8839   4.3143   3.6840   H         1 RES1   0.0000
     6 C4       1.2401   5.6804   4.9422   C.ar      1 RES1   0.0000
     7 H2       0.5875   6.0211   4.3746   H         1 RES1   0.0000
     8 C5       1.4123   6.2317   6.2024   C.ar      1 RES1   0.0000
     9 H3       0.8861   6.9505   6.4684   H         1 RES1   0.0000
    10 C6       2.3666   5.7166   7.0671   C.ar      1 RES1   0.0000
    11 H4       2.4628   6.0731   7.9209   H         1 RES1   0.0000
    12 C7       3.7363   2.9802   4.8779   C.2       1 RES1   0.0000
    13 H5       3.5590   2.6946   4.0110   H         1 RES1   0.0000
    14 C8       3.1764   1.7626   9.1675   C.ar      1 RES1   0.0000
    15 C9       3.7346   2.4617  10.2699   C.ar      1 RES1   0.0000
    16 C10      2.9744   2.6089  11.4439   C.ar      1 RES1   0.0000
    17 H6       3.3462   3.0575  12.1689   H         1 RES1   0.0000
    18 C11      1.7091   2.1125  11.5506   C.ar      1 RES1   0.0000
    19 H7       1.2175   2.2300  12.3310   H         1 RES1   0.0000
    20 C12      1.1679   1.4306  10.4697   C.ar      1 RES1   0.0000
    21 H8       0.3048   1.0912  10.5312   H         1 RES1   0.0000
    22 C13      1.8820   1.2480   9.3167   C.ar      1 RES1   0.0000
    23 H9       1.4985   0.7719   8.6159   H         1 RES1   0.0000
    24 C14      5.0523   3.0346  10.2307   C.2       1 RES1   0.0000
    25 H10      5.3983   3.3702  11.0262   H         1 RES1   0.0000
    26 C15      5.3932   1.2315   4.8895   C.3       1 RES1   0.0000
    27 H11      4.8225   0.7408   4.2775   H         1 RES1   0.0000
    28 H12      6.1486   1.5832   4.3929   H         1 RES1   0.0000
    29 C16      5.8592   0.3476   5.9774   C.3       1 RES1   0.0000
    30 H13      5.1237  -0.2110   6.2715   H         1 RES1   0.0000
    31 H14      6.5584  -0.2331   5.6382   H         1 RES1   0.0000
    32 C17      7.2010   4.6250   7.9650   C.3       1 RES1   0.0000
    33 H15      6.6029   5.3891   7.9715   H         1 RES1   0.0000
    34 H16      8.1089   4.9498   7.8619   H         1 RES1   0.0000
    35 C18      7.0717   3.8580   9.2644   C.3       1 RES1   0.0000
    36 H17      7.8118   3.2405   9.3684   H         1 RES1   0.0000
    37 H18      7.0679   4.4682  10.0188   H         1 RES1   0.0000
    38 C19      7.9526   2.8117   6.4287   C.3       1 RES1   0.0000
    39 H19      7.9424   2.7109   5.4641   H         1 RES1   0.0000
    40 H20      8.8056   3.1991   6.6806   H         1 RES1   0.0000
    41 C20      7.8098   1.4837   7.0636   C.3       1 RES1   0.0000
    42 H21      8.1560   1.5146   7.9687   H         1 RES1   0.0000
    43 H22      8.3215   0.8267   6.5655   H         1 RES1   0.0000
    44 N1       4.6305   2.3429   5.5322   N.2       1 RES1   0.0000
    45 N2       5.7859   3.1204   9.1870   N.2       1 RES1   0.0000
    46 N3       6.3613   1.0851   7.0876   N.3       1 RES1   0.0000
    47 H23      6.2390   0.4744   7.8404   H         1 RES1   0.0000
    48 N4       6.8561   3.7244   6.8402   N.3       1 RES1   0.0000
    49 H24      6.6349   4.2623   6.1110   H         1 RES1   0.0000
    50 O1       4.1307   4.2444   7.4776   O.3       1 RES1   0.0000
    51 O2       3.8270   1.5454   8.0279   O.3       1 RES1   0.0000
    52 C21      7.8792   1.2587  16.1457   C.2       2 RES2   0.0000
    53 C22      9.2577   1.5979  15.9209   C.2       2 RES2   0.0000
    54 H25      9.5183   1.9181  15.0875   H         2 RES2   0.0000
    55 C23     10.1853   1.4605  16.8998   C.2       2 RES2   0.0000
    56 H26     11.0734   1.6696  16.7191   H         2 RES2   0.0000
    57 C24      9.8243   0.9999  18.2067   C.2       2 RES2   0.0000
    58 C25      8.4505   0.6683  18.4335   C.2       2 RES2   0.0000
    59 H27      8.1904   0.3563  19.2701   H         2 RES2   0.0000
    60 C26      7.5222   0.7988  17.4586   C.2       2 RES2   0.0000
    61 H28      6.6351   0.5867  17.6418   H         2 RES2   0.0000
    62 C27      6.9205   1.3792  15.1333   C.2       2 RES2   0.0000
    63 C28      5.5471   1.0242  15.3284   C.1       2 RES2   0.0000
    64 C29      7.2181   1.8301  13.8150   C.1       2 RES2   0.0000
    65 C30     10.7846   0.8579  19.2180   C.2       2 RES2  -1.0000
    66 C31     10.4432   0.4060  20.5372   C.1       2 RES2   0.0000
    67 C32     12.1690   1.1626  19.0335   C.1       2 RES2   0.0000
    68 N5       4.4433   0.7430  15.4272   N.1       2 RES2   0.0000
    69 N6       7.3876   2.1832  12.7392   N.1       2 RES2   0.0000
    70 N7      10.1962   0.0446  21.5898   N.1       2 RES2   0.0000
    71 N8      13.2901   1.3827  18.9526   N.1       2 RES2   0.0000
    72 C33      6.8323   4.8274   0.0916   C.2       3 RES3   0.0000
    73 C34      5.4466   4.5383   0.2951   C.2       3 RES3   0.0000
    74 H29      5.1602   4.2333   1.1256   H         3 RES3   0.0000
    75 C35      4.5424   4.7019  -0.7050   C.2       3 RES3   0.0000
    76 H30      3.6472   4.5043  -0.5494   H         3 RES3   0.0000
    77 C36      4.9454   5.1739  -1.9941   C.2       3 RES3   0.0000
    78 C37      6.3301   5.4561  -2.1985   C.2       3 RES3   0.0000
    79 H31      6.6137   5.7700  -3.0268   H         3 RES3   0.0000
    80 C38      7.2431   5.2756  -1.2076   C.2       3 RES3   0.0000
    81 H32      8.1427   5.4443  -1.3735   H         3 RES3   0.0000
    82 C39      7.7589   4.6513   1.1345   C.2       3 RES3   0.0000
    83 C40      7.3365   4.2211   2.4254   C.1       3 RES3   0.0000
    84 C41      9.1659   4.8641   0.9758   C.1       3 RES3   0.0000
    85 C42      3.9952   5.3537  -3.0080   C.2       3 RES3   0.0000
    86 C43      2.6304   4.9659  -2.8354   C.1       3 RES3   0.0000
    87 C44      4.3235   5.9114  -4.2838   C.1       3 RES3   0.0000
    88 N9       7.0014   3.8743   3.4645   N.1       3 RES3   0.0000
    89 N10     10.3010   4.9818   0.8756   N.1       3 RES3   0.0000
    90 N11      1.5365   4.6429  -2.7180   N.1       3 RES3   0.0000
    91 N12      4.5683   6.3723  -5.3085   N.1       3 RES3   0.0000
@<TRIPOS>BOND
     1     1    44    1
     2     2     3   ar
     3     3     4   ar
     4     4     5    1
     5     6     4   ar
     6     7     6    1
     7     8     6   ar
     8     9     8    1
     9    10     2   ar
    10    11    10    1
    11    12     3    1
    12    13    12    1
    13    14    15   ar
    14    15    16   ar
    15    16    17    1
    16    18    16   ar
    17    19    18    1
    18    20    18   ar
    19    21    20    1
    20    22    14   ar
    21    23    22    1
    22    24    15    1
    23    25    24    1
    24    26    27    1
    25    28    26    1
    26    29    26    1
    27    30    29    1
    28    31    29    1
    29    32    33    1
    30    34    32    1
    31    35    32    1
    32    36    35    1
    33    37    35    1
    34    38    39    1
    35    40    38    1
    36    41    38    1
    37    42    41    1
    38    43    41    1
    39    44    12    2
    40    45     1    1
    41    46     1    1
    42    47    46    1
    43    48     1    1
    44    49    48    1
    45    50     1    1
    46    51     1    1
    47     2    50    1
    48     8    10   ar
    49    14    51    1
    50    20    22   ar
    51    24    45    2
    52    26    44    1
    53    29    46    1
    54    32    48    1
    55    35    45    1
    56    38    48    1
    57    41    46    1
    58    52    53    1
    59    53    54    1
    60    55    53    2
    61    56    55    1
    62    57    55    1
    63    58    57    1
    64    59    58    1
    65    60    52    1
    66    61    60    1
    67    62    52    2
    68    63    62    1
    69    64    62    1
    70    65    57    2
    71    66    65    1
    72    67    65    1
    73    68    63    3
    74    69    64    3
    75    70    66    3
    76    71    67    3
    77    58    60    2
    78    72    73    1
    79    73    74    1
    80    75    73    2
    81    76    75    1
    82    77    75    1
    83    78    77    1
    84    79    78    1
    85    80    72    1
    86    81    80    1
    87    82    72    2
    88    83    82    1
    89    84    82    1
    90    85    77    2
    91    86    85    1
    92    87    85    1
    93    88    83    3
    94    89    84    3
    95    90    86    3
    96    91    87    3
    97    78    80    2
@<TRIPOS>SUBSTRUCTURE
     1 RES1        1 GROUP             0 ****  ****    0  
     2 RES2       52 GROUP             0 ****  ****    0  
     3 RES3       72 GROUP             0 ****  ****    0  
@<TRIPOS>CRYSIN
    8.9218   12.9832   17.6134   91.3560   86.6960   82.5700     2     1
