@<TRIPOS>MOLECULE
CIWHAU05
    91    97     3     0     0
SMALL
USER_CHARGES
****
Generated from the CSD

@<TRIPOS>ATOM
     1 Fe1      5.3252   2.6517   7.3095   Fe        1 RES1   1.0000
     2 C1       3.3241   4.5382   6.5409   C.ar      1 RES1   0.0000
     3 C2       3.1399   3.9505   5.2730   C.ar      1 RES1   0.0000
     4 C3       2.1401   4.4582   4.4113   C.ar      1 RES1   0.0000
     5 H1       2.0329   4.0810   3.5570   H         1 RES1   0.0000
     6 C4       1.3279   5.4854   4.7962   C.ar      1 RES1   0.0000
     7 H2       0.6711   5.8150   4.2098   H         1 RES1   0.0000
     8 C5       1.4782   6.0380   6.0562   C.ar      1 RES1   0.0000
     9 H3       0.9125   6.7396   6.3244   H         1 RES1   0.0000
    10 C6       2.4444   5.5747   6.9236   C.ar      1 RES1   0.0000
    11 H4       2.5184   5.9535   7.7807   H         1 RES1   0.0000
    12 C7       3.9410   2.8566   4.7980   C.2       1 RES1   0.0000
    13 H5       3.8018   2.5645   3.9154   H         1 RES1   0.0000
    14 C8       3.2799   1.7787   9.0574   C.ar      1 RES1   0.0000
    15 C9       3.8113   2.4969  10.1557   C.ar      1 RES1   0.0000
    16 C10      3.0314   2.6609  11.3166   C.ar      1 RES1   0.0000
    17 H6       3.3936   3.1265  12.0486   H         1 RES1   0.0000
    18 C11      1.7613   2.1611  11.4084   C.ar      1 RES1   0.0000
    19 H7       1.2501   2.2947  12.1860   H         1 RES1   0.0000
    20 C12      1.2386   1.4531  10.3338   C.ar      1 RES1   0.0000
    21 H8       0.3671   1.1058  10.3873   H         1 RES1   0.0000
    22 C13      1.9808   1.2528   9.1901   C.ar      1 RES1   0.0000
    23 H9       1.6122   0.7544   8.4838   H         1 RES1   0.0000
    24 C14      5.1320   3.0718  10.1422   C.2       1 RES1   0.0000
    25 H10      5.4629   3.4262  10.9474   H         1 RES1   0.0000
    26 C15      5.5935   1.1481   4.8748   C.3       1 RES1   0.0000
    27 H11      6.3878   1.4958   4.4181   H         1 RES1   0.0000
    28 H12      5.0381   0.6753   4.2202   H         1 RES1   0.0000
    29 C16      5.9946   0.2174   5.9955   C.3       1 RES1   0.0000
    30 H13      5.2247  -0.3197   6.2759   H         1 RES1   0.0000
    31 H14      6.6995  -0.3907   5.6888   H         1 RES1   0.0000
    32 C17      7.3072   4.6090   7.8821   C.3       1 RES1   0.0000
    33 H15      6.7034   5.3804   7.8653   H         1 RES1   0.0000
    34 H16      8.2261   4.9347   7.7785   H         1 RES1   0.0000
    35 C18      7.1667   3.8713   9.1971   C.3       1 RES1   0.0000
    36 H17      7.9139   3.2505   9.3259   H         1 RES1   0.0000
    37 H18      7.1491   4.5026   9.9464   H         1 RES1   0.0000
    38 C19      8.0791   2.7585   6.3836   C.3       1 RES1   0.0000
    39 H19      8.9408   3.1584   6.6233   H         1 RES1   0.0000
    40 H20      8.0645   2.6245   5.4129   H         1 RES1   0.0000
    41 C20      7.9262   1.4200   7.0841   C.3       1 RES1   0.0000
    42 H21      8.4351   0.7357   6.6008   H         1 RES1   0.0000
    43 H22      8.2856   1.4816   7.9938   H         1 RES1   0.0000
    44 N1       4.8330   2.2496   5.4943   N.2       1 RES1   0.0000
    45 N2       5.8870   3.1339   9.1080   N.2       1 RES1   0.0000
    46 N3       6.4890   1.0309   7.1382   N.3       1 RES1   0.0000
    47 H23      6.3542   0.5509   7.8545   H         1 RES1   0.0000
    48 N4       6.9731   3.6810   6.7773   N.3       1 RES1   0.0000
    49 H24      6.7996   4.1567   6.0876   H         1 RES1   0.0000
    50 O1       4.2763   4.2011   7.3892   O.3       1 RES1   0.0000
    51 O2       3.9498   1.5287   7.9426   O.3       1 RES1   0.0000
    52 C21      8.0030   1.2165  15.9649   C.2       2 RES2   0.0000
    53 C22      9.3848   1.5521  15.7376   C.2       2 RES2   0.0000
    54 H25      9.6457   1.8808  14.8965   H         2 RES2   0.0000
    55 C23     10.3161   1.4046  16.7086   C.2       2 RES2   0.0000
    56 H26     11.2139   1.6151  16.5258   H         2 RES2   0.0000
    57 C24      9.9498   0.9290  18.0194   C.2       2 RES2   0.0000
    58 C25      8.5706   0.6008  18.2477   C.2       2 RES2   0.0000
    59 H27      8.3081   0.2791  19.0910   H         2 RES2   0.0000
    60 C26      7.6405   0.7448  17.2751   C.2       2 RES2   0.0000
    61 H28      6.7432   0.5331  17.4586   H         2 RES2   0.0000
    62 C27      7.0425   1.3414  14.9641   C.2       2 RES2   0.0000
    63 C28      5.6690   0.9841  15.1683   C.1       2 RES2   0.0000
    64 C29      7.3295   1.7881  13.6351   C.1       2 RES2   0.0000
    65 C30     10.9061   0.7674  19.0219   C.2       2 RES2  -1.0000
    66 C31     10.5550   0.2935  20.3280   C.1       2 RES2   0.0000
    67 C32     12.2916   1.0554  18.8420   C.1       2 RES2   0.0000
    68 N5       4.5676   0.7018  15.2734   N.1       2 RES2   0.0000
    69 N6       7.4882   2.1423  12.5579   N.1       2 RES2   0.0000
    70 N7      10.2903  -0.0905  21.3761   N.1       2 RES2   0.0000
    71 N8      13.4152   1.2597  18.7616   N.1       2 RES2   0.0000
    72 C33      6.8449   4.7712   0.1117   C.2       3 RES3   0.0000
    73 C34      5.4611   4.4852   0.3263   C.2       3 RES3   0.0000
    74 H29      5.1814   4.1733   1.1678   H         3 RES3   0.0000
    75 C35      4.5437   4.6534  -0.6560   C.2       3 RES3   0.0000
    76 H30      3.6408   4.4533  -0.4876   H         3 RES3   0.0000
    77 C36      4.9332   5.1328  -1.9479   C.2       3 RES3   0.0000
    78 C37      6.3166   5.4171  -2.1696   C.2       3 RES3   0.0000
    79 H31      6.5922   5.7403  -3.0082   H         3 RES3   0.0000
    80 C38      7.2395   5.2294  -1.1927   C.2       3 RES3   0.0000
    81 H32      8.1464   5.4009  -1.3705   H         3 RES3   0.0000
    82 C39      7.7848   4.5881   1.1338   C.2       3 RES3   0.0000
    83 C40      7.3818   4.1396   2.4276   C.1       3 RES3   0.0000
    84 C41      9.1866   4.8006   0.9656   C.1       3 RES3   0.0000
    85 C42      3.9648   5.3259  -2.9484   C.2       3 RES3   0.0000
    86 C43      2.6060   4.9334  -2.7703   C.1       3 RES3   0.0000
    87 C44      4.2865   5.9013  -4.2132   C.1       3 RES3   0.0000
    88 N9       7.0567   3.7704   3.4635   N.1       3 RES3   0.0000
    89 N10     10.3239   4.9216   0.8678   N.1       3 RES3   0.0000
    90 N11      1.5142   4.6035  -2.6550   N.1       3 RES3   0.0000
    91 N12      4.5167   6.3815  -5.2314   N.1       3 RES3   0.0000
@<TRIPOS>BOND
     1     1    44    1
     2     2     3   ar
     3     3     4   ar
     4     4     5    1
     5     6     4   ar
     6     7     6    1
     7     8     6   ar
     8     9     8    1
     9    10     2   ar
    10    11    10    1
    11    12     3    1
    12    13    12    1
    13    14    15   ar
    14    15    16   ar
    15    16    17    1
    16    18    16   ar
    17    19    18    1
    18    20    18   ar
    19    21    20    1
    20    22    14   ar
    21    23    22    1
    22    24    15    1
    23    25    24    1
    24    26    27    1
    25    28    26    1
    26    29    26    1
    27    30    29    1
    28    31    29    1
    29    32    33    1
    30    34    32    1
    31    35    32    1
    32    36    35    1
    33    37    35    1
    34    38    39    1
    35    40    38    1
    36    41    38    1
    37    42    41    1
    38    43    41    1
    39    44    12    2
    40    45     1    1
    41    46     1    1
    42    47    46    1
    43    48     1    1
    44    49    48    1
    45    50     1    1
    46    51     1    1
    47     2    50    1
    48     8    10   ar
    49    14    51    1
    50    20    22   ar
    51    24    45    2
    52    26    44    1
    53    29    46    1
    54    32    48    1
    55    35    45    1
    56    38    48    1
    57    41    46    1
    58    52    53    1
    59    53    54    1
    60    55    53    2
    61    56    55    1
    62    57    55    1
    63    58    57    1
    64    59    58    1
    65    60    52    1
    66    61    60    1
    67    62    52    2
    68    63    62    1
    69    64    62    1
    70    65    57    2
    71    66    65    1
    72    67    65    1
    73    68    63    3
    74    69    64    3
    75    70    66    3
    76    71    67    3
    77    58    60    2
    78    72    73    1
    79    73    74    1
    80    75    73    2
    81    76    75    1
    82    77    75    1
    83    78    77    1
    84    79    78    1
    85    80    72    1
    86    81    80    1
    87    82    72    2
    88    83    82    1
    89    84    82    1
    90    85    77    2
    91    86    85    1
    92    87    85    1
    93    88    83    3
    94    89    84    3
    95    90    86    3
    96    91    87    3
    97    78    80    2
@<TRIPOS>SUBSTRUCTURE
     1 RES1        1 GROUP             0 ****  ****    0  
     2 RES2       52 GROUP             0 ****  ****    0  
     3 RES3       72 GROUP             0 ****  ****    0  
@<TRIPOS>CRYSIN
    8.9120   12.8379   17.4233   91.4680   86.1520   82.2200     2     1
