@<TRIPOS>MOLECULE
CIWHAU03
    91    97     3     0     0
SMALL
USER_CHARGES
****
Generated from the CSD

@<TRIPOS>ATOM
     1 Fe1      5.2380   2.6784   7.3431   Fe        1 RES1   1.0000
     2 C1       3.2501   4.6093   6.6130   C.ar      1 RES1   0.0000
     3 C2       3.0496   4.0419   5.3339   C.ar      1 RES1   0.0000
     4 C3       2.0589   4.5782   4.4906   C.ar      1 RES1   0.0000
     5 H1       1.9434   4.2198   3.6400   H         1 RES1   0.0000
     6 C4       1.2724   5.6004   4.8880   C.ar      1 RES1   0.0000
     7 H2       0.6184   5.9348   4.3175   H         1 RES1   0.0000
     8 C5       1.4396   6.1499   6.1450   C.ar      1 RES1   0.0000
     9 H3       0.8993   6.8590   6.4106   H         1 RES1   0.0000
    10 C6       2.3983   5.6628   7.0150   C.ar      1 RES1   0.0000
    11 H4       2.4819   6.0282   7.8659   H         1 RES1   0.0000
    12 C7       3.8245   2.9354   4.8486   C.2       1 RES1   0.0000
    13 H5       3.6606   2.6446   3.9804   H         1 RES1   0.0000
    14 C8       3.2188   1.7733   9.1171   C.ar      1 RES1   0.0000
    15 C9       3.7666   2.4758  10.2211   C.ar      1 RES1   0.0000
    16 C10      2.9941   2.6258  11.3885   C.ar      1 RES1   0.0000
    17 H6       3.3573   3.0775  12.1156   H         1 RES1   0.0000
    18 C11      1.7238   2.1248  11.4840   C.ar      1 RES1   0.0000
    19 H7       1.2253   2.2465  12.2593   H         1 RES1   0.0000
    20 C12      1.1934   1.4320  10.4067   C.ar      1 RES1   0.0000
    21 H8       0.3321   1.0864  10.4627   H         1 RES1   0.0000
    22 C13      1.9245   1.2510   9.2566   C.ar      1 RES1   0.0000
    23 H9       1.5509   0.7699   8.5536   H         1 RES1   0.0000
    24 C14      5.0849   3.0489  10.1959   C.2       1 RES1   0.0000
    25 H10      5.4229   3.3865  10.9940   H         1 RES1   0.0000
    26 C15      5.4900   1.2084   4.8863   C.3       1 RES1   0.0000
    27 H11      6.2653   1.5567   4.4199   H         1 RES1   0.0000
    28 H12      4.9325   0.7348   4.2486   H         1 RES1   0.0000
    29 C16      5.9150   0.2887   5.9896   C.3       1 RES1   0.0000
    30 H13      5.1607  -0.2512   6.2742   H         1 RES1   0.0000
    31 H14      6.6095  -0.3078   5.6686   H         1 RES1   0.0000
    32 C17      7.2508   4.6234   7.9387   C.3       1 RES1   0.0000
    33 H15      6.6554   5.3890   7.9378   H         1 RES1   0.0000
    34 H16      8.1608   4.9441   7.8367   H         1 RES1   0.0000
    35 C18      7.1139   3.8626   9.2408   C.3       1 RES1   0.0000
    36 H17      7.8520   3.2434   9.3522   H         1 RES1   0.0000
    37 H18      7.1057   4.4750   9.9931   H         1 RES1   0.0000
    38 C19      8.0048   2.7934   6.4101   C.3       1 RES1   0.0000
    39 H19      8.8596   3.1805   6.6549   H         1 RES1   0.0000
    40 H20      7.9902   2.6810   5.4467   H         1 RES1   0.0000
    41 C20      7.8540   1.4523   7.0728   C.3       1 RES1   0.0000
    42 H21      8.3566   0.7856   6.5788   H         1 RES1   0.0000
    43 H22      8.2095   1.4920   7.9745   H         1 RES1   0.0000
    44 N1       4.7257   2.3147   5.5192   N.2       1 RES1   0.0000
    45 N2       5.8304   3.1295   9.1556   N.2       1 RES1   0.0000
    46 N3       6.4162   1.0653   7.1172   N.3       1 RES1   0.0000
    47 H23      6.2799   0.5055   7.9133   H         1 RES1   0.0000
    48 N4       6.9064   3.7122   6.8203   N.3       1 RES1   0.0000
    49 H24      6.6997   4.1815   6.1888   H         1 RES1   0.0000
    50 O1       4.1978   4.2337   7.4490   O.3       1 RES1   0.0000
    51 O2       3.8787   1.5478   7.9840   O.3       1 RES1   0.0000
    52 C21      7.9309   1.2314  16.0801   C.2       2 RES2   0.0000
    53 C22      9.3108   1.5671  15.8554   C.2       2 RES2   0.0000
    54 H25      9.5717   1.8858  15.0218   H         2 RES2   0.0000
    55 C23     10.2393   1.4288  16.8350   C.2       2 RES2   0.0000
    56 H26     11.1271   1.6401  16.6560   H         2 RES2   0.0000
    57 C24      9.8749   0.9618  18.1422   C.2       2 RES2   0.0000
    58 C25      8.4970   0.6325  18.3705   C.2       2 RES2   0.0000
    59 H27      8.2354   0.3207  19.2067   H         2 RES2   0.0000
    60 C26      7.5699   0.7667  17.3924   C.2       2 RES2   0.0000
    61 H28      6.6829   0.5542  17.5727   H         2 RES2   0.0000
    62 C27      6.9713   1.3504  15.0730   C.2       2 RES2   0.0000
    63 C28      5.5941   1.0001  15.2721   C.1       2 RES2   0.0000
    64 C29      7.2636   1.8015  13.7470   C.1       2 RES2   0.0000
    65 C30     10.8333   0.8178  19.1536   C.2       2 RES2  -1.0000
    66 C31     10.4847   0.3580  20.4688   C.1       2 RES2   0.0000
    67 C32     12.2180   1.1142  18.9733   C.1       2 RES2   0.0000
    68 N5       4.4915   0.7182  15.3728   N.1       2 RES2   0.0000
    69 N6       7.4300   2.1544  12.6724   N.1       2 RES2   0.0000
    70 N7      10.2274  -0.0094  21.5190   N.1       2 RES2   0.0000
    71 N8      13.3422   1.3277  18.8931   N.1       2 RES2   0.0000
    72 C33      6.8418   4.8119   0.0937   C.2       3 RES3   0.0000
    73 C34      5.4563   4.5226   0.3032   C.2       3 RES3   0.0000
    74 H29      5.1732   4.2170   1.1347   H         3 RES3   0.0000
    75 C35      4.5499   4.6871  -0.6928   C.2       3 RES3   0.0000
    76 H30      3.6551   4.4881  -0.5331   H         3 RES3   0.0000
    77 C36      4.9447   5.1619  -1.9867   C.2       3 RES3   0.0000
    78 C37      6.3328   5.4498  -2.1944   C.2       3 RES3   0.0000
    79 H31      6.6130   5.7706  -3.0211   H         3 RES3   0.0000
    80 C38      7.2481   5.2634  -1.2083   C.2       3 RES3   0.0000
    81 H32      8.1469   5.4299  -1.3776   H         3 RES3   0.0000
    82 C39      7.7783   4.6341   1.1273   C.2       3 RES3   0.0000
    83 C40      7.3606   4.1998   2.4256   C.1       3 RES3   0.0000
    84 C41      9.1807   4.8464   0.9645   C.1       3 RES3   0.0000
    85 C42      3.9869   5.3484  -2.9946   C.2       3 RES3   0.0000
    86 C43      2.6254   4.9610  -2.8195   C.1       3 RES3   0.0000
    87 C44      4.3151   5.9161  -4.2672   C.1       3 RES3   0.0000
    88 N9       7.0293   3.8466   3.4610   N.1       3 RES3   0.0000
    89 N10     10.3164   4.9671   0.8673   N.1       3 RES3   0.0000
    90 N11      1.5314   4.6338  -2.7024   N.1       3 RES3   0.0000
    91 N12      4.5519   6.3827  -5.2882   N.1       3 RES3   0.0000
@<TRIPOS>BOND
     1     1    44    1
     2     2     3   ar
     3     3     4   ar
     4     4     5    1
     5     6     4   ar
     6     7     6    1
     7     8     6   ar
     8     9     8    1
     9    10     2   ar
    10    11    10    1
    11    12     3    1
    12    13    12    1
    13    14    15   ar
    14    15    16   ar
    15    16    17    1
    16    18    16   ar
    17    19    18    1
    18    20    18   ar
    19    21    20    1
    20    22    14   ar
    21    23    22    1
    22    24    15    1
    23    25    24    1
    24    26    27    1
    25    28    26    1
    26    29    26    1
    27    30    29    1
    28    31    29    1
    29    32    33    1
    30    34    32    1
    31    35    32    1
    32    36    35    1
    33    37    35    1
    34    38    39    1
    35    40    38    1
    36    41    38    1
    37    42    41    1
    38    43    41    1
    39    44    12    2
    40    45     1    1
    41    46     1    1
    42    47    46    1
    43    48     1    1
    44    49    48    1
    45    50     1    1
    46    51     1    1
    47     2    50    1
    48     8    10   ar
    49    14    51    1
    50    20    22   ar
    51    24    45    2
    52    26    44    1
    53    29    46    1
    54    32    48    1
    55    35    45    1
    56    38    48    1
    57    41    46    1
    58    52    53    1
    59    53    54    1
    60    55    53    2
    61    56    55    1
    62    57    55    1
    63    58    57    1
    64    59    58    1
    65    60    52    1
    66    61    60    1
    67    62    52    2
    68    63    62    1
    69    64    62    1
    70    65    57    2
    71    66    65    1
    72    67    65    1
    73    68    63    3
    74    69    64    3
    75    70    66    3
    76    71    67    3
    77    58    60    2
    78    72    73    1
    79    73    74    1
    80    75    73    2
    81    76    75    1
    82    77    75    1
    83    78    77    1
    84    79    78    1
    85    80    72    1
    86    81    80    1
    87    82    72    2
    88    83    82    1
    89    84    82    1
    90    85    77    2
    91    86    85    1
    92    87    85    1
    93    88    83    3
    94    89    84    3
    95    90    86    3
    96    91    87    3
    97    78    80    2
@<TRIPOS>SUBSTRUCTURE
     1 RES1        1 GROUP             0 ****  ****    0  
     2 RES2       52 GROUP             0 ****  ****    0  
     3 RES3       72 GROUP             0 ****  ****    0  
@<TRIPOS>CRYSIN
    8.9230   12.9439   17.5498   91.4320   86.4970   82.4300     2     1
