@<TRIPOS>MOLECULE
CIWHAU04
    91    97     3     0     0
SMALL
USER_CHARGES
****
Generated from the CSD

@<TRIPOS>ATOM
     1 Fe1      5.2766   2.6588   7.3068   Fe        1 RES1   1.0000
     2 C1       3.2839   4.5594   6.5556   C.ar      1 RES1   0.0000
     3 C2       3.0959   3.9815   5.2875   C.ar      1 RES1   0.0000
     4 C3       2.1015   4.4969   4.4355   C.ar      1 RES1   0.0000
     5 H1       1.9903   4.1312   3.5880   H         1 RES1   0.0000
     6 C4       1.3012   5.5218   4.8315   C.ar      1 RES1   0.0000
     7 H2       0.6457   5.8490   4.2579   H         1 RES1   0.0000
     8 C5       1.4626   6.0713   6.0785   C.ar      1 RES1   0.0000
     9 H3       0.9144   6.7750   6.3414   H         1 RES1   0.0000
    10 C6       2.4213   5.5981   6.9481   C.ar      1 RES1   0.0000
    11 H4       2.4982   5.9674   7.7982   H         1 RES1   0.0000
    12 C7       3.8842   2.8840   4.8089   C.2       1 RES1   0.0000
    13 H5       3.7352   2.5916   3.9389   H         1 RES1   0.0000
    14 C8       3.2447   1.7756   9.0569   C.ar      1 RES1   0.0000
    15 C9       3.7791   2.4823  10.1575   C.ar      1 RES1   0.0000
    16 C10      3.0050   2.6361  11.3190   C.ar      1 RES1   0.0000
    17 H6       3.3666   3.0890  12.0463   H         1 RES1   0.0000
    18 C11      1.7373   2.1404  11.4104   C.ar      1 RES1   0.0000
    19 H7       1.2321   2.2718  12.1800   H         1 RES1   0.0000
    20 C12      1.2158   1.4371  10.3363   C.ar      1 RES1   0.0000
    21 H8       0.3562   1.0873  10.3916   H         1 RES1   0.0000
    22 C13      1.9500   1.2491   9.1912   C.ar      1 RES1   0.0000
    23 H9       1.5822   0.7624   8.4895   H         1 RES1   0.0000
    24 C14      5.0960   3.0555  10.1379   C.2       1 RES1   0.0000
    25 H10      5.4260   3.4029  10.9350   H         1 RES1   0.0000
    26 C15      5.5364   1.1712   4.8668   C.3       1 RES1   0.0000
    27 H11      6.3186   1.5144   4.4076   H         1 RES1   0.0000
    28 H12      4.9806   0.7034   4.2237   H         1 RES1   0.0000
    29 C16      5.9460   0.2441   5.9752   C.3       1 RES1   0.0000
    30 H13      5.1873  -0.2927   6.2534   H         1 RES1   0.0000
    31 H14      6.6442  -0.3531   5.6649   H         1 RES1   0.0000
    32 C17      7.2673   4.6026   7.8898   C.3       1 RES1   0.0000
    33 H15      6.6727   5.3687   7.8815   H         1 RES1   0.0000
    34 H16      8.1778   4.9217   7.7868   H         1 RES1   0.0000
    35 C18      7.1278   3.8558   9.1954   C.3       1 RES1   0.0000
    36 H17      7.8662   3.2381   9.3154   H         1 RES1   0.0000
    37 H18      7.1149   4.4743   9.9423   H         1 RES1   0.0000
    38 C19      8.0250   2.7661   6.3789   C.3       1 RES1   0.0000
    39 H19      8.8799   3.1580   6.6169   H         1 RES1   0.0000
    40 H20      8.0083   2.6410   5.4172   H         1 RES1   0.0000
    41 C20      7.8742   1.4304   7.0645   C.3       1 RES1   0.0000
    42 H21      8.3759   0.7562   6.5804   H         1 RES1   0.0000
    43 H22      8.2292   1.4836   7.9654   H         1 RES1   0.0000
    44 N1       4.7785   2.2789   5.4938   N.2       1 RES1   0.0000
    45 N2       5.8497   3.1241   9.1060   N.2       1 RES1   0.0000
    46 N3       6.4390   1.0460   7.1144   N.3       1 RES1   0.0000
    47 H23      6.3168   0.5532   7.8143   H         1 RES1   0.0000
    48 N4       6.9255   3.6867   6.7810   N.3       1 RES1   0.0000
    49 H24      6.7390   4.1465   6.1307   H         1 RES1   0.0000
    50 O1       4.2354   4.2064   7.4000   O.3       1 RES1   0.0000
    51 O2       3.9101   1.5377   7.9383   O.3       1 RES1   0.0000
    52 C21      7.9517   1.2139  15.9774   C.2       2 RES2   0.0000
    53 C22      9.3260   1.5468  15.7513   C.2       2 RES2   0.0000
    54 H25      9.5847   1.8670  14.9174   H         2 RES2   0.0000
    55 C23     10.2567   1.4060  16.7246   C.2       2 RES2   0.0000
    56 H26     11.1446   1.6164  16.5443   H         2 RES2   0.0000
    57 C24      9.8913   0.9357  18.0311   C.2       2 RES2   0.0000
    58 C25      8.5173   0.6093  18.2610   C.2       2 RES2   0.0000
    59 H27      8.2559   0.2962  19.0969   H         2 RES2   0.0000
    60 C26      7.5914   0.7478  17.2853   C.2       2 RES2   0.0000
    61 H28      6.7040   0.5367  17.4657   H         2 RES2   0.0000
    62 C27      6.9942   1.3360  14.9741   C.2       2 RES2   0.0000
    63 C28      5.6249   0.9861  15.1758   C.1       2 RES2   0.0000
    64 C29      7.2820   1.7851  13.6537   C.1       2 RES2   0.0000
    65 C30     10.8434   0.7849  19.0379   C.2       2 RES2  -1.0000
    66 C31     10.4953   0.3190  20.3427   C.1       2 RES2   0.0000
    67 C32     12.2238   1.0749  18.8570   C.1       2 RES2   0.0000
    68 N5       4.5214   0.7054  15.2793   N.1       2 RES2   0.0000
    69 N6       7.4455   2.1370  12.5785   N.1       2 RES2   0.0000
    70 N7      10.2298  -0.0562  21.3905   N.1       2 RES2   0.0000
    71 N8      13.3481   1.2859  18.7784   N.1       2 RES2   0.0000
    72 C33      6.8298   4.7798   0.0981   C.2       3 RES3   0.0000
    73 C34      5.4469   4.4937   0.3132   C.2       3 RES3   0.0000
    74 H29      5.1666   4.1896   1.1463   H         3 RES3   0.0000
    75 C35      4.5378   4.6580  -0.6755   C.2       3 RES3   0.0000
    76 H30      3.6443   4.4561  -0.5136   H         3 RES3   0.0000
    77 C36      4.9261   5.1359  -1.9618   C.2       3 RES3   0.0000
    78 C37      6.3087   5.4206  -2.1794   C.2       3 RES3   0.0000
    79 H31      6.5833   5.7412  -3.0079   H         3 RES3   0.0000
    80 C38      7.2270   5.2325  -1.2021   C.2       3 RES3   0.0000
    81 H32      8.1257   5.3987  -1.3767   H         3 RES3   0.0000
    82 C39      7.7640   4.5988   1.1235   C.2       3 RES3   0.0000
    83 C40      7.3538   4.1585   2.4192   C.1       3 RES3   0.0000
    84 C41      9.1609   4.8118   0.9585   C.1       3 RES3   0.0000
    85 C42      3.9660   5.3234  -2.9633   C.2       3 RES3   0.0000
    86 C43      2.6068   4.9355  -2.7857   C.1       3 RES3   0.0000
    87 C44      4.2903   5.8962  -4.2285   C.1       3 RES3   0.0000
    88 N9       7.0285   3.8007   3.4549   N.1       3 RES3   0.0000
    89 N10     10.2949   4.9326   0.8625   N.1       3 RES3   0.0000
    90 N11      1.5164   4.6077  -2.6709   N.1       3 RES3   0.0000
    91 N12      4.5201   6.3678  -5.2470   N.1       3 RES3   0.0000
@<TRIPOS>BOND
     1     1    44    1
     2     2     3   ar
     3     3     4   ar
     4     4     5    1
     5     6     4   ar
     6     7     6    1
     7     8     6   ar
     8     9     8    1
     9    10     2   ar
    10    11    10    1
    11    12     3    1
    12    13    12    1
    13    14    15   ar
    14    15    16   ar
    15    16    17    1
    16    18    16   ar
    17    19    18    1
    18    20    18   ar
    19    21    20    1
    20    22    14   ar
    21    23    22    1
    22    24    15    1
    23    25    24    1
    24    26    27    1
    25    28    26    1
    26    29    26    1
    27    30    29    1
    28    31    29    1
    29    32    33    1
    30    34    32    1
    31    35    32    1
    32    36    35    1
    33    37    35    1
    34    38    39    1
    35    40    38    1
    36    41    38    1
    37    42    41    1
    38    43    41    1
    39    44    12    2
    40    45     1    1
    41    46     1    1
    42    47    46    1
    43    48     1    1
    44    49    48    1
    45    50     1    1
    46    51     1    1
    47     2    50    1
    48     8    10   ar
    49    14    51    1
    50    20    22   ar
    51    24    45    2
    52    26    44    1
    53    29    46    1
    54    32    48    1
    55    35    45    1
    56    38    48    1
    57    41    46    1
    58    52    53    1
    59    53    54    1
    60    55    53    2
    61    56    55    1
    62    57    55    1
    63    58    57    1
    64    59    58    1
    65    60    52    1
    66    61    60    1
    67    62    52    2
    68    63    62    1
    69    64    62    1
    70    65    57    2
    71    66    65    1
    72    67    65    1
    73    68    63    3
    74    69    64    3
    75    70    66    3
    76    71    67    3
    77    58    60    2
    78    72    73    1
    79    73    74    1
    80    75    73    2
    81    76    75    1
    82    77    75    1
    83    78    77    1
    84    79    78    1
    85    80    72    1
    86    81    80    1
    87    82    72    2
    88    83    82    1
    89    84    82    1
    90    85    77    2
    91    86    85    1
    92    87    85    1
    93    88    83    3
    94    89    84    3
    95    90    86    3
    96    91    87    3
    97    78    80    2
@<TRIPOS>SUBSTRUCTURE
     1 RES1        1 GROUP             0 ****  ****    0  
     2 RES2       52 GROUP             0 ****  ****    0  
     3 RES3       72 GROUP             0 ****  ****    0  
@<TRIPOS>CRYSIN
    8.8950   12.8594   17.4386   91.4640   86.3120   82.3100     2     1
