@<TRIPOS>MOLECULE
CIWJEA01
    77    82     3     0     0
SMALL
USER_CHARGES
****
Generated from the CSD

@<TRIPOS>ATOM
     1 Fe1     10.8586  16.7232  11.6451   Fe        1 RES1   1.0000
     2 N1      11.2924  15.1887  10.5644   N.2       1 RES1   0.0000
     3 O1       9.8648  15.7148  12.8752   O.3       1 RES1   0.0000
     4 C1       9.8791  14.4082  13.0114   C.ar      1 RES1   0.0000
     5 O2      12.5146  16.4982  12.4986   O.3       1 RES1   0.0000
     6 N2      11.7870  17.7515  10.2009   N.3       1 RES1   0.0000
     7 H1      12.2549  18.3449  10.5594   H         1 RES1   0.0000
     8 C2      10.4765  13.5125  12.0956   C.ar      1 RES1   0.0000
     9 C3      10.4056  12.1253  12.3344   C.ar      1 RES1   0.0000
    10 H2      10.7956  11.5334  11.7168   H         1 RES1   0.0000
    11 N3       9.1907  17.1621  10.6233   N.3       1 RES1   0.0000
    12 H3       8.7258  16.4199  10.5254   H         1 RES1   0.0000
    13 N4      10.3861  18.2599  12.7093   N.2       1 RES1   0.0000
    14 C4       9.7829  11.6178  13.4450   C.ar      1 RES1   0.0000
    15 H4       9.7531  10.6902  13.5946   H         1 RES1   0.0000
    16 C5       9.1952  12.4975  14.3456   C.ar      1 RES1   0.0000
    17 H5       8.7706  12.1579  15.1122   H         1 RES1   0.0000
    18 C6       9.2244  13.8557  14.1359   C.ar      1 RES1   0.0000
    19 H6       8.8020  14.4271  14.7511   H         1 RES1   0.0000
    20 C7      11.1220  13.9611  10.8976   C.2       1 RES1   0.0000
    21 H7      11.4464  13.3040  10.3088   H         1 RES1   0.0000
    22 C8      11.9650  15.4957   9.2926   C.3       1 RES1   0.0000
    23 H8      11.3087  15.5723   8.5687   H         1 RES1   0.0000
    24 H9      12.6026  14.7878   9.0634   H         1 RES1   0.0000
    25 C9      12.6848  16.8089   9.4931   C.3       1 RES1   0.0000
    26 H10     13.4984  16.6653  10.0197   H         1 RES1   0.0000
    27 H11     12.9422  17.1831   8.6248   H         1 RES1   0.0000
    28 C10     10.8181  18.4776   9.3453   C.3       1 RES1   0.0000
    29 H12     11.1872  18.5838   8.4437   H         1 RES1   0.0000
    30 H13     10.6534  19.3700   9.7156   H         1 RES1   0.0000
    31 C11      9.5190  17.7059   9.2771   C.3       1 RES1   0.0000
    32 H14      8.7981  18.2965   8.9737   H         1 RES1   0.0000
    33 H15      9.6036  16.9708   8.6346   H         1 RES1   0.0000
    34 C12      8.3389  18.0339  11.4646   C.3       1 RES1   0.0000
    35 H16      7.8247  17.4873  12.0949   H         1 RES1   0.0000
    36 H17      7.7074  18.5262  10.8994   H         1 RES1   0.0000
    37 C13      9.2132  19.0074  12.2248   C.3       1 RES1   0.0000
    38 H18      9.4963  19.7388  11.6372   H         1 RES1   0.0000
    39 H19      8.7185  19.3887  12.9800   H         1 RES1   0.0000
    40 C14     10.9290  18.5788  13.8273   C.2       1 RES1   0.0000
    41 H20     10.5159  19.2543  14.3342   H         1 RES1   0.0000
    42 C15     12.1193  17.9807  14.3617   C.ar      1 RES1   0.0000
    43 C16     12.8737  17.0197  13.6536   C.ar      1 RES1   0.0000
    44 C17     14.0982  16.6000  14.2057   C.ar      1 RES1   0.0000
    45 H21     14.6363  15.9894  13.7349   H         1 RES1   0.0000
    46 C18     14.5188  17.0774  15.4340   C.ar      1 RES1   0.0000
    47 H22     15.3386  16.7832  15.7874   H         1 RES1   0.0000
    48 C19     13.7519  17.9824  16.1542   C.ar      1 RES1   0.0000
    49 H23     14.0336  18.2791  17.0006   H         1 RES1   0.0000
    50 C20     12.5824  18.4355  15.6144   C.ar      1 RES1   0.0000
    51 H24     12.0727  19.0664  16.0896   H         1 RES1   0.0000
    52 N5       5.6652  12.7361   7.6005   N.1       2 RES2   0.0000
    53 N6       9.4512  14.7998   6.9985   N.1       2 RES2   0.0000
    54 N7      13.5413   8.4018  10.5080   N.1       2 RES2   0.0000
    55 N8       9.8059   6.2727  10.9842   N.1       2 RES2   0.0000
    56 C21      8.9131  11.5661   8.2722   C.2       2 RES2   0.0000
    57 C22      8.2229  10.4543   8.8302   C.2       2 RES2   0.0000
    58 H25      7.2836  10.4337   8.8020   H         2 RES2   0.0000
    59 C23      8.8966   9.4191   9.4046   C.2       2 RES2   0.0000
    60 H26      8.4135   8.6979   9.7654   H         2 RES2   0.0000
    61 C24     10.3144   9.4095   9.4683   C.2       2 RES2   0.0000
    62 C25     11.0040  10.5137   8.9035   C.2       2 RES2   0.0000
    63 H27     11.9435  10.5309   8.9266   H         2 RES2   0.0000
    64 C26     10.3282  11.5529   8.3264   C.2       2 RES2   0.0000
    65 H28     10.8112  12.2709   7.9594   H         2 RES2   0.0000
    66 C27      8.2215  12.6569   7.6937   C.2       2 RES2  -1.0000
    67 C28      6.8096  12.7001   7.6329   C.1       2 RES2   0.0000
    68 C29      8.9029  13.8354   7.2950   C.1       2 RES2   0.0000
    69 C30     11.0173   8.3360  10.0731   C.2       2 RES2   0.0000
    70 C31     10.3425   7.2021  10.5751   C.1       2 RES2   0.0000
    71 C32     12.4152   8.3742  10.2965   C.1       2 RES2   0.0000
    72 C33     14.8116  13.6593  11.0195   C.1       3 RES3   0.0000
    73 N9      15.1665  14.6175  10.5467   N.1       3 RES3   0.0000
    74 C34     14.3627  12.4146  11.6183   C.3       3 RES3   0.0000
    75 H29     13.9483  11.8598  10.9388   H         3 RES3   0.0000
    76 H30     13.7171  12.6060  12.3167   H         3 RES3   0.0000
    77 H31     15.1218  11.9464  11.9993   H         3 RES3   0.0000
@<TRIPOS>BOND
     1     1     2    1
     2     2    20    2
     3     3     1    1
     4     4     3    1
     5     5     1    1
     6     6     1    1
     7     7     6    1
     8     8     4   ar
     9     9     8   ar
    10    10     9    1
    11    11     1    1
    12    12    11    1
    13    13     1    1
    14    14     9   ar
    15    15    14    1
    16    16    14   ar
    17    17    16    1
    18    18     4   ar
    19    19    18    1
    20    20     8    1
    21    21    20    1
    22    22     2    1
    23    23    22    1
    24    24    22    1
    25    25     6    1
    26    26    25    1
    27    27    25    1
    28    28     6    1
    29    29    28    1
    30    30    28    1
    31    31    11    1
    32    32    31    1
    33    33    31    1
    34    34    11    1
    35    35    34    1
    36    36    34    1
    37    37    13    1
    38    38    37    1
    39    39    37    1
    40    40    13    2
    41    41    40    1
    42    42    40    1
    43    43     5    1
    44    44    43   ar
    45    45    44    1
    46    46    44   ar
    47    47    46    1
    48    48    46   ar
    49    49    48    1
    50    50    42   ar
    51    51    50    1
    52    16    18   ar
    53    22    25    1
    54    28    31    1
    55    34    37    1
    56    42    43   ar
    57    48    50   ar
    58    52    67    3
    59    53    68    3
    60    54    71    3
    61    55    70    3
    62    56    57    1
    63    57    58    1
    64    59    57    2
    65    60    59    1
    66    61    59    1
    67    62    61    1
    68    63    62    1
    69    64    56    1
    70    65    64    1
    71    66    56    2
    72    67    66    1
    73    68    66    1
    74    69    61    2
    75    70    69    1
    76    71    69    1
    77    62    64    2
    78    72    73    3
    79    74    72    1
    80    75    74    1
    81    76    74    1
    82    77    74    1
@<TRIPOS>SUBSTRUCTURE
     1 RES1        1 GROUP             0 ****  ****    0  
     2 RES2       52 GROUP             0 ****  ****    0  
     3 RES3       72 GROUP             0 ****  ****    0  
@<TRIPOS>CRYSIN
    7.6695   14.3596   16.0693   66.9390   84.8700   76.0890     2     1
