@<TRIPOS>MOLECULE
CIWJEA03
    77    82     3     0     0
SMALL
USER_CHARGES
****
Generated from the CSD

@<TRIPOS>ATOM
     1 Fe1     10.9704  16.8319  11.7544   Fe        1 RES1   1.0000
     2 N1      11.4002  15.2961  10.6541   N.2       1 RES1   0.0000
     3 O1       9.9811  15.8059  12.9725   O.3       1 RES1   0.0000
     4 C1       9.9923  14.4942  13.0978   C.ar      1 RES1   0.0000
     5 O2      12.6321  16.6123  12.6019   O.3       1 RES1   0.0000
     6 N2      11.8863  17.8587  10.2899   N.3       1 RES1   0.0000
     7 H1      12.3146  18.4764  10.6223   H         1 RES1   0.0000
     8 C2      10.5811  13.6115  12.1704   C.ar      1 RES1   0.0000
     9 C3      10.5015  12.2252  12.3990   C.ar      1 RES1   0.0000
    10 H2      10.8788  11.6417  11.7809   H         1 RES1   0.0000
    11 N3       9.2932  17.2946  10.7357   N.3       1 RES1   0.0000
    12 H3       8.7991  16.5644  10.6343   H         1 RES1   0.0000
    13 N4      10.4972  18.3578  12.8263   N.2       1 RES1   0.0000
    14 C4       9.8852  11.7154  13.5053   C.ar      1 RES1   0.0000
    15 H4       9.8593  10.7968  13.6479   H         1 RES1   0.0000
    16 C5       9.2994  12.5814  14.4119   C.ar      1 RES1   0.0000
    17 H5       8.8758  12.2394  15.1660   H         1 RES1   0.0000
    18 C6       9.3356  13.9370  14.2121   C.ar      1 RES1   0.0000
    19 H6       8.9180  14.4995  14.8240   H         1 RES1   0.0000
    20 C7      11.2243  14.0690  10.9745   C.2       1 RES1   0.0000
    21 H7      11.5396  13.4232  10.3841   H         1 RES1   0.0000
    22 C8      12.0681  15.6109   9.3792   C.3       1 RES1   0.0000
    23 H8      11.4162  15.6848   8.6650   H         1 RES1   0.0000
    24 H9      12.7020  14.9135   9.1486   H         1 RES1   0.0000
    25 C9      12.7814  16.9231   9.5763   C.3       1 RES1   0.0000
    26 H10     13.5910  16.7838  10.0921   H         1 RES1   0.0000
    27 H11     13.0293  17.2959   8.7158   H         1 RES1   0.0000
    28 C10     10.9137  18.5862   9.4423   C.3       1 RES1   0.0000
    29 H12     11.2694  18.6822   8.5448   H         1 RES1   0.0000
    30 H13     10.7626  19.4730   9.8049   H         1 RES1   0.0000
    31 C11      9.6196  17.8296   9.3963   C.3       1 RES1   0.0000
    32 H14      8.9084  18.4186   9.0988   H         1 RES1   0.0000
    33 H15      9.6914  17.0990   8.7624   H         1 RES1   0.0000
    34 C12      8.4555  18.1442  11.5875   C.3       1 RES1   0.0000
    35 H16      7.9515  17.5907  12.2044   H         1 RES1   0.0000
    36 H17      7.8246  18.6350  11.0378   H         1 RES1   0.0000
    37 C13      9.3043  19.1031  12.3534   C.3       1 RES1   0.0000
    38 H18      9.5732  19.8415  11.7849   H         1 RES1   0.0000
    39 H19      8.8101  19.4597  13.1083   H         1 RES1   0.0000
    40 C14     11.0443  18.6618  13.9413   C.2       1 RES1   0.0000
    41 H20     10.6321  19.3218  14.4504   H         1 RES1   0.0000
    42 C15     12.2384  18.0740  14.4749   C.ar      1 RES1   0.0000
    43 C16     12.9917  17.1187  13.7563   C.ar      1 RES1   0.0000
    44 C17     14.2095  16.6941  14.3029   C.ar      1 RES1   0.0000
    45 H21     14.7403  16.0920  13.8331   H         1 RES1   0.0000
    46 C18     14.6304  17.1611  15.5322   C.ar      1 RES1   0.0000
    47 H22     15.4413  16.8680  15.8803   H         1 RES1   0.0000
    48 C19     13.8623  18.0605  16.2554   C.ar      1 RES1   0.0000
    49 H23     14.1402  18.3487  17.0946   H         1 RES1   0.0000
    50 C20     12.7062  18.5098  15.7261   C.ar      1 RES1   0.0000
    51 H24     12.2031  19.1284  16.2044   H         1 RES1   0.0000
    52 N5       5.7580  12.7942   7.6923   N.1       2 RES2   0.0000
    53 N6       9.5249  14.8688   7.0889   N.1       2 RES2   0.0000
    54 N7      13.6397   8.4734  10.5662   N.1       2 RES2   0.0000
    55 N8       9.9196   6.3384  11.0470   N.1       2 RES2   0.0000
    56 C21      9.0046  11.6256   8.3427   C.2       2 RES2   0.0000
    57 C22      8.3332  10.5078   8.8914   C.2       2 RES2   0.0000
    58 H25      7.4042  10.4804   8.8595   H         2 RES2   0.0000
    59 C23      8.9982   9.4801   9.4601   C.2       2 RES2   0.0000
    60 H26      8.5196   8.7657   9.8141   H         2 RES2   0.0000
    61 C24     10.4186   9.4713   9.5266   C.2       2 RES2   0.0000
    62 C25     11.0947  10.5800   8.9709   C.2       2 RES2   0.0000
    63 H27     12.0241  10.6028   8.9991   H         2 RES2   0.0000
    64 C26     10.4261  11.6149   8.3962   C.2       2 RES2   0.0000
    65 H28     10.9041  12.3252   8.0332   H         2 RES2   0.0000
    66 C27      8.3144  12.7227   7.7705   C.2       2 RES2  -1.0000
    67 C28      6.8970  12.7625   7.7163   C.1       2 RES2   0.0000
    68 C29      8.9855  13.9018   7.3776   C.1       2 RES2   0.0000
    69 C30     11.1187   8.4026  10.1365   C.2       2 RES2   0.0000
    70 C31     10.4548   7.2644  10.6395   C.1       2 RES2   0.0000
    71 C32     12.5218   8.4460  10.3613   C.1       2 RES2   0.0000
    72 C33     14.9520  13.7775  11.1092   C.1       3 RES3   0.0000
    73 N9      15.3135  14.7400  10.6417   N.1       3 RES3   0.0000
    74 C34     14.5112  12.5252  11.6795   C.3       3 RES3   0.0000
    75 H29     13.9209  12.0834  11.0651   H         3 RES3   0.0000
    76 H30     14.0477  12.6933  12.5037   H         3 RES3   0.0000
    77 H31     15.2727  11.9654  11.8501   H         3 RES3   0.0000
@<TRIPOS>BOND
     1     1     2    1
     2     2    20    2
     3     3     1    1
     4     4     3    1
     5     5     1    1
     6     6     1    1
     7     7     6    1
     8     8     4   ar
     9     9     8   ar
    10    10     9    1
    11    11     1    1
    12    12    11    1
    13    13     1    1
    14    14     9   ar
    15    15    14    1
    16    16    14   ar
    17    17    16    1
    18    18     4   ar
    19    19    18    1
    20    20     8    1
    21    21    20    1
    22    22     2    1
    23    23    22    1
    24    24    22    1
    25    25     6    1
    26    26    25    1
    27    27    25    1
    28    28     6    1
    29    29    28    1
    30    30    28    1
    31    31    11    1
    32    32    31    1
    33    33    31    1
    34    34    11    1
    35    35    34    1
    36    36    34    1
    37    37    13    1
    38    38    37    1
    39    39    37    1
    40    40    13    2
    41    41    40    1
    42    42    40    1
    43    43     5    1
    44    44    43   ar
    45    45    44    1
    46    46    44   ar
    47    47    46    1
    48    48    46   ar
    49    49    48    1
    50    50    42   ar
    51    51    50    1
    52    16    18   ar
    53    22    25    1
    54    28    31    1
    55    34    37    1
    56    42    43   ar
    57    48    50   ar
    58    52    67    3
    59    53    68    3
    60    54    71    3
    61    55    70    3
    62    56    57    1
    63    57    58    1
    64    59    57    2
    65    60    59    1
    66    61    59    1
    67    62    61    1
    68    63    62    1
    69    64    56    1
    70    65    64    1
    71    66    56    2
    72    67    66    1
    73    68    66    1
    74    69    61    2
    75    70    69    1
    76    71    69    1
    77    62    64    2
    78    72    73    3
    79    74    72    1
    80    75    74    1
    81    76    74    1
    82    77    74    1
@<TRIPOS>SUBSTRUCTURE
     1 RES1        1 GROUP             0 ****  ****    0  
     2 RES2       52 GROUP             0 ****  ****    0  
     3 RES3       72 GROUP             0 ****  ****    0  
@<TRIPOS>CRYSIN
    7.7295   14.4016   16.1913   66.8720   84.8310   75.9690     2     1
