@<TRIPOS>MOLECULE
CIWJEA02
    77    82     3     0     0
SMALL
USER_CHARGES
****
Generated from the CSD

@<TRIPOS>ATOM
     1 Fe1     10.9484  16.7959  11.7063   Fe        1 RES1   1.0000
     2 N1      11.3750  15.2639  10.6141   N.2       1 RES1   0.0000
     3 O1       9.9565  15.7780  12.9312   O.3       1 RES1   0.0000
     4 C1       9.9673  14.4701  13.0572   C.ar      1 RES1   0.0000
     5 O2      12.6041  16.5715  12.5540   O.3       1 RES1   0.0000
     6 N2      11.8693  17.8244  10.2531   N.3       1 RES1   0.0000
     7 H1      12.3279  18.4393  10.6001   H         1 RES1   0.0000
     8 C2      10.5584  13.5844  12.1363   C.ar      1 RES1   0.0000
     9 C3      10.4826  12.1958  12.3679   C.ar      1 RES1   0.0000
    10 H2      10.8635  11.6122  11.7518   H         1 RES1   0.0000
    11 N3       9.2760  17.2503  10.6912   N.3       1 RES1   0.0000
    12 H3       8.8354  16.5207  10.5853   H         1 RES1   0.0000
    13 N4      10.4765  18.3242  12.7792   N.2       1 RES1   0.0000
    14 C4       9.8660  11.6868  13.4727   C.ar      1 RES1   0.0000
    15 H4       9.8392  10.7686  13.6178   H         1 RES1   0.0000
    16 C5       9.2807  12.5588  14.3746   C.ar      1 RES1   0.0000
    17 H5       8.8550  12.2177  15.1280   H         1 RES1   0.0000
    18 C6       9.3157  13.9139  14.1791   C.ar      1 RES1   0.0000
    19 H6       8.9041  14.4763  14.7948   H         1 RES1   0.0000
    20 C7      11.2014  14.0366  10.9399   C.2       1 RES1   0.0000
    21 H7      11.5175  13.3885  10.3526   H         1 RES1   0.0000
    22 C8      12.0452  15.5784   9.3422   C.3       1 RES1   0.0000
    23 H8      11.3938  15.6558   8.6274   H         1 RES1   0.0000
    24 H9      12.6767  14.8796   9.1112   H         1 RES1   0.0000
    25 C9      12.7612  16.8878   9.5434   C.3       1 RES1   0.0000
    26 H10     13.5686  16.7452  10.0619   H         1 RES1   0.0000
    27 H11     13.0136  17.2605   8.6841   H         1 RES1   0.0000
    28 C10     10.8943  18.5571   9.4052   C.3       1 RES1   0.0000
    29 H12     11.2541  18.6651   8.5108   H         1 RES1   0.0000
    30 H13     10.7348  19.4389   9.7765   H         1 RES1   0.0000
    31 C11      9.6005  17.7882   9.3443   C.3       1 RES1   0.0000
    32 H14      8.8863  18.3718   9.0436   H         1 RES1   0.0000
    33 H15      9.6824  17.0582   8.7109   H         1 RES1   0.0000
    34 C12      8.4307  18.1075  11.5405   C.3       1 RES1   0.0000
    35 H16      7.9265  17.5591  12.1616   H         1 RES1   0.0000
    36 H17      7.8016  18.5980  10.9887   H         1 RES1   0.0000
    37 C13      9.2973  19.0683  12.2993   C.3       1 RES1   0.0000
    38 H18      9.5738  19.7972  11.7221   H         1 RES1   0.0000
    39 H19      8.8076  19.4395  13.0499   H         1 RES1   0.0000
    40 C14     11.0271  18.6356  13.8947   C.2       1 RES1   0.0000
    41 H20     10.6212  19.3021  14.4005   H         1 RES1   0.0000
    42 C15     12.2183  18.0398  14.4254   C.ar      1 RES1   0.0000
    43 C16     12.9695  17.0831  13.7089   C.ar      1 RES1   0.0000
    44 C17     14.1899  16.6603  14.2541   C.ar      1 RES1   0.0000
    45 H21     14.7205  16.0575  13.7850   H         1 RES1   0.0000
    46 C18     14.6116  17.1329  15.4850   C.ar      1 RES1   0.0000
    47 H22     15.4228  16.8408  15.8334   H         1 RES1   0.0000
    48 C19     13.8478  18.0299  16.2034   C.ar      1 RES1   0.0000
    49 H23     14.1290  18.3178  17.0420   H         1 RES1   0.0000
    50 C20     12.6842  18.4893  15.6778   C.ar      1 RES1   0.0000
    51 H24     12.1840  19.1130  16.1530   H         1 RES1   0.0000
    52 N5       5.7386  12.7768   7.6644   N.1       2 RES2   0.0000
    53 N6       9.5104  14.8413   7.0565   N.1       2 RES2   0.0000
    54 N7      13.6165   8.4404  10.5392   N.1       2 RES2   0.0000
    55 N8       9.8925   6.3177  11.0226   N.1       2 RES2   0.0000
    56 C21      8.9867  11.6047   8.3158   C.2       2 RES2   0.0000
    57 C22      8.3064  10.4909   8.8675   C.2       2 RES2   0.0000
    58 H25      7.3768  10.4668   8.8383   H         2 RES2   0.0000
    59 C23      8.9789   9.4578   9.4383   C.2       2 RES2   0.0000
    60 H26      8.5013   8.7428   9.7928   H         2 RES2   0.0000
    61 C24     10.3930   9.4494   9.5034   C.2       2 RES2   0.0000
    62 C25     11.0761  10.5563   8.9419   C.2       2 RES2   0.0000
    63 H27     12.0056  10.5774   8.9668   H         2 RES2   0.0000
    64 C26     10.4014  11.5904   8.3664   C.2       2 RES2   0.0000
    65 H28     10.8786  12.2997   8.0002   H         2 RES2   0.0000
    66 C27      8.2929  12.6986   7.7444   C.2       2 RES2  -1.0000
    67 C28      6.8808  12.7401   7.6886   C.1       2 RES2   0.0000
    68 C29      8.9660  13.8770   7.3506   C.1       2 RES2   0.0000
    69 C30     11.0985   8.3793  10.1107   C.2       2 RES2   0.0000
    70 C31     10.4277   7.2460  10.6106   C.1       2 RES2   0.0000
    71 C32     12.4946   8.4158  10.3319   C.1       2 RES2   0.0000
    72 C33     14.9156  13.7432  11.0662   C.1       3 RES3   0.0000
    73 N9      15.2754  14.6994  10.6074   N.1       3 RES3   0.0000
    74 C34     14.4704  12.4935  11.6496   C.3       3 RES3   0.0000
    75 H29     13.9365  12.0145  11.0108   H         3 RES3   0.0000
    76 H30     13.9455  12.6746  12.4327   H         3 RES3   0.0000
    77 H31     15.2328  11.9627  11.8908   H         3 RES3   0.0000
@<TRIPOS>BOND
     1     1     2    1
     2     2    20    2
     3     3     1    1
     4     4     3    1
     5     5     1    1
     6     6     1    1
     7     7     6    1
     8     8     4   ar
     9     9     8   ar
    10    10     9    1
    11    11     1    1
    12    12    11    1
    13    13     1    1
    14    14     9   ar
    15    15    14    1
    16    16    14   ar
    17    17    16    1
    18    18     4   ar
    19    19    18    1
    20    20     8    1
    21    21    20    1
    22    22     2    1
    23    23    22    1
    24    24    22    1
    25    25     6    1
    26    26    25    1
    27    27    25    1
    28    28     6    1
    29    29    28    1
    30    30    28    1
    31    31    11    1
    32    32    31    1
    33    33    31    1
    34    34    11    1
    35    35    34    1
    36    36    34    1
    37    37    13    1
    38    38    37    1
    39    39    37    1
    40    40    13    2
    41    41    40    1
    42    42    40    1
    43    43     5    1
    44    44    43   ar
    45    45    44    1
    46    46    44   ar
    47    47    46    1
    48    48    46   ar
    49    49    48    1
    50    50    42   ar
    51    51    50    1
    52    16    18   ar
    53    22    25    1
    54    28    31    1
    55    34    37    1
    56    42    43   ar
    57    48    50   ar
    58    52    67    3
    59    53    68    3
    60    54    71    3
    61    55    70    3
    62    56    57    1
    63    57    58    1
    64    59    57    2
    65    60    59    1
    66    61    59    1
    67    62    61    1
    68    63    62    1
    69    64    56    1
    70    65    64    1
    71    66    56    2
    72    67    66    1
    73    68    66    1
    74    69    61    2
    75    70    69    1
    76    71    69    1
    77    62    64    2
    78    72    73    3
    79    74    72    1
    80    75    74    1
    81    76    74    1
    82    77    74    1
@<TRIPOS>SUBSTRUCTURE
     1 RES1        1 GROUP             0 ****  ****    0  
     2 RES2       52 GROUP             0 ****  ****    0  
     3 RES3       72 GROUP             0 ****  ****    0  
@<TRIPOS>CRYSIN
    7.7072   14.3879   16.1428   66.8610   84.7860   75.9800     2     1
