@<TRIPOS>MOLECULE
CIWJEA
    77    82     3     0     0
SMALL
USER_CHARGES
****
Generated from the CSD

@<TRIPOS>ATOM
     1 Fe1     -1.6769  -3.3405  -3.1701   Fe        1 RES1   1.0000
     2 N1      -1.2333  -4.8929  -4.2235   N.2       1 RES1   0.0000
     3 O1      -2.6824  -4.3348  -1.9304   O.3       1 RES1   0.0000
     4 C1      -2.6583  -5.6421  -1.7644   C.ar      1 RES1   0.0000
     5 O2      -0.0218  -3.5522  -2.3066   O.3       1 RES1   0.0000
     6 N2      -0.7327  -2.3277  -4.6205   N.3       1 RES1   0.0000
     7 H1      -0.2226  -1.7617  -4.2267   H         1 RES1   0.0000
     8 C2      -2.0410  -6.5549  -2.6665   C.ar      1 RES1   0.0000
     9 C3      -2.0956  -7.9395  -2.4025   C.ar      1 RES1   0.0000
    10 H2      -1.6877  -8.5433  -3.0113   H         1 RES1   0.0000
    11 N3      -3.3419  -2.9118  -4.2069   N.3       1 RES1   0.0000
    12 H3      -3.8098  -3.6515  -4.3363   H         1 RES1   0.0000
    13 N4      -2.1624  -1.7883  -2.1233   N.2       1 RES1   0.0000
    14 C4      -2.7233  -8.4371  -1.2882   C.ar      1 RES1   0.0000
    15 H4      -2.7468  -9.3719  -1.1222   H         1 RES1   0.0000
    16 C5      -3.3289  -7.5363  -0.3997   C.ar      1 RES1   0.0000
    17 H5      -3.7566  -7.8676   0.3820   H         1 RES1   0.0000
    18 C6      -3.3162  -6.1823  -0.6393   C.ar      1 RES1   0.0000
    19 H6      -3.7586  -5.5985  -0.0341   H         1 RES1   0.0000
    20 C7      -1.3895  -6.1177  -3.8719   C.2       1 RES1   0.0000
    21 H7      -1.0482  -6.7879  -4.4532   H         1 RES1   0.0000
    22 C8      -0.5559  -4.6005  -5.4993   C.3       1 RES1   0.0000
    23 H8      -1.2181  -4.5284  -6.2327   H         1 RES1   0.0000
    24 H9       0.0855  -5.3200  -5.7220   H         1 RES1   0.0000
    25 C9       0.1686  -3.2879  -5.3134   C.3       1 RES1   0.0000
    26 H10      0.9877  -3.4295  -4.7745   H         1 RES1   0.0000
    27 H11      0.4355  -2.9226  -6.1943   H         1 RES1   0.0000
    28 C10     -1.7028  -1.6092  -5.4933   C.3       1 RES1   0.0000
    29 H12     -1.3240  -1.5097  -6.4030   H         1 RES1   0.0000
    30 H13     -1.8749  -0.7055  -5.1283   H         1 RES1   0.0000
    31 C11     -3.0023  -2.3906  -5.5624   C.3       1 RES1   0.0000
    32 H14     -3.7291  -1.8031  -5.8878   H         1 RES1   0.0000
    33 H15     -2.9062  -3.1442  -6.1972   H         1 RES1   0.0000
    34 C12     -4.2012  -2.0232  -3.3780   C.3       1 RES1   0.0000
    35 H16     -4.7262  -2.5663  -2.7374   H         1 RES1   0.0000
    36 H17     -4.8342  -1.5313  -3.9588   H         1 RES1   0.0000
    37 C13     -3.3245  -1.0403  -2.6235   C.3       1 RES1   0.0000
    38 H18     -3.0299  -0.3113  -3.2259   H         1 RES1   0.0000
    39 H19     -3.8257  -0.6410  -1.8683   H         1 RES1   0.0000
    40 C14     -1.6353  -1.4693  -0.9974   C.2       1 RES1   0.0000
    41 H20     -2.0641  -0.7911  -0.4886   H         1 RES1   0.0000
    42 C15     -0.4433  -2.0623  -0.4456   C.ar      1 RES1   0.0000
    43 C16      0.3234  -3.0194  -1.1497   C.ar      1 RES1   0.0000
    44 C17      1.5556  -3.4285  -0.5815   C.ar      1 RES1   0.0000
    45 H21      2.1106  -4.0375  -1.0556   H         1 RES1   0.0000
    46 C18      1.9598  -2.9555   0.6490   C.ar      1 RES1   0.0000
    47 H22      2.7894  -3.2456   1.0112   H         1 RES1   0.0000
    48 C19      1.1706  -2.0563   1.3734   C.ar      1 RES1   0.0000
    49 H23      1.4399  -1.7615   2.2355   H         1 RES1   0.0000
    50 C20     -0.0006  -1.6089   0.8146   C.ar      1 RES1   0.0000
    51 H24     -0.5272  -0.9770   1.2895   H         1 RES1   0.0000
    52 N5      -6.8371  -7.2231  -7.3425   N.1       2 RES2   0.0000
    53 N6      -3.0092  -5.1794  -7.8993   N.1       2 RES2   0.0000
    54 N7       1.0038 -11.5094  -4.2066   N.1       2 RES2   0.0000
    55 N8      -2.7431 -13.6857  -3.7981   N.1       2 RES2   0.0000
    56 C21     -3.5956  -8.3920  -6.5700   C.2       2 RES2   0.0000
    57 C22     -4.2986  -9.4925  -6.0000   C.2       2 RES2   0.0000
    58 H25     -5.2474  -9.5092  -6.0388   H         2 RES2   0.0000
    59 C23     -3.6378 -10.5222  -5.4006   C.2       2 RES2   0.0000
    60 H26     -4.1345 -11.2427  -5.0291   H         2 RES2   0.0000
    61 C24     -2.2140 -10.5379  -5.3223   C.2       2 RES2   0.0000
    62 C25     -1.5133  -9.4409  -5.8919   C.2       2 RES2   0.0000
    63 H27     -0.5640  -9.4252  -5.8552   H         2 RES2   0.0000
    64 C26     -2.1767  -8.4062  -6.4933   C.2       2 RES2   0.0000
    65 H28     -1.6817  -7.6862  -6.8649   H         2 RES2   0.0000
    66 C27     -4.2667  -7.3087  -7.1836   C.2       2 RES2  -1.0000
    67 C28     -5.6843  -7.2644  -7.2774   C.1       2 RES2   0.0000
    68 C29     -3.5723  -6.1398  -7.5905   C.1       2 RES2   0.0000
    69 C30     -1.5249 -11.6067  -4.6966   C.2       2 RES2   0.0000
    70 C31     -2.2033 -12.7484  -4.1995   C.1       2 RES2   0.0000
    71 C32     -0.1237 -11.5551  -4.4442   C.1       2 RES2   0.0000
    72 C33      2.2745  -6.4444  -3.7895   C.1       3 RES3   0.0000
    73 N9       2.6202  -5.4847  -4.2929   N.1       3 RES3   0.0000
    74 C34      1.8227  -7.6702  -3.1451   C.3       3 RES3   0.0000
    75 H29      1.5565  -8.3194  -3.8285   H         3 RES3   0.0000
    76 H30      1.0566  -7.4721  -2.5671   H         3 RES3   0.0000
    77 H31      2.5510  -8.0436  -2.6056   H         3 RES3   0.0000
@<TRIPOS>BOND
     1     1     2    1
     2     2    20    2
     3     3     1    1
     4     4     3    1
     5     5     1    1
     6     6     1    1
     7     7     6    1
     8     8     4   ar
     9     9     8   ar
    10    10     9    1
    11    11     1    1
    12    12    11    1
    13    13     1    1
    14    14     9   ar
    15    15    14    1
    16    16    14   ar
    17    17    16    1
    18    18     4   ar
    19    19    18    1
    20    20     8    1
    21    21    20    1
    22    22     2    1
    23    23    22    1
    24    24    22    1
    25    25     6    1
    26    26    25    1
    27    27    25    1
    28    28     6    1
    29    29    28    1
    30    30    28    1
    31    31    11    1
    32    32    31    1
    33    33    31    1
    34    34    11    1
    35    35    34    1
    36    36    34    1
    37    37    13    1
    38    38    37    1
    39    39    37    1
    40    40    13    2
    41    41    40    1
    42    42    40    1
    43    43     5    1
    44    44    43   ar
    45    45    44    1
    46    46    44   ar
    47    47    46    1
    48    48    46   ar
    49    49    48    1
    50    50    42   ar
    51    51    50    1
    52    16    18   ar
    53    22    25    1
    54    28    31    1
    55    34    37    1
    56    42    43   ar
    57    48    50   ar
    58    52    67    3
    59    53    68    3
    60    54    71    3
    61    55    70    3
    62    56    57    1
    63    57    58    1
    64    59    57    2
    65    60    59    1
    66    61    59    1
    67    62    61    1
    68    63    62    1
    69    64    56    1
    70    65    64    1
    71    66    56    2
    72    67    66    1
    73    68    66    1
    74    69    61    2
    75    70    69    1
    76    71    69    1
    77    62    64    2
    78    72    73    3
    79    74    72    1
    80    75    74    1
    81    76    74    1
    82    77    74    1
@<TRIPOS>SUBSTRUCTURE
     1 RES1        1 GROUP             0 ****  ****    0  
     2 RES2       52 GROUP             0 ****  ****    0  
     3 RES3       72 GROUP             0 ****  ****    0  
@<TRIPOS>CRYSIN
    7.6085   14.2710   16.0300   67.4540   85.0780   76.2960     2     1
