@<TRIPOS>MOLECULE
CLPEFE
    63    71     2     0     0
SMALL
NO_CHARGES
****
Generated from the CSD

@<TRIPOS>ATOM
     1 Fe1      0.0000   0.0000   0.0000   Fe        1 RES1   0.0000
     2 Cl1     -1.0859  -0.8613   1.9136   Cl        1 RES1   0.0000
     3 P1       2.1445  -1.4450   0.1771   P.3       1 RES1   0.0000
     4 P2       1.5549   1.4869   1.4168   P.3       1 RES1   0.0000
     5 C1       3.4724  -0.2186   0.4197   C.2       1 RES1   0.0000
     6 C2       3.2437   0.9463   0.9453   C.2       1 RES1   0.0000
     7 C3       2.5984  -2.3586  -1.3420   C.ar      1 RES1   0.0000
     8 C4       3.3893  -1.7984  -2.3230   C.ar      1 RES1   0.0000
     9 C5       3.5951  -2.5576  -3.5063   C.ar      1 RES1   0.0000
    10 C6       3.0263  -3.8115  -3.6501   C.ar      1 RES1   0.0000
    11 C7       2.2645  -4.3141  -2.7082   C.ar      1 RES1   0.0000
    12 C8       2.0333  -3.6126  -1.5502   C.ar      1 RES1   0.0000
    13 C9       2.6195  -2.6440   1.4846   C.ar      1 RES1   0.0000
    14 C10      1.8292  -2.7893   2.6093   C.ar      1 RES1   0.0000
    15 C11      2.2189  -3.6662   3.5983   C.ar      1 RES1   0.0000
    16 C12      3.3733  -4.4018   3.4707   C.ar      1 RES1   0.0000
    17 C13      4.1440  -4.2605   2.3747   C.ar      1 RES1   0.0000
    18 C14      3.7841  -3.3992   1.3961   C.ar      1 RES1   0.0000
    19 C15      1.6448   3.3141   1.2213   C.ar      1 RES1   0.0000
    20 C16      1.8482   4.1662   2.2793   C.ar      1 RES1   0.0000
    21 C17      1.8759   5.5301   2.0792   C.ar      1 RES1   0.0000
    22 C18      1.7134   6.0694   0.8682   C.ar      1 RES1   0.0000
    23 C19      1.4972   5.2408  -0.1541   C.ar      1 RES1   0.0000
    24 C20      1.4740   3.8691   0.0000   C.ar      1 RES1   0.0000
    25 C21      1.5542   1.2657   3.2269   C.ar      1 RES1   0.0000
    26 C22      2.6212   0.7395   3.9341   C.ar      1 RES1   0.0000
    27 C23      2.5767   0.5812   5.2934   C.ar      1 RES1   0.0000
    28 C24      1.4443   0.9555   5.9684   C.ar      1 RES1   0.0000
    29 C25      0.3535   1.4516   5.3038   C.ar      1 RES1   0.0000
    30 C26      0.3828   1.6152   3.9272   C.ar      1 RES1   0.0000
    31 Cl1B     1.0859   0.8613  -1.9136   Cl        1 RES1   0.0000
    32 P1B     -2.1445   1.4450  -0.1771   P.3       1 RES1   0.0000
    33 P2B     -1.5549  -1.4869  -1.4168   P.3       1 RES1   0.0000
    34 C1B     -3.4724   0.2186  -0.4197   C.2       1 RES1   0.0000
    35 C3B     -2.5984   2.3586   1.3420   C.ar      1 RES1   0.0000
    36 C9B     -2.6195   2.6440  -1.4846   C.ar      1 RES1   0.0000
    37 C2B     -3.2437  -0.9463  -0.9453   C.2       1 RES1   0.0000
    38 C15B    -1.6448  -3.3141  -1.2213   C.ar      1 RES1   0.0000
    39 C21B    -1.5542  -1.2657  -3.2269   C.ar      1 RES1   0.0000
    40 C4B     -3.3893   1.7984   2.3230   C.ar      1 RES1   0.0000
    41 C8B     -2.0333   3.6126   1.5502   C.ar      1 RES1   0.0000
    42 C10B    -1.8292   2.7893  -2.6093   C.ar      1 RES1   0.0000
    43 C14B    -3.7841   3.3992  -1.3961   C.ar      1 RES1   0.0000
    44 C16B    -1.8482  -4.1662  -2.2793   C.ar      1 RES1   0.0000
    45 C20B    -1.4740  -3.8691   0.0000   C.ar      1 RES1   0.0000
    46 C22B    -2.6212  -0.7395  -3.9341   C.ar      1 RES1   0.0000
    47 C26B    -0.3828  -1.6152  -3.9272   C.ar      1 RES1   0.0000
    48 C5B     -3.5951   2.5576   3.5063   C.ar      1 RES1   0.0000
    49 C7B     -2.2645   4.3141   2.7082   C.ar      1 RES1   0.0000
    50 C11B    -2.2189   3.6662  -3.5983   C.ar      1 RES1   0.0000
    51 C13B    -4.1440   4.2605  -2.3747   C.ar      1 RES1   0.0000
    52 C17B    -1.8759  -5.5301  -2.0792   C.ar      1 RES1   0.0000
    53 C19B    -1.4972  -5.2408   0.1541   C.ar      1 RES1   0.0000
    54 C23B    -2.5767  -0.5812  -5.2934   C.ar      1 RES1   0.0000
    55 C25B    -0.3535  -1.4516  -5.3038   C.ar      1 RES1   0.0000
    56 C6B     -3.0263   3.8115   3.6501   C.ar      1 RES1   0.0000
    57 C12B    -3.3733   4.4018  -3.4707   C.ar      1 RES1   0.0000
    58 C18B    -1.7134  -6.0694  -0.8682   C.ar      1 RES1   0.0000
    59 C24B    -1.4443  -0.9555  -5.9684   C.ar      1 RES1   0.0000
    60 C27      1.7398   5.3076   6.5768   C.2       2 RES2   0.0000
    61 C28      2.8066   4.4895   7.3484   C.3       2 RES2   0.0000
    62 C29      0.2584   4.8495   6.5814   C.3       2 RES2   0.0000
    63 O1       2.0704   6.3285   5.9558   O.2       2 RES2   0.0000
@<TRIPOS>BOND
     1     1     2    1
     2     3     1    1
     3     4     1    1
     4     5     3    1
     5     6     4    1
     6     7     3    1
     7     8     7   ar
     8     9     8   ar
     9    10     9   ar
    10    11    10   ar
    11    12     7   ar
    12    13     3    1
    13    14    13   ar
    14    15    14   ar
    15    16    15   ar
    16    17    16   ar
    17    18    13   ar
    18    19     4    1
    19    20    19   ar
    20    21    20   ar
    21    22    21   ar
    22    23    22   ar
    23    24    19   ar
    24    25     4    1
    25    26    25   ar
    26    27    26   ar
    27    28    27   ar
    28    29    28   ar
    29    30    25   ar
    30    31     1    1
    31    32     1    1
    32    33     1    1
    33    34    32    1
    34    35    32    1
    35    36    32    1
    36    37    33    1
    37    38    33    1
    38    39    33    1
    39    40    35   ar
    40    41    35   ar
    41    42    36   ar
    42    43    36   ar
    43    44    38   ar
    44    45    38   ar
    45    46    39   ar
    46    47    39   ar
    47    48    40   ar
    48    49    41   ar
    49    50    42   ar
    50    51    43   ar
    51    52    44   ar
    52    53    45   ar
    53    54    46   ar
    54    55    47   ar
    55    56    48   ar
    56    57    50   ar
    57    58    52   ar
    58    59    54   ar
    59     5     6    2
    60    11    12   ar
    61    17    18   ar
    62    23    24   ar
    63    29    30   ar
    64    34    37    2
    65    49    56   ar
    66    51    57   ar
    67    53    58   ar
    68    55    59   ar
    69    60    61    1
    70    62    60    1
    71    63    60    2
@<TRIPOS>SUBSTRUCTURE
     1 RES1        1 GROUP             0 ****  ****    0  
     2 RES2       60 GROUP             0 ****  ****    0  
@<TRIPOS>CRYSIN
   17.8670   13.0890   11.5190   90.0000   93.3000   90.0000    14     2
