@<TRIPOS>MOLECULE
CLPPFE10
    81    91     2     0     0
SMALL
NO_CHARGES
****
Generated from the CSD

@<TRIPOS>ATOM
     1 Fe1      5.8718   3.5095   3.9959   Fe        1 RES1   0.0000
     2 Cl1      7.1737   4.1927   2.1570   Cl        1 RES1   0.0000
     3 P1       3.9677   3.1154   2.1042   P.3       1 RES1   0.0000
     4 P2       6.3631   1.0182   3.1847   P.3       1 RES1   0.0000
     5 P3      10.7588   0.3448   2.6293   P.3       1 RES1   0.0000
     6 C1       4.8404   1.9317   0.9830   C.3       1 RES1   0.0000
     7 C2       5.1898   0.6585   1.8141   C.3       1 RES1   0.0000
     8 C3       7.9618   0.7415   2.3496   C.3       1 RES1   0.0000
     9 C4       9.1728   1.0398   3.2367   C.3       1 RES1   0.0000
    10 C5       3.4808   4.4614   0.9590   C.ar      1 RES1   0.0000
    11 C6       2.3126   5.1423   1.1109   C.ar      1 RES1   0.0000
    12 C7       2.0108   6.2496   0.3037   C.ar      1 RES1   0.0000
    13 C8       2.9181   6.6359  -0.6553   C.ar      1 RES1   0.0000
    14 C9       4.0660   5.9944  -0.8232   C.ar      1 RES1   0.0000
    15 C10      4.3917   4.8731  -0.0320   C.ar      1 RES1   0.0000
    16 C11      2.3750   2.2365   2.3336   C.ar      1 RES1   0.0000
    17 C12      1.5440   1.9250   1.2947   C.ar      1 RES1   0.0000
    18 C13      0.3967   1.2177   1.4625   C.ar      1 RES1   0.0000
    19 C14      0.0187   0.8584   2.7412   C.ar      1 RES1   0.0000
    20 C15      0.7690   1.2240   3.7961   C.ar      1 RES1   0.0000
    21 C16      1.9640   1.8989   3.6523   C.ar      1 RES1   0.0000
    22 C17      6.2559  -0.5007   4.2197   C.ar      1 RES1   0.0000
    23 C18      6.6170  -0.4179   5.5303   C.ar      1 RES1   0.0000
    24 C19      6.6219  -1.6054   6.3375   C.ar      1 RES1   0.0000
    25 C20      6.1992  -2.7630   5.8100   C.ar      1 RES1   0.0000
    26 C21      5.7934  -2.8311   4.5314   C.ar      1 RES1   0.0000
    27 C22      5.8082  -1.7174   3.7162   C.ar      1 RES1   0.0000
    28 C23     11.2697   1.5047   1.3027   C.ar      1 RES1   0.0000
    29 C24     12.4684   1.1555   0.6314   C.ar      1 RES1   0.0000
    30 C25     12.9163   1.9039  -0.4475   C.ar      1 RES1   0.0000
    31 C26     12.1658   2.9692  -0.8311   C.ar      1 RES1   0.0000
    32 C27     11.0134   3.3207  -0.2637   C.ar      1 RES1   0.0000
    33 C28     10.5634   2.5876   0.8631   C.ar      1 RES1   0.0000
    34 C29     11.8592   0.8653   3.9959   C.ar      1 RES1   0.0000
    35 C30     12.1942   2.1857   4.2676   C.ar      1 RES1   0.0000
    36 C31     13.0220   2.5062   5.3625   C.ar      1 RES1   0.0000
    37 C32     13.5049   1.5121   6.1617   C.ar      1 RES1   0.0000
    38 C33     13.1822   0.2332   5.9219   C.ar      1 RES1   0.0000
    39 C34     12.3579  -0.1331   4.8510   C.ar      1 RES1   0.0000
    40 Cl1A     4.5698   2.8262   5.8348   Cl        1 RES1   0.0000
    41 P1A      7.7758   3.9035   5.8876   P.3       1 RES1   0.0000
    42 P2A      5.3805   6.0008   4.8071   P.3       1 RES1   0.0000
    43 C1A      6.9031   5.0873   7.0088   C.3       1 RES1   0.0000
    44 C5A      8.2627   2.5576   7.0328   C.ar      1 RES1   0.0000
    45 C11A     9.3686   4.7825   5.6582   C.ar      1 RES1   0.0000
    46 C2A      6.5537   6.3605   6.1777   C.3       1 RES1   0.0000
    47 C3A      3.7818   6.2775   5.6422   C.3       1 RES1   0.0000
    48 C17A     5.4876   7.5197   3.7721   C.ar      1 RES1   0.0000
    49 C6A      9.4309   1.8767   6.8809   C.ar      1 RES1   0.0000
    50 C10A     7.3518   2.1459   8.0238   C.ar      1 RES1   0.0000
    51 C12A    10.1995   5.0940   6.6971   C.ar      1 RES1   0.0000
    52 C16A     9.7795   5.1201   4.3395   C.ar      1 RES1   0.0000
    53 C4A      2.5707   5.9792   4.7551   C.3       1 RES1   0.0000
    54 C18A     5.1265   7.4369   2.4615   C.ar      1 RES1   0.0000
    55 C22A     5.9353   8.7364   4.2756   C.ar      1 RES1   0.0000
    56 C7A      9.7328   0.7694   7.6881   C.ar      1 RES1   0.0000
    57 C9A      7.6775   1.0246   8.8150   C.ar      1 RES1   0.0000
    58 C13A    11.3468   5.8013   6.5293   C.ar      1 RES1   0.0000
    59 C15A    10.9745   5.7950   4.1957   C.ar      1 RES1   0.0000
    60 P3A      0.9848   6.6742   5.3625   P.3       1 RES1   0.0000
    61 C19A     5.1216   8.6243   1.6543   C.ar      1 RES1   0.0000
    62 C21A     5.9501   9.8501   3.4605   C.ar      1 RES1   0.0000
    63 C8A      8.8255   0.3831   8.6471   C.ar      1 RES1   0.0000
    64 C14A    11.7249   6.1606   5.2506   C.ar      1 RES1   0.0000
    65 C23A     0.4739   5.5143   6.6891   C.ar      1 RES1   0.0000
    66 C29A    -0.1157   6.1537   3.9959   C.ar      1 RES1   0.0000
    67 C20A     5.5444   9.7820   2.1818   C.ar      1 RES1   0.0000
    68 C24A    -0.7249   5.8635   7.3605   C.ar      1 RES1   0.0000
    69 C28A     1.1802   4.4314   7.1287   C.ar      1 RES1   0.0000
    70 C30A    -0.4507   4.8333   3.7242   C.ar      1 RES1   0.0000
    71 C34A    -0.6144   7.1521   3.1408   C.ar      1 RES1   0.0000
    72 C25A    -1.1728   5.1151   8.4393   C.ar      1 RES1   0.0000
    73 C27A     0.7301   3.6983   8.2555   C.ar      1 RES1   0.0000
    74 C31A    -1.2785   4.5128   2.6293   C.ar      1 RES1   0.0000
    75 C33A    -1.4387   6.7858   2.0699   C.ar      1 RES1   0.0000
    76 C26A    -0.4223   4.0497   8.8230   C.ar      1 RES1   0.0000
    77 C32A    -1.7614   5.5069   1.8301   C.ar      1 RES1   0.0000
    78 C35     -0.4848  -2.3206   5.5383   C.3       2 RES2   0.0000
    79 C36      2.0002  -2.3974   4.5234   C.3       2 RES2   0.0000
    80 C37      0.8415  -3.0921   5.2986   C.2       2 RES2   0.0000
    81 O1       0.9883  -4.2495   5.7141   O.2       2 RES2   0.0000
@<TRIPOS>BOND
     1     1     2    1
     2     3     1    1
     3     4     1    1
     4     5     9    1
     5     6     3    1
     6     7     4    1
     7     8     4    1
     8     9     8    1
     9    10     3    1
    10    11    10   ar
    11    12    11   ar
    12    13    12   ar
    13    14    13   ar
    14    15    10   ar
    15    16     3    1
    16    17    16   ar
    17    18    17   ar
    18    19    18   ar
    19    20    19   ar
    20    21    16   ar
    21    22     4    1
    22    23    22   ar
    23    24    23   ar
    24    25    24   ar
    25    26    25   ar
    26    27    22   ar
    27    28     5    1
    28    29    28   ar
    29    30    29   ar
    30    31    30   ar
    31    32    31   ar
    32    33    28   ar
    33    34     5    1
    34    35    34   ar
    35    36    35   ar
    36    37    36   ar
    37    38    37   ar
    38    39    34   ar
    39    40     1    1
    40    41     1    1
    41    42     1    1
    42    43    41    1
    43    44    41    1
    44    45    41    1
    45    46    42    1
    46    47    42    1
    47    48    42    1
    48    49    44   ar
    49    50    44   ar
    50    51    45   ar
    51    52    45   ar
    52    53    47    1
    53    54    48   ar
    54    55    48   ar
    55    56    49   ar
    56    57    50   ar
    57    58    51   ar
    58    59    52   ar
    59    60    53    1
    60    61    54   ar
    61    62    55   ar
    62    63    56   ar
    63    64    58   ar
    64    65    60    1
    65    66    60    1
    66    67    61   ar
    67    68    65   ar
    68    69    65   ar
    69    70    66   ar
    70    71    66   ar
    71    72    68   ar
    72    73    69   ar
    73    74    70   ar
    74    75    71   ar
    75    76    72   ar
    76    77    74   ar
    77     6     7    1
    78    14    15   ar
    79    20    21   ar
    80    26    27   ar
    81    32    33   ar
    82    38    39   ar
    83    43    46    1
    84    57    63   ar
    85    59    64   ar
    86    62    67   ar
    87    73    76   ar
    88    75    77   ar
    89    78    80    1
    90    79    80    1
    91    80    81    2
@<TRIPOS>SUBSTRUCTURE
     1 RES1        1 GROUP             0 ****  ****    0  
     2 RES2       78 GROUP             0 ****  ****    0  
@<TRIPOS>CRYSIN
   15.7860   13.7170   10.2390  125.6000   95.1000  103.2000     2     1
