@<TRIPOS>MOLECULE
CLPPFE
    81    91     2     0     0
SMALL
NO_CHARGES
****
Generated from the CSD

@<TRIPOS>ATOM
     1 Fe1      5.8718   3.5095   3.9959   Fe        1 RES1   0.0000
     2 Cl1      7.1737   4.1927   2.1570   Cl        1 RES1   0.0000
     3 P1       3.9677   3.1154   2.1042   P.3       1 RES1   0.0000
     4 P2       6.3631   1.0182   3.1847   P.3       1 RES1   0.0000
     5 P3      10.7588   0.3448   2.6293   P.3       1 RES1   0.0000
     6 C1       4.8319   1.9305   0.9862   C.3       1 RES1   0.0000
     7 C2       5.1964   0.6604   1.8117   C.3       1 RES1   0.0000
     8 C3       7.9663   0.7368   2.3488   C.3       1 RES1   0.0000
     9 C4       9.1657   1.0445   3.2359   C.3       1 RES1   0.0000
    10 C11      3.4804   4.4593   0.9566   C.ar      1 RES1   0.0000
    11 C12      2.3092   5.1376   1.1101   C.ar      1 RES1   0.0000
    12 C13      2.0036   6.2542   0.3029   C.ar      1 RES1   0.0000
    13 C14      2.9175   6.6392  -0.6561   C.ar      1 RES1   0.0000
    14 C15      4.0718   5.9878  -0.8216   C.ar      1 RES1   0.0000
    15 C16      4.3955   4.8771  -0.0320   C.ar      1 RES1   0.0000
    16 C21      2.3714   2.2404   2.3320   C.ar      1 RES1   0.0000
    17 C22      1.5502   1.9244   1.2955   C.ar      1 RES1   0.0000
    18 C23      0.3912   1.2230   1.4609   C.ar      1 RES1   0.0000
    19 C24      0.0156   0.8625   2.7428   C.ar      1 RES1   0.0000
    20 C25      0.7667   1.2161   3.7993   C.ar      1 RES1   0.0000
    21 C26      1.9628   1.9015   3.6491   C.ar      1 RES1   0.0000
    22 C31      6.2497  -0.4994   4.2181   C.ar      1 RES1   0.0000
    23 C32      6.6183  -0.4198   5.5327   C.ar      1 RES1   0.0000
    24 C33      6.6287  -1.5994   6.3367   C.ar      1 RES1   0.0000
    25 C34      6.1947  -2.7682   5.8132   C.ar      1 RES1   0.0000
    26 C35      5.8008  -2.8278   4.5306   C.ar      1 RES1   0.0000
    27 C36      5.8114  -1.7136   3.7130   C.ar      1 RES1   0.0000
    28 C41     11.2774   1.5006   1.3011   C.ar      1 RES1   0.0000
    29 C42     12.4680   1.1594   0.6298   C.ar      1 RES1   0.0000
    30 C43     12.9118   1.9054  -0.4443   C.ar      1 RES1   0.0000
    31 C44     12.1693   2.9679  -0.8311   C.ar      1 RES1   0.0000
    32 C45     11.0044   3.3267  -0.2645   C.ar      1 RES1   0.0000
    33 C46     10.5615   2.5791   0.8655   C.ar      1 RES1   0.0000
    34 C51     11.8541   0.8660   3.9967   C.ar      1 RES1   0.0000
    35 C52     12.1929   2.1910   4.2676   C.ar      1 RES1   0.0000
    36 C53     13.0164   2.5141   5.3593   C.ar      1 RES1   0.0000
    37 C54     13.5004   1.5162   6.1633   C.ar      1 RES1   0.0000
    38 C55     13.1872   0.2284   5.9195   C.ar      1 RES1   0.0000
    39 C56     12.3634  -0.1246   4.8470   C.ar      1 RES1   0.0000
    40 Cl1A     4.5698   2.8262   5.8348   Cl        1 RES1   0.0000
    41 P1A      7.7758   3.9035   5.8876   P.3       1 RES1   0.0000
    42 P2A      5.3805   6.0008   4.8071   P.3       1 RES1   0.0000
    43 C1A      6.9117   5.0885   7.0056   C.3       1 RES1   0.0000
    44 C11A     8.2631   2.5597   7.0352   C.ar      1 RES1   0.0000
    45 C21A     9.3722   4.7785   5.6598   C.ar      1 RES1   0.0000
    46 C2A      6.5471   6.3586   6.1801   C.3       1 RES1   0.0000
    47 C3A      3.7773   6.2822   5.6430   C.3       1 RES1   0.0000
    48 C31A     5.4938   7.5184   3.7737   C.ar      1 RES1   0.0000
    49 C12A     9.4343   1.8814   6.8817   C.ar      1 RES1   0.0000
    50 C16A     7.3480   2.1419   8.0238   C.ar      1 RES1   0.0000
    51 C22A    10.1933   5.0946   6.6963   C.ar      1 RES1   0.0000
    52 C26A     9.7807   5.1175   4.3427   C.ar      1 RES1   0.0000
    53 C4A      2.5778   5.9745   4.7559   C.3       1 RES1   0.0000
    54 C32A     5.1252   7.4388   2.4591   C.ar      1 RES1   0.0000
    55 C36A     5.9321   8.7325   4.2788   C.ar      1 RES1   0.0000
    56 C13A     9.7399   0.7648   7.6889   C.ar      1 RES1   0.0000
    57 C15A     7.6717   1.0312   8.8134   C.ar      1 RES1   0.0000
    58 C23A    11.3523   5.7960   6.5309   C.ar      1 RES1   0.0000
    59 C25A    10.9768   5.8029   4.1925   C.ar      1 RES1   0.0000
    60 P3A      0.9848   6.6742   5.3625   P.3       1 RES1   0.0000
    61 C33A     5.1149   8.6184   1.6551   C.ar      1 RES1   0.0000
    62 C35A     5.9427   9.8468   3.4613   C.ar      1 RES1   0.0000
    63 C14A     8.8260   0.3798   8.6479   C.ar      1 RES1   0.0000
    64 C24A    11.7279   6.1565   5.2490   C.ar      1 RES1   0.0000
    65 C41A     0.4661   5.5184   6.6907   C.ar      1 RES1   0.0000
    66 C51A    -0.1105   6.1530   3.9951   C.ar      1 RES1   0.0000
    67 C34A     5.5488   9.7872   2.1786   C.ar      1 RES1   0.0000
    68 C42A    -0.7245   5.8596   7.3621   C.ar      1 RES1   0.0000
    69 C46A     1.1820   4.4399   7.1263   C.ar      1 RES1   0.0000
    70 C52A    -0.4494   4.8280   3.7242   C.ar      1 RES1   0.0000
    71 C56A    -0.6199   7.1436   3.1448   C.ar      1 RES1   0.0000
    72 C43A    -1.1683   5.1136   8.4361   C.ar      1 RES1   0.0000
    73 C45A     0.7392   3.6923   8.2563   C.ar      1 RES1   0.0000
    74 C53A    -1.2729   4.5049   2.6325   C.ar      1 RES1   0.0000
    75 C55A    -1.4437   6.7906   2.0723   C.ar      1 RES1   0.0000
    76 C44A    -0.4257   4.0511   8.8230   C.ar      1 RES1   0.0000
    77 C54A    -1.7568   5.5028   1.8285   C.ar      1 RES1   0.0000
    78 O1       0.9883  -4.2495   5.7141   O.2       2 RES2   0.0000
    79 C61     -0.4848  -2.3206   5.5383   C.3       2 RES2   0.0000
    80 C62      2.0002  -2.3974   4.5234   C.3       2 RES2   0.0000
    81 C63      0.8415  -3.0921   5.2986   C.2       2 RES2   0.0000
@<TRIPOS>BOND
     1     1     2    1
     2     3     1    1
     3     4     1    1
     4     5     9    1
     5     6     3    1
     6     7     4    1
     7     8     4    1
     8     9     8    1
     9    10     3    1
    10    11    10   ar
    11    12    11   ar
    12    13    12   ar
    13    14    13   ar
    14    15    10   ar
    15    16     3    1
    16    17    16   ar
    17    18    17   ar
    18    19    18   ar
    19    20    19   ar
    20    21    16   ar
    21    22     4    1
    22    23    22   ar
    23    24    23   ar
    24    25    24   ar
    25    26    25   ar
    26    27    22   ar
    27    28     5    1
    28    29    28   ar
    29    30    29   ar
    30    31    30   ar
    31    32    31   ar
    32    33    28   ar
    33    34     5    1
    34    35    34   ar
    35    36    35   ar
    36    37    36   ar
    37    38    37   ar
    38    39    34   ar
    39    40     1    1
    40    41     1    1
    41    42     1    1
    42    43    41    1
    43    44    41    1
    44    45    41    1
    45    46    42    1
    46    47    42    1
    47    48    42    1
    48    49    44   ar
    49    50    44   ar
    50    51    45   ar
    51    52    45   ar
    52    53    47    1
    53    54    48   ar
    54    55    48   ar
    55    56    49   ar
    56    57    50   ar
    57    58    51   ar
    58    59    52   ar
    59    60    53    1
    60    61    54   ar
    61    62    55   ar
    62    63    56   ar
    63    64    58   ar
    64    65    60    1
    65    66    60    1
    66    67    61   ar
    67    68    65   ar
    68    69    65   ar
    69    70    66   ar
    70    71    66   ar
    71    72    68   ar
    72    73    69   ar
    73    74    70   ar
    74    75    71   ar
    75    76    72   ar
    76    77    74   ar
    77     6     7    1
    78    14    15   ar
    79    20    21   ar
    80    26    27   ar
    81    32    33   ar
    82    38    39   ar
    83    43    46    1
    84    57    63   ar
    85    59    64   ar
    86    62    67   ar
    87    73    76   ar
    88    75    77   ar
    89    78    81    2
    90    79    81    1
    91    80    81    1
@<TRIPOS>SUBSTRUCTURE
     1 RES1        1 GROUP             0 ****  ****    0  
     2 RES2       78 GROUP             0 ****  ****    0  
@<TRIPOS>CRYSIN
   15.7860   13.7170   10.2390  125.6000   95.1000  103.2000     2     1
