@<TRIPOS>MOLECULE
COCJIP
    76    79     1     0     0
SMALL
NO_CHARGES
****
Generated from the CSD

@<TRIPOS>ATOM
     1 Fe1      5.8809   9.2124  13.5627   Fe        1 RES1   0.0000
     2 P1       5.0018   7.5833  14.9100   P.3       1 RES1   0.0000
     3 P2       8.0044   9.0180  14.1399   P.3       1 RES1   0.0000
     4 P3       5.4139  10.8419  15.0839   P.3       1 RES1   0.0000
     5 P4       5.9928   7.8141  11.7595   P.3       1 RES1   0.0000
     6 O1       4.0060   9.4760  12.9389   O.3       1 RES1   0.0000
     7 C1       3.8561  10.4578  12.0618   C.ar      1 RES1   0.0000
     8 C2       2.6508  10.7741  11.4670   C.ar      1 RES1   0.0000
     9 H1       1.9008  10.2614  11.6698   H         1 RES1   0.0000
    10 C3       2.5204  11.8462  10.5682   C.ar      1 RES1   0.0000
    11 C4       1.2879  12.1641   9.9428   C.ar      1 RES1   0.0000
    12 H2       0.5389  11.6467  10.1283   H         1 RES1   0.0000
    13 C5       1.1774  13.2004   9.0899   C.ar      1 RES1   0.0000
    14 H3       0.3587  13.3796   8.6863   H         1 RES1   0.0000
    15 C6       2.2788  14.0060   8.8049   C.ar      1 RES1   0.0000
    16 H4       2.1975  14.7306   8.2274   H         1 RES1   0.0000
    17 C7       3.4835  13.7130   9.3882   C.ar      1 RES1   0.0000
    18 H5       4.2160  14.2522   9.1970   H         1 RES1   0.0000
    19 C8       3.6511  12.6347  10.2603   C.ar      1 RES1   0.0000
    20 C9       4.9234  12.2950  10.8531   C.ar      1 RES1   0.0000
    21 C10      6.1051  13.0087  10.6198   C.ar      1 RES1   0.0000
    22 H6       6.0747  13.7847  10.1092   H         1 RES1   0.0000
    23 C11      7.2925  12.5895  11.1247   C.ar      1 RES1   0.0000
    24 H7       8.0715  13.0570  10.9277   H         1 RES1   0.0000
    25 C12      7.3434  11.4488  11.9471   C.ar      1 RES1   0.0000
    26 H8       8.1728  11.1683  12.2607   H         1 RES1   0.0000
    27 C13      6.2260  10.7211  12.3085   C.ar      1 RES1   0.0000
    28 C14      5.0003  11.1948  11.7176   C.ar      1 RES1   0.0000
    29 C15      5.4599   5.8421  14.7239   C.3       1 RES1   0.0000
    30 H9       4.9892   5.3154  15.3761   H         1 RES1   0.0000
    31 H10      6.4061   5.7439  14.8578   H         1 RES1   0.0000
    32 H11      5.2274   5.5413  13.8423   H         1 RES1   0.0000
    33 C16      3.1931   7.4175  14.8100   C.3       1 RES1   0.0000
    34 H12      2.9026   6.7209  15.4029   H         1 RES1   0.0000
    35 H13      2.9406   7.1978  13.9111   H         1 RES1   0.0000
    36 H14      2.7817   8.2465  15.0663   H         1 RES1   0.0000
    37 C17      5.1473   7.6357  16.7320   C.3       1 RES1   0.0000
    38 H15      4.7123   6.8674  17.1088   H         1 RES1   0.0000
    39 H16      4.7306   8.4351  17.0629   H         1 RES1   0.0000
    40 H17      6.0746   7.6326  16.9787   H         1 RES1   0.0000
    41 C18      8.5276   7.7931  15.3971   C.3       1 RES1   0.0000
    42 H18      9.4789   7.8460  15.5195   H         1 RES1   0.0000
    43 H19      8.2927   6.9111  15.1007   H         1 RES1   0.0000
    44 H20      8.0871   7.9801  16.2290   H         1 RES1   0.0000
    45 C19      8.8939  10.4593  14.8272   C.3       1 RES1   0.0000
    46 H21      9.7985  10.2115  15.0280   H         1 RES1   0.0000
    47 H22      8.4565  10.7523  15.6304   H         1 RES1   0.0000
    48 H23      8.8921  11.1730  14.1846   H         1 RES1   0.0000
    49 C20      9.2253   8.5410  12.8478   C.3       1 RES1   0.0000
    50 H24     10.1008   8.4943  13.2380   H         1 RES1   0.0000
    51 H25      9.2222   9.1986  12.1479   H         1 RES1   0.0000
    52 H26      8.9891   7.6855  12.4845   H         1 RES1   0.0000
    53 C21      3.6491  11.0359  15.4430   C.3       1 RES1   0.0000
    54 H27      3.5293  11.7356  16.0894   H         1 RES1   0.0000
    55 H28      3.3017  10.2131  15.7949   H         1 RES1   0.0000
    56 H29      3.1815  11.2618  14.6360   H         1 RES1   0.0000
    57 C22      5.7816  12.5739  14.6513   C.3       1 RES1   0.0000
    58 H30      5.5334  13.1458  15.3818   H         1 RES1   0.0000
    59 H31      5.2827  12.8217  13.8691   H         1 RES1   0.0000
    60 H32      6.7205  12.6674  14.4753   H         1 RES1   0.0000
    61 C23      6.0963  10.8941  16.7875   C.3       1 RES1   0.0000
    62 H33      5.7625  11.6701  17.2426   H         1 RES1   0.0000
    63 H34      7.0547  10.9346  16.7473   H         1 RES1   0.0000
    64 H35      5.8289  10.1040  17.2637   H         1 RES1   0.0000
    65 C24      4.3895   7.0778  11.2796   C.3       1 RES1   0.0000
    66 H36      4.5149   6.5043  10.5204   H         1 RES1   0.0000
    67 H37      3.7708   7.7759  11.0559   H         1 RES1   0.0000
    68 H38      4.0409   6.5651  12.0121   H         1 RES1   0.0000
    69 C25      7.0210   6.2768  11.6831   C.3       1 RES1   0.0000
    70 H39      6.9018   5.8545  10.8302   H         1 RES1   0.0000
    71 H40      6.7479   5.6738  12.3793   H         1 RES1   0.0000
    72 H41      7.9460   6.5043  11.8017   H         1 RES1   0.0000
    73 C26      6.4586   8.5364  10.1589   C.3       1 RES1   0.0000
    74 H42      6.4712   7.8492   9.4896   H         1 RES1   0.0000
    75 H43      7.3306   8.9322  10.2297   H         1 RES1   0.0000
    76 H44      5.8202   9.2111   9.9141   H         1 RES1   0.0000
@<TRIPOS>BOND
     1     1     2    1
     2     2    29    1
     3     3     1    1
     4     4     1    1
     5     5     1    1
     6     6     1    1
     7     7     6    1
     8     8     7   ar
     9     9     8    1
    10    10     8   ar
    11    11    10   ar
    12    12    11    1
    13    13    11   ar
    14    14    13    1
    15    15    13   ar
    16    16    15    1
    17    17    15   ar
    18    18    17    1
    19    19    10   ar
    20    20    19   ar
    21    21    20   ar
    22    22    21    1
    23    23    21   ar
    24    24    23    1
    25    25    23   ar
    26    26    25    1
    27    27     1    1
    28    28     7   ar
    29    29    30    1
    30    31    29    1
    31    32    29    1
    32    33     2    1
    33    34    33    1
    34    35    33    1
    35    36    33    1
    36    37     2    1
    37    38    37    1
    38    39    37    1
    39    40    37    1
    40    41     3    1
    41    42    41    1
    42    43    41    1
    43    44    41    1
    44    45     3    1
    45    46    45    1
    46    47    45    1
    47    48    45    1
    48    49     3    1
    49    50    49    1
    50    51    49    1
    51    52    49    1
    52    53     4    1
    53    54    53    1
    54    55    53    1
    55    56    53    1
    56    57     4    1
    57    58    57    1
    58    59    57    1
    59    60    57    1
    60    61     4    1
    61    62    61    1
    62    63    61    1
    63    64    61    1
    64    65     5    1
    65    66    65    1
    66    67    65    1
    67    68    65    1
    68    69     5    1
    69    70    69    1
    70    71    69    1
    71    72    69    1
    72    73     5    1
    73    74    73    1
    74    75    73    1
    75    76    73    1
    76    17    19   ar
    77    20    28   ar
    78    25    27   ar
    79    27    28   ar
@<TRIPOS>SUBSTRUCTURE
     1 RES1        1 GROUP             0 ****  ****    0  
@<TRIPOS>CRYSIN
    9.5410   15.5830   19.2370   90.0000   96.2000   90.0000    14     1
