@<TRIPOS>MOLECULE
COHJES01
   111   123     2     0     0
SMALL
NO_CHARGES
****
Generated from the CSD

@<TRIPOS>ATOM
     1 Fe1     -0.9384  11.3229   7.6011   Fe        1 RES1   0.0000
     2 N1       0.3442   8.7349  12.1892   N.am      1 RES1   0.0000
     3 N2       0.5611   9.2771  10.9225   N.pl3     1 RES1   0.0000
     4 N3       0.2457  10.2370   9.0061   N.2       1 RES1   0.0000
     5 N4       1.4859   9.6326   8.9633   N.2       1 RES1   0.0000
     6 N5      -2.1738  11.2036   9.4421   N.ar      1 RES1   0.0000
     7 N6       2.8595   7.6785  11.6769   N.ar      1 RES1   0.0000
     8 N7      -0.0541  13.0924   8.3096   N.2       1 RES1   0.0000
     9 O1       1.3264  10.5840  13.0594   O.2       1 RES1   0.0000
    10 O2      -0.1789   6.8042  11.1185   O.2       1 RES1   0.0000
    11 S1       1.7310  14.7766   9.6057   S.2       1 RES1   0.0000
    12 C1       0.9416   8.7424  14.5486   C.ar      1 RES1   0.0000
    13 C2       1.3949   9.3957  15.6751   C.ar      1 RES1   0.0000
    14 H1       1.6790  10.2812  15.6295   H         1 RES1   0.0000
    15 C3       1.4162   8.6847  16.9080   C.ar      1 RES1   0.0000
    16 H2       1.7071   9.1195  17.6772   H         1 RES1   0.0000
    17 C4       1.0296   7.4097  16.9870   C.ar      1 RES1   0.0000
    18 H3       1.0813   6.9704  17.8034   H         1 RES1   0.0000
    19 C5       0.5497   6.7213  15.8727   C.ar      1 RES1   0.0000
    20 C6       0.1151   5.3897  15.9214   C.ar      1 RES1   0.0000
    21 H4       0.1193   4.9436  16.7377   H         1 RES1   0.0000
    22 C7      -0.3093   4.7398  14.8222   C.ar      1 RES1   0.0000
    23 H5      -0.5936   3.8566  14.8891   H         1 RES1   0.0000
    24 C8      -0.3245   5.3897  13.5589   C.ar      1 RES1   0.0000
    25 H6      -0.5993   4.9345  12.7973   H         1 RES1   0.0000
    26 C9       0.0695   6.7009  13.4799   C.ar      1 RES1   0.0000
    27 C10      0.5217   7.4126  14.6155   C.ar      1 RES1   0.0000
    28 C11      0.9203   9.4664  13.2503   C.2       1 RES1   0.0000
    29 C12      0.0691   7.3504  12.1755   C.2       1 RES1   0.0000
    30 C13     -0.3177  10.0113  10.1703   C.2       1 RES1   0.0000
    31 C14      1.6683   9.0527  10.1262   C.2       1 RES1   0.0000
    32 C15     -1.6473  10.5206  10.4668   C.ar      1 RES1   0.0000
    33 C16     -2.3275  10.3401  11.6678   C.ar      1 RES1   0.0000
    34 H7      -1.9433   9.8622  12.3671   H         1 RES1   0.0000
    35 C17     -3.5917  10.8929  11.7939   C.ar      1 RES1   0.0000
    36 H8      -4.0718  10.7953  12.5844   H         1 RES1   0.0000
    37 C18     -4.1214  11.5815  10.7435   C.ar      1 RES1   0.0000
    38 H9      -4.9716  11.9525  10.8119   H         1 RES1   0.0000
    39 C19     -3.3982  11.7253   9.5866   C.ar      1 RES1   0.0000
    40 H10     -3.7702  12.2016   8.8797   H         1 RES1   0.0000
    41 C20      2.8282   8.2324  10.4592   C.ar      1 RES1   0.0000
    42 C21      3.7967   8.0318   9.4984   C.ar      1 RES1   0.0000
    43 H11      3.7493   8.4469   8.6668   H         1 RES1   0.0000
    44 C22      4.8377   7.1900   9.8207   C.ar      1 RES1   0.0000
    45 H12      5.5217   7.0361   9.2095   H         1 RES1   0.0000
    46 C23      4.8620   6.5763  11.0551   C.ar      1 RES1   0.0000
    47 H13      5.5377   5.9740  11.2695   H         1 RES1   0.0000
    48 C24      3.8862   6.8617  11.9505   C.ar      1 RES1   0.0000
    49 H14      3.9306   6.4699  12.7942   H         1 RES1   0.0000
    50 C25      0.6655  13.7818   8.8675   C.1       1 RES1   0.0000
    51 N1B     -2.2211  13.9109   3.0131   N.am      1 RES1   0.0000
    52 N2B     -2.4380  13.3687   4.2797   N.pl3     1 RES1   0.0000
    53 N3B     -2.1225  12.4088   6.1961   N.2       1 RES1   0.0000
    54 N4B     -3.3627  13.0132   6.2390   N.2       1 RES1   0.0000
    55 N5B      0.2969  11.4422   5.7601   N.ar      1 RES1   0.0000
    56 N6B     -4.7363  14.9673   3.5254   N.ar      1 RES1   0.0000
    57 N7B     -1.8227   9.5534   6.8927   N.2       1 RES1   0.0000
    58 O1B     -3.2032  12.0618   2.1429   O.2       1 RES1   0.0000
    59 O2B     -1.6979  15.8416   4.0838   O.2       1 RES1   0.0000
    60 S1B     -3.6078   7.8692   5.5966   S.2       1 RES1   0.0000
    61 C1B     -2.8184  13.9034   0.6537   C.ar      1 RES1   0.0000
    62 C2B     -3.2718  13.2501  -0.4728   C.ar      1 RES1   0.0000
    63 H1B     -3.5558  12.3646  -0.4272   H         1 RES1   0.0000
    64 C3B     -3.2931  13.9611  -1.7057   C.ar      1 RES1   0.0000
    65 H2B     -3.5839  13.5263  -2.4749   H         1 RES1   0.0000
    66 C4B     -2.9064  15.2361  -1.7847   C.ar      1 RES1   0.0000
    67 H3B     -2.9582  15.6754  -2.6011   H         1 RES1   0.0000
    68 C5B     -2.4265  15.9245  -0.6704   C.ar      1 RES1   0.0000
    69 C6B     -1.9920  17.2561  -0.7191   C.ar      1 RES1   0.0000
    70 H4B     -1.9961  17.7022  -1.5354   H         1 RES1   0.0000
    71 C7B     -1.5675  17.9060   0.3801   C.ar      1 RES1   0.0000
    72 H5B     -1.2832  18.7892   0.3132   H         1 RES1   0.0000
    73 C8B     -1.5524  17.2561   1.6434   C.ar      1 RES1   0.0000
    74 H6B     -1.2776  17.7113   2.4050   H         1 RES1   0.0000
    75 C9B     -1.9463  15.9449   1.7224   C.ar      1 RES1   0.0000
    76 C10B    -2.3985  15.2332   0.5868   C.ar      1 RES1   0.0000
    77 C11B    -2.7971  13.1794   1.9520   C.2       1 RES1   0.0000
    78 C12B    -1.9459  15.2954   3.0268   C.2       1 RES1   0.0000
    79 C13B    -1.5591  12.6345   5.0320   C.2       1 RES1   0.0000
    80 C14B    -3.5452  13.5931   5.0760   C.2       1 RES1   0.0000
    81 C15B    -0.2295  12.1252   4.7355   C.ar      1 RES1   0.0000
    82 C16B     0.4506  12.3057   3.5345   C.ar      1 RES1   0.0000
    83 H7B      0.0664  12.7836   2.8352   H         1 RES1   0.0000
    84 C17B     1.7148  11.7529   3.4084   C.ar      1 RES1   0.0000
    85 H8B      2.1950  11.8505   2.6178   H         1 RES1   0.0000
    86 C18B     2.2445  11.0643   4.4588   C.ar      1 RES1   0.0000
    87 H9B      3.0948  10.6933   4.3904   H         1 RES1   0.0000
    88 C19B     1.5214  10.9205   5.6157   C.ar      1 RES1   0.0000
    89 H10B     1.8934  10.4442   6.3226   H         1 RES1   0.0000
    90 C20B    -4.7051  14.4134   4.7431   C.ar      1 RES1   0.0000
    91 C21B    -5.6736  14.6140   5.7039   C.ar      1 RES1   0.0000
    92 H11B    -5.6261  14.1989   6.5355   H         1 RES1   0.0000
    93 C22B    -6.7145  15.4558   5.3816   C.ar      1 RES1   0.0000
    94 H12B    -7.3985  15.6097   5.9927   H         1 RES1   0.0000
    95 C23B    -6.7389  16.0695   4.1472   C.ar      1 RES1   0.0000
    96 H13B    -7.4146  16.6718   3.9328   H         1 RES1   0.0000
    97 C24B    -5.7631  15.7841   3.2518   C.ar      1 RES1   0.0000
    98 H14B    -5.8074  16.1759   2.4080   H         1 RES1   0.0000
    99 C25B    -2.5424   8.8640   6.3348   C.1       1 RES1   0.0000
   100 N8      -0.9650  14.0200  13.9359   N.am      2 RES2   0.0000
   101 O3      -1.2512  12.8855  15.7572   O.2       2 RES2   0.0000
   102 C26     -0.5487  15.1682  14.6231   C.3       2 RES2   0.0000
   103 H15     -0.5058  14.9802  15.5641   H         2 RES2   0.0000
   104 H16     -1.1742  15.8792  14.4665   H         2 RES2   0.0000
   105 H17      0.3197  15.4308  14.3099   H         2 RES2   0.0000
   106 C27     -1.0377  14.0381  12.4583   C.3       2 RES2   0.0000
   107 H18     -1.7791  13.5014  12.1679   H         2 RES2   0.0000
   108 H19     -0.2234  13.6826  12.0934   H         2 RES2   0.0000
   109 H20     -1.1573  14.9394  12.1527   H         2 RES2   0.0000
   110 C28     -1.2695  12.9828  14.5653   C.2       2 RES2   0.0000
   111 H21     -1.5277  12.2378  14.0743   H         2 RES2   0.0000
@<TRIPOS>BOND
     1     1     4    1
     2     2     3    1
     3     3    30    1
     4     4     5    1
     5     5    31    2
     6     6     1    1
     7     7    41   ar
     8     8     1    1
     9     9    28    2
    10    10    29    2
    11    11    50    2
    12    12    13   ar
    13    13    14    1
    14    15    13   ar
    15    16    15    1
    16    17    15   ar
    17    18    17    1
    18    19    17   ar
    19    20    19   ar
    20    21    20    1
    21    22    20   ar
    22    23    22    1
    23    24    22   ar
    24    25    24    1
    25    26    24   ar
    26    27    12   ar
    27    28     2   am
    28    29     2   am
    29    30     4    2
    30    31     3    1
    31    32     6   ar
    32    33    32   ar
    33    34    33    1
    34    35    33   ar
    35    36    35    1
    36    37    35   ar
    37    38    37    1
    38    39     6   ar
    39    40    39    1
    40    41    31    1
    41    42    41   ar
    42    43    42    1
    43    44    42   ar
    44    45    44    1
    45    46    44   ar
    46    47    46    1
    47    48     7   ar
    48    49    48    1
    49    50     8    2
    50    51    52    1
    51    52    79    1
    52    53     1    1
    53    54    53    1
    54    55     1    1
    55    56    90   ar
    56    57     1    1
    57    58    77    2
    58    59    78    2
    59    60    99    2
    60    61    62   ar
    61    62    63    1
    62    64    62   ar
    63    65    64    1
    64    66    64   ar
    65    67    66    1
    66    68    66   ar
    67    69    68   ar
    68    70    69    1
    69    71    69   ar
    70    72    71    1
    71    73    71   ar
    72    74    73    1
    73    75    73   ar
    74    76    61   ar
    75    77    51   am
    76    78    51   am
    77    79    53    2
    78    80    52    1
    79    81    55   ar
    80    82    81   ar
    81    83    82    1
    82    84    82   ar
    83    85    84    1
    84    86    84   ar
    85    87    86    1
    86    88    55   ar
    87    89    88    1
    88    90    80    1
    89    91    90   ar
    90    92    91    1
    91    93    91   ar
    92    94    93    1
    93    95    93   ar
    94    96    95    1
    95    97    56   ar
    96    98    97    1
    97    99    57    2
    98    12    28    1
    99    19    27   ar
   100    26    27   ar
   101    26    29    1
   102    30    32    1
   103    37    39   ar
   104    46    48   ar
   105    54    80    2
   106    61    77    1
   107    68    76   ar
   108    75    76   ar
   109    75    78    1
   110    79    81    1
   111    86    88   ar
   112    95    97   ar
   113   100   102    1
   114   101   110    2
   115   102   103    1
   116   104   102    1
   117   105   102    1
   118   106   100    1
   119   107   106    1
   120   108   106    1
   121   109   106    1
   122   110   100   am
   123   111   110    1
@<TRIPOS>SUBSTRUCTURE
     1 RES1        1 GROUP             0 ****  ****    0  
     2 RES2      100 GROUP             0 ****  ****    0  
@<TRIPOS>CRYSIN
    8.0711   22.6458   15.3177   90.0000   97.0380   90.0000    14     1
