@<TRIPOS>MOLECULE
COHTAY
   135   139     2     0     0
SMALL
NO_CHARGES
****
Generated from the CSD

@<TRIPOS>ATOM
     1 Fe1      6.6936  10.6959  10.4434   Fe        1 RES1   0.0000
     2 S1       8.6563  12.7710  12.4339   S.o2      1 RES1   0.0000
     3 S2       5.1381   9.7619  13.2733   S.o2      1 RES1   0.0000
     4 Si1      1.2394  13.2539  10.9542   Si        1 RES1   0.0000
     5 Si2      3.9769   5.6777   8.4334   Si        1 RES1   0.0000
     6 F1       9.6794  10.7515  13.6966   F         1 RES1   0.0000
     7 F2      10.6899  11.2289  11.8623   F         1 RES1   0.0000
     8 F3      10.9785  12.4613  13.5695   F         1 RES1   0.0000
     9 F4       4.5186   7.2592  12.9567   F         1 RES1   0.0000
    10 F5       2.9369   8.6326  12.4817   F         1 RES1   0.0000
    11 F6       3.4559   8.2308  14.5302   F         1 RES1   0.0000
    12 O1       7.6821  11.8017  11.9862   O.3       1 RES1   0.0000
    13 O2       8.2990  13.4166  13.6439   O.2       1 RES1   0.0000
    14 O3       9.1636  13.6151  11.4026   O.2       1 RES1   0.0000
    15 O4       5.5076   9.7341  11.8529   O.3       1 RES1   0.0000
    16 O5       6.1695   9.3681  14.1578   O.2       1 RES1   0.0000
    17 O6       4.3853  10.9048  13.6522   O.2       1 RES1   0.0000
    18 N1       5.2086  12.3076  10.1527   N.ar      1 RES1   0.0000
    19 N2       7.3667  11.7493   8.6141   N.3       1 RES1   0.0000
    20 N3       5.8646   9.3846   8.9313   N.ar      1 RES1   0.0000
    21 N4       8.6606   9.7654  10.0477   N.ar      1 RES1   0.0000
    22 C1       3.9563  12.3715  10.6577   C.ar      1 RES1   0.0000
    23 H1       3.6928  11.6985  11.2753   H         1 RES1   0.0000
    24 C2       3.0289  13.3534  10.3362   C.ar      1 RES1   0.0000
    25 C3       3.4615  14.3301   9.4380   C.ar      1 RES1   0.0000
    26 H2       2.8676  15.0260   9.1801   H         1 RES1   0.0000
    27 C4       4.7412  14.2990   8.9188   C.ar      1 RES1   0.0000
    28 H3       5.0318  14.9700   8.3136   H         1 RES1   0.0000
    29 C5       5.5923  13.2751   9.2953   C.ar      1 RES1   0.0000
    30 C6       7.0002  13.1745   8.7803   C.3       1 RES1   0.0000
    31 H4       7.0738  13.6418   7.9104   H         1 RES1   0.0000
    32 H5       7.6223  13.6075   9.4187   H         1 RES1   0.0000
    33 C7       6.6284  11.1786   7.4529   C.3       1 RES1   0.0000
    34 H6       7.2388  11.1551   6.6732   H         1 RES1   0.0000
    35 H7       5.8809  11.7857   7.2274   H         1 RES1   0.0000
    36 C8       6.0742   9.7976   7.6681   C.ar      1 RES1   0.0000
    37 C9       5.6977   9.0203   6.5821   C.ar      1 RES1   0.0000
    38 H8       5.8515   9.3239   5.6951   H         1 RES1   0.0000
    39 C10      5.0985   7.8011   6.8094   C.ar      1 RES1   0.0000
    40 H9       4.8373   7.2670   6.0675   H         1 RES1   0.0000
    41 C11      4.8630   7.3276   8.1116   C.ar      1 RES1   0.0000
    42 C12      5.2774   8.1801   9.1221   C.ar      1 RES1   0.0000
    43 H10      5.1384   7.8976  10.0175   H         1 RES1   0.0000
    44 C13      8.8281  11.6209   8.4667   C.3       1 RES1   0.0000
    45 H11      9.2630  12.3961   8.9022   H         1 RES1   0.0000
    46 H12      9.0566  11.6487   7.5037   H         1 RES1   0.0000
    47 C14      9.3764  10.3518   9.0631   C.ar      1 RES1   0.0000
    48 C15     10.6294   9.9016   8.6844   C.ar      1 RES1   0.0000
    49 H13     11.0942  10.3158   7.9687   H         1 RES1   0.0000
    50 C16     11.1890   8.8459   9.3584   C.ar      1 RES1   0.0000
    51 H14     12.0522   8.5267   9.1218   H         1 RES1   0.0000
    52 C17     10.4842   8.2526  10.3835   C.ar      1 RES1   0.0000
    53 H15     10.8653   7.5317  10.8703   H         1 RES1   0.0000
    54 C18      9.2137   8.7171  10.7027   C.ar      1 RES1   0.0000
    55 C19      8.4027   8.0860  11.7914   C.3       1 RES1   0.0000
    56 H16      7.5970   7.6843  11.4074   H         1 RES1   0.0000
    57 H17      8.1476   8.7696  12.4455   H         1 RES1   0.0000
    58 H18      8.9351   7.3916  12.2345   H         1 RES1   0.0000
    59 C20      0.3160  12.1999   9.6800   C.3       1 RES1   0.0000
    60 H19     -0.5913  12.0115  10.0535   H         1 RES1   0.0000
    61 C21      1.0022  10.8545   9.4667   C.3       1 RES1   0.0000
    62 H20      0.4670  10.3096   8.8541   H         1 RES1   0.0000
    63 H21      1.0880  10.3921  10.3264   H         1 RES1   0.0000
    64 H22      1.8921  10.9994   9.0841   H         1 RES1   0.0000
    65 C22      0.1149  12.9068   8.3411   C.3       1 RES1   0.0000
    66 H23      0.9873  13.0781   7.9275   H         1 RES1   0.0000
    67 H24     -0.3502  13.7570   8.4852   H         1 RES1   0.0000
    68 H25     -0.4208  12.3385   7.7474   H         1 RES1   0.0000
    69 C23      1.2127  12.3665  12.6159   C.3       1 RES1   0.0000
    70 H26      1.7563  11.5381  12.4867   H         1 RES1   0.0000
    71 C24     -0.1915  11.8822  13.0392   C.3       1 RES1   0.0000
    72 H27     -0.7525  12.6561  13.2572   H         1 RES1   0.0000
    73 H28     -0.1161  11.3030  13.8251   H         1 RES1   0.0000
    74 H29     -0.6010  11.3808  12.3014   H         1 RES1   0.0000
    75 C25      1.8927  13.1326  13.7548   C.3       1 RES1   0.0000
    76 H30      2.7622  13.4689  13.4493   H         1 RES1   0.0000
    77 H31      2.0258  12.5315  14.5184   H         1 RES1   0.0000
    78 H32      1.3282  13.8847  14.0259   H         1 RES1   0.0000
    79 C26      0.5538  15.0089  10.9407   C.3       1 RES1   0.0000
    80 H33      0.6068  15.3172   9.9901   H         1 RES1   0.0000
    81 C27     -0.9409  15.0743  11.3250   C.3       1 RES1   0.0000
    82 H34     -1.2778  15.9805  11.1706   H         1 RES1   0.0000
    83 H35     -1.0453  14.8438  12.2722   H         1 RES1   0.0000
    84 H36     -1.4472  14.4374  10.7777   H         1 RES1   0.0000
    85 C28      1.3590  16.0210  11.7540   C.3       1 RES1   0.0000
    86 H37      2.3062  15.9463  11.5207   H         1 RES1   0.0000
    87 H38      1.2401  15.8388  12.7098   H         1 RES1   0.0000
    88 H39      1.0416  16.9257  11.5533   H         1 RES1   0.0000
    89 C29      4.4393   5.0777  10.1548   C.3       1 RES1   0.0000
    90 H40      4.2265   5.8345  10.7725   H         1 RES1   0.0000
    91 C30      5.9263   4.7819  10.3590   C.3       1 RES1   0.0000
    92 H41      6.1671   3.9659   9.8717   H         1 RES1   0.0000
    93 H42      6.1070   4.6573  11.3130   H         1 RES1   0.0000
    94 H43      6.4592   5.5324  10.0209   H         1 RES1   0.0000
    95 C31      3.5946   3.8741  10.6558   C.3       1 RES1   0.0000
    96 H44      2.6416   4.0812  10.5615   H         1 RES1   0.0000
    97 H45      3.8007   3.6997  11.5979   H         1 RES1   0.0000
    98 H46      3.8107   3.0799  10.1222   H         1 RES1   0.0000
    99 C32      2.1291   6.0369   8.3973   C.3       1 RES1   0.0000
   100 H47      1.6563   5.1618   8.5006   H         1 RES1   0.0000
   101 C33      1.6834   6.6395   7.0627   C.3       1 RES1   0.0000
   102 H48      1.9457   6.0415   6.3317   H         1 RES1   0.0000
   103 H49      2.1115   7.5115   6.9392   H         1 RES1   0.0000
   104 H50      0.7098   6.7485   7.0627   H         1 RES1   0.0000
   105 C34      1.6858   6.9275   9.5508   C.3       1 RES1   0.0000
   106 H51      2.1228   7.8026   9.4753   H         1 RES1   0.0000
   107 H52      1.9353   6.5102  10.4019   H         1 RES1   0.0000
   108 H53      0.7130   7.0459   9.5182   H         1 RES1   0.0000
   109 C35      4.4052   4.5156   7.0026   C.3       1 RES1   0.0000
   110 H54      4.0173   4.9625   6.1962   H         1 RES1   0.0000
   111 C36      3.6675   3.1703   7.0833   C.3       1 RES1   0.0000
   112 H55      2.7105   3.3306   7.2223   H         1 RES1   0.0000
   113 H56      4.0215   2.6471   7.8332   H         1 RES1   0.0000
   114 H57      3.7975   2.6751   6.2494   H         1 RES1   0.0000
   115 C37      5.8628   4.3505   6.6715   C.3       1 RES1   0.0000
   116 H58      5.9541   3.8507   5.8341   H         1 RES1   0.0000
   117 H59      6.3094   3.8616   7.3956   H         1 RES1   0.0000
   118 H60      6.2757   5.2334   6.5720   H         1 RES1   0.0000
   119 C38     10.0736  11.7483  12.9088   C.3       1 RES1   0.0000
   120 C39      3.9520   8.3741  13.3121   C.3       1 RES1   0.0000
   121 O7       7.1909   0.9090   9.5679   O.3       2 RES2   0.0000
   122 C40      7.4075   1.0837  11.0007   C.3       2 RES2   0.0000
   123 H61      7.5451   2.0429  11.2032   H         2 RES2   0.0000
   124 H62      8.2189   0.5886  11.2787   H         2 RES2   0.0000
   125 C41      6.2156   0.5715  11.7677   C.3       2 RES2   0.0000
   126 H63      5.4068   1.0386  11.4675   H         2 RES2   0.0000
   127 H64      6.3478   0.7334  12.7252   H         2 RES2   0.0000
   128 H65      6.1135  -0.3908  11.6099   H         2 RES2   0.0000
   129 C42      8.1987   1.3671   8.7700   C.3       2 RES2   0.0000
   130 H66      9.0439   0.9078   9.0034   H         2 RES2   0.0000
   131 H67      8.3255   2.3388   8.9159   H         2 RES2   0.0000
   132 C43      7.8591   1.1055   7.3098   C.3       2 RES2   0.0000
   133 H68      8.4927   1.5867   6.7350   H         2 RES2   0.0000
   134 H69      6.9493   1.4170   7.1245   H         2 RES2   0.0000
   135 H70      7.9190   0.1448   7.1262   H         2 RES2   0.0000
@<TRIPOS>BOND
     1     1    12    1
     2     2    12    1
     3     3    15    1
     4     4    24    1
     5     5    41    1
     6     6   119    1
     7     7   119    1
     8     8   119    1
     9     9   120    1
    10    10   120    1
    11    11   120    1
    12    13     2    2
    13    14     2    2
    14    15     1    1
    15    16     3    2
    16    17     3    2
    17    18     1    1
    18    19     1    1
    19    20     1    1
    20    21     1    1
    21    22    18   ar
    22    23    22    1
    23    24    22   ar
    24    25    24   ar
    25    26    25    1
    26    27    25   ar
    27    28    27    1
    28    29    18   ar
    29    30    19    1
    30    31    30    1
    31    32    30    1
    32    33    19    1
    33    34    33    1
    34    35    33    1
    35    36    20   ar
    36    37    36   ar
    37    38    37    1
    38    39    37   ar
    39    40    39    1
    40    41    39   ar
    41    42    20   ar
    42    43    42    1
    43    44    19    1
    44    45    44    1
    45    46    44    1
    46    47    21   ar
    47    48    47   ar
    48    49    48    1
    49    50    48   ar
    50    51    50    1
    51    52    50   ar
    52    53    52    1
    53    54    21   ar
    54    55    54    1
    55    56    55    1
    56    57    55    1
    57    58    55    1
    58    59     4    1
    59    60    59    1
    60    61    59    1
    61    62    61    1
    62    63    61    1
    63    64    61    1
    64    65    59    1
    65    66    65    1
    66    67    65    1
    67    68    65    1
    68    69     4    1
    69    70    69    1
    70    71    69    1
    71    72    71    1
    72    73    71    1
    73    74    71    1
    74    75    69    1
    75    76    75    1
    76    77    75    1
    77    78    75    1
    78    79     4    1
    79    80    79    1
    80    81    79    1
    81    82    81    1
    82    83    81    1
    83    84    81    1
    84    85    79    1
    85    86    85    1
    86    87    85    1
    87    88    85    1
    88    89     5    1
    89    90    89    1
    90    91    89    1
    91    92    91    1
    92    93    91    1
    93    94    91    1
    94    95    89    1
    95    96    95    1
    96    97    95    1
    97    98    95    1
    98    99     5    1
    99   100    99    1
   100   101    99    1
   101   102   101    1
   102   103   101    1
   103   104   101    1
   104   105    99    1
   105   106   105    1
   106   107   105    1
   107   108   105    1
   108   109     5    1
   109   110   109    1
   110   111   109    1
   111   112   111    1
   112   113   111    1
   113   114   111    1
   114   115   109    1
   115   116   115    1
   116   117   115    1
   117   118   115    1
   118   119     2    1
   119   120     3    1
   120    27    29   ar
   121    29    30    1
   122    33    36    1
   123    41    42   ar
   124    44    47    1
   125    52    54   ar
   126   121   122    1
   127   122   123    1
   128   124   122    1
   129   125   122    1
   130   126   125    1
   131   127   125    1
   132   128   125    1
   133   129   121    1
   134   130   129    1
   135   131   129    1
   136   132   129    1
   137   133   132    1
   138   134   132    1
   139   135   132    1
@<TRIPOS>SUBSTRUCTURE
     1 RES1        1 GROUP             0 ****  ****    0  
     2 RES2      121 GROUP             0 ****  ****    0  
@<TRIPOS>CRYSIN
   20.4160   15.5710   17.1650   90.0000   91.4960   90.0000    14     1
