@<TRIPOS>MOLECULE
COKKET
    80    85     2     0     0
SMALL
USER_CHARGES
****
Generated from the CSD

@<TRIPOS>ATOM
     1 Fe1      1.5134   9.6483   9.9346   Fe        1 RES1   0.0000
     2 N1       2.6466  11.2477   9.5156   N.ar      1 RES1   0.0000
     3 N2       3.2679   8.9771  10.5746   N.ar      1 RES1   0.0000
     4 N3      -1.1125  10.8328   8.8844   N.1       1 RES1   0.0000
     5 N4       2.1977   8.6086   7.0873   N.1       1 RES1   0.0000
     6 N5      -0.0556   7.1343  10.7439   N.1       1 RES1   0.0000
     7 N6       0.9464  10.7714  12.7712   N.1       1 RES1   0.0000
     8 C1       2.2196  12.4198   9.0226   C.ar      1 RES1   0.0000
     9 H1       1.3185  12.5000   8.8072   H         1 RES1   0.0000
    10 C2       3.0416  13.5184   8.8161   C.ar      1 RES1   0.0000
    11 C3       2.4706  14.8114   8.3334   C.3       1 RES1   0.0000
    12 H2       1.8731  14.6433   7.6012   H         1 RES1   0.0000
    13 H3       3.1819  15.3852   8.0408   H         1 RES1   0.0000
    14 H4       1.9907  15.2353   9.0478   H         1 RES1   0.0000
    15 C4       4.4043  13.3268   9.0567   C.ar      1 RES1   0.0000
    16 H5       5.0049  14.0188   8.8978   H         1 RES1   0.0000
    17 C5       4.8601  12.1175   9.5275   C.ar      1 RES1   0.0000
    18 H6       5.7683  11.9904   9.6805   H         1 RES1   0.0000
    19 C6       3.9686  11.0974   9.7756   C.ar      1 RES1   0.0000
    20 C7       4.3168   9.8039  10.3667   C.ar      1 RES1   0.0000
    21 C8       5.6034   9.4125  10.7053   C.ar      1 RES1   0.0000
    22 H7       6.3220   9.9820  10.5464   H         1 RES1   0.0000
    23 C9       5.8109   8.1760  11.2786   C.ar      1 RES1   0.0000
    24 H8       6.6729   7.9012  11.4939   H         1 RES1   0.0000
    25 C10      4.7394   7.3461  11.5340   C.ar      1 RES1   0.0000
    26 C11      4.8953   5.9902  12.1905   C.3       1 RES1   0.0000
    27 H9       4.0368   5.5655  12.2558   H         1 RES1   0.0000
    28 H10      5.2640   6.1026  13.0697   H         1 RES1   0.0000
    29 H11      5.4832   5.4456  11.6632   H         1 RES1   0.0000
    30 C12      3.4851   7.7865  11.1538   C.ar      1 RES1   0.0000
    31 H12      2.7568   7.2292  11.3053   H         1 RES1   0.0000
    32 C13     -0.1462  10.3702   9.2632   C.1       1 RES1   0.0000
    33 C14      0.5127   8.0800  10.4172   C.1       1 RES1   0.0000
    34 C15      1.1277  10.3592  11.7271   C.1       1 RES1   0.0000
    35 C16      1.9203   8.9508   8.1359   C.1       1 RES1  -1.0000
    36 P1       1.8482  21.5542   6.4238   P.3       2 RES2   1.0000
    37 C17      0.2112  21.1855   4.2224   C.ar      2 RES2   0.0000
    38 H13      0.1960  20.2888   4.4704   H         2 RES2   0.0000
    39 C18     -0.4903  21.6052   3.1115   C.ar      2 RES2   0.0000
    40 H14     -0.9868  20.9932   2.6154   H         2 RES2   0.0000
    41 C19     -0.4553  22.9366   2.7387   C.ar      2 RES2   0.0000
    42 H15     -0.9112  23.2214   1.9798   H         2 RES2   0.0000
    43 C20      0.2549  23.8359   3.4902   C.ar      2 RES2   0.0000
    44 H16      0.2566  24.7327   3.2481   H         2 RES2   0.0000
    45 C21      0.9659  23.4332   4.5982   C.ar      2 RES2   0.0000
    46 H17      1.4590  24.0482   5.0898   H         2 RES2   0.0000
    47 C22      3.5510  21.1658   5.9868   C.ar      2 RES2   0.0000
    48 C23      4.1240  21.6694   4.8269   C.ar      2 RES2   0.0000
    49 H18      3.6390  22.2372   4.2714   H         2 RES2   0.0000
    50 C24      5.4196  21.3204   4.5031   C.ar      2 RES2   0.0000
    51 H19      5.8133  21.6552   3.7308   H         2 RES2   0.0000
    52 C25      6.1181  20.4861   5.3170   C.ar      2 RES2   0.0000
    53 H20      6.9948  20.2638   5.1016   H         2 RES2   0.0000
    54 C26      5.5618  19.9765   6.4324   C.ar      2 RES2   0.0000
    55 H21      6.0427  19.3720   6.9492   H         2 RES2   0.0000
    56 C27      4.2804  20.3437   6.8200   C.ar      2 RES2   0.0000
    57 H22      3.9214  20.0415   7.6220   H         2 RES2   0.0000
    58 C28      1.0708  20.0440   7.0175   C.ar      2 RES2   0.0000
    59 C29      1.4621  18.8327   6.4502   C.ar      2 RES2   0.0000
    60 H23      2.1723  18.8099   5.8487   H         2 RES2   0.0000
    61 C30      0.7981  17.6684   6.7784   C.ar      2 RES2   0.0000
    62 H24      1.0627  16.8590   6.4042   H         2 RES2   0.0000
    63 C31     -0.2473  17.7083   7.6532   C.ar      2 RES2   0.0000
    64 H25     -0.7003  16.9215   7.8582   H         2 RES2   0.0000
    65 C32     -0.6414  18.8724   8.2309   C.ar      2 RES2   0.0000
    66 H26     -1.3465  18.8774   8.8384   H         2 RES2   0.0000
    67 C33      0.0221  20.0739   7.9101   C.ar      2 RES2   0.0000
    68 H27     -0.2462  20.8758   8.2948   H         2 RES2   0.0000
    69 C34      1.8184  22.8754   7.6220   C.ar      2 RES2   0.0000
    70 C35      0.6111  23.4562   7.9785   C.ar      2 RES2   0.0000
    71 H28     -0.1814  23.1390   7.6101   H         2 RES2   0.0000
    72 C36      0.5810  24.4929   8.8696   C.ar      2 RES2   0.0000
    73 H29     -0.2330  24.8626   9.1236   H         2 RES2   0.0000
    74 C37      1.7477  24.9825   9.3864   C.ar      2 RES2   0.0000
    75 H30      1.7201  25.7069   9.9701   H         2 RES2   0.0000
    76 C38      2.9551  24.4304   9.0612   C.ar      2 RES2   0.0000
    77 H31      3.7394  24.7702   9.4280   H         2 RES2   0.0000
    78 C39      3.0067  23.3588   8.1790   C.ar      2 RES2   0.0000
    79 H32      3.8212  22.9641   7.9636   H         2 RES2   0.0000
    80 C40      0.9366  22.0946   4.9695   C.ar      2 RES2   0.0000
@<TRIPOS>BOND
     1     1     2    1
     2     2     8   ar
     3     3     1    1
     4     4    32    3
     5     5    35    3
     6     6    33    3
     7     7    34    3
     8     8     9    1
     9    10     8   ar
    10    11    10    1
    11    12    11    1
    12    13    11    1
    13    14    11    1
    14    15    10   ar
    15    16    15    1
    16    17    15   ar
    17    18    17    1
    18    19     2   ar
    19    20     3   ar
    20    21    20   ar
    21    22    21    1
    22    23    21   ar
    23    24    23    1
    24    25    23   ar
    25    26    25    1
    26    27    26    1
    27    28    26    1
    28    29    26    1
    29    30     3   ar
    30    31    30    1
    31    32     1    1
    32    33     1    1
    33    34     1    1
    34    35     1    1
    35    17    19   ar
    36    19    20    1
    37    25    30   ar
    38    36    47    1
    39    37    38    1
    40    39    37   ar
    41    40    39    1
    42    41    39   ar
    43    42    41    1
    44    43    41   ar
    45    44    43    1
    46    45    43   ar
    47    46    45    1
    48    47    48   ar
    49    48    49    1
    50    50    48   ar
    51    51    50    1
    52    52    50   ar
    53    53    52    1
    54    54    52   ar
    55    55    54    1
    56    56    47   ar
    57    57    56    1
    58    58    36    1
    59    59    58   ar
    60    60    59    1
    61    61    59   ar
    62    62    61    1
    63    63    61   ar
    64    64    63    1
    65    65    63   ar
    66    66    65    1
    67    67    58   ar
    68    68    67    1
    69    69    36    1
    70    70    69   ar
    71    71    70    1
    72    72    70   ar
    73    73    72    1
    74    74    72   ar
    75    75    74    1
    76    76    74   ar
    77    77    76    1
    78    78    69   ar
    79    79    78    1
    80    80    36    1
    81    37    80   ar
    82    45    80   ar
    83    54    56   ar
    84    65    67   ar
    85    76    78   ar
@<TRIPOS>SUBSTRUCTURE
     1 RES1        1 GROUP             0 ****  ****    0  
     2 RES2       36 GROUP             0 ****  ****    0  
@<TRIPOS>CRYSIN
    9.2930   24.9800   14.9040   90.0000   94.7900   90.0000    14     1
