@<TRIPOS>MOLECULE
COKKIX
    83    87     3     0     0
SMALL
USER_CHARGES
****
Generated from the CSD

@<TRIPOS>ATOM
     1 Fe1     20.4491  12.5313   7.2487   Fe        1 RES1   0.0000
     2 N1      19.9797  10.6496   7.6773   N.ar      1 RES1   0.0000
     3 N2      21.9849  11.6141   6.4007   N.ar      1 RES1   0.0000
     4 N3      18.6502  12.2735   4.7530   N.1       1 RES1   0.0000
     5 N4      21.2766  15.2910   6.2476   N.1       1 RES1   0.0000
     6 N5      18.2422  13.9462   8.8092   N.1       1 RES1   0.0000
     7 N6      22.2445  12.5972   9.7550   N.1       1 RES1   0.0000
     8 C1      19.0410  13.3983   8.2043   C.1       1 RES1   0.0000
     9 C2      20.9592  14.2835   6.6590   C.1       1 RES1   0.0000
    10 C3      19.3090  12.3865   5.6741   C.1       1 RES1   0.0000
    11 C4      21.5551  12.6301   8.8504   C.1       1 RES1  -1.0000
    12 C5      18.9026  10.2293   8.3446   C.ar      1 RES1   0.0000
    13 H3      18.3033  10.8628   8.6646   H         1 RES1   0.0000
    14 C6      18.6435   8.9068   8.5784   C.ar      1 RES1   0.0000
    15 H4      17.8860   8.6579   9.0590   H         1 RES1   0.0000
    16 C7      19.5074   7.9419   8.1002   C.ar      1 RES1   0.0000
    17 C8      19.2691   6.4699   8.3362   C.3       1 RES1   0.0000
    18 H5      20.0091   5.9662   7.9879   H         1 RES1   0.0000
    19 H6      18.4606   6.2011   7.8939   H         1 RES1   0.0000
    20 H7      19.1858   6.3064   9.2785   H         1 RES1   0.0000
    21 C9      20.6185   8.3656   7.4110   C.ar      1 RES1   0.0000
    22 H8      21.2269   7.7462   7.0802   H         1 RES1   0.0000
    23 C10     20.8269   9.7254   7.2101   C.ar      1 RES1   0.0000
    24 C11     21.9995  10.2677   6.5070   C.ar      1 RES1   0.0000
    25 C12     23.0308   9.5100   6.0081   C.ar      1 RES1   0.0000
    26 H9      22.9966   8.5827   6.0784   H         1 RES1   0.0000
    27 C13     24.1163  10.1075   5.4042   C.ar      1 RES1   0.0000
    28 C14     25.2497   9.2882   4.8581   C.3       1 RES1   0.0000
    29 H10     25.5484   8.6692   5.5272   H         1 RES1   0.0000
    30 H11     25.9749   9.8684   4.6129   H         1 RES1   0.0000
    31 H12     24.9510   8.8045   4.0847   H         1 RES1   0.0000
    32 C15     24.1161  11.4850   5.3381   C.ar      1 RES1   0.0000
    33 H13     24.8392  11.9323   4.9628   H         1 RES1   0.0000
    34 C16     23.0476  12.1921   5.8249   C.ar      1 RES1   0.0000
    35 H14     23.0604  13.1184   5.7516   H         1 RES1   0.0000
    36 P1       2.3624  16.5417   9.5819   P.3       2 RES2   1.0000
    37 C17      1.9738  14.4816  11.3975   C.ar      2 RES2   0.0000
    38 H15      1.0673  14.6861  11.3448   H         2 RES2   0.0000
    39 C18      2.4064  13.4643  12.2196   C.ar      2 RES2   0.0000
    40 H16      1.7902  12.9737  12.7130   H         2 RES2   0.0000
    41 C19      3.7277  13.1720  12.3103   C.ar      2 RES2   0.0000
    42 H17      4.0114  12.4868  12.8698   H         2 RES2   0.0000
    43 C20      4.6312  13.8705  11.5924   C.ar      2 RES2   0.0000
    44 H18      5.5371  13.6673  11.6617   H         2 RES2   0.0000
    45 C21      4.2203  14.8778  10.7642   C.ar      2 RES2   0.0000
    46 H19      4.8483  15.3534  10.2688   H         2 RES2   0.0000
    47 C22      2.8821  15.1946  10.6561   C.ar      2 RES2   0.0000
    48 C23      2.5954  16.0915   7.8543   C.ar      2 RES2   0.0000
    49 C24      3.8554  15.7500   7.4251   C.ar      2 RES2   0.0000
    50 H20      4.5656  15.7519   8.0259   H         2 RES2   0.0000
    51 C25      4.0718  15.4060   6.1131   C.ar      2 RES2   0.0000
    52 H21      4.9282  15.1767   5.8309   H         2 RES2   0.0000
    53 C26      3.0417  15.3972   5.2202   C.ar      2 RES2   0.0000
    54 H22      3.1973  15.1805   4.3290   H         2 RES2   0.0000
    55 C27      1.7984  15.7030   5.6323   C.ar      2 RES2   0.0000
    56 H23      1.0901  15.6842   5.0288   H         2 RES2   0.0000
    57 C28      1.5724  16.0478   6.9564   C.ar      2 RES2   0.0000
    58 H24      0.7092  16.2519   7.2354   H         2 RES2   0.0000
    59 C29      3.3617  17.9780   9.9277   C.ar      2 RES2   0.0000
    60 C30      3.3692  19.0066   9.0062   C.ar      2 RES2   0.0000
    61 H25      2.9076  18.9173   8.2041   H         2 RES2   0.0000
    62 C31      4.0591  20.1575   9.2752   C.ar      2 RES2   0.0000
    63 H26      4.0410  20.8628   8.6696   H         2 RES2   0.0000
    64 C32      4.7640  20.2726  10.4206   C.ar      2 RES2   0.0000
    65 H27      5.2452  21.0508  10.5873   H         2 RES2   0.0000
    66 C33      4.7822  19.2556  11.3399   C.ar      2 RES2   0.0000
    67 H28      5.2702  19.3478  12.1255   H         2 RES2   0.0000
    68 C34      4.0759  18.1030  11.0973   C.ar      2 RES2   0.0000
    69 H29      4.0798  17.4117  11.7195   H         2 RES2   0.0000
    70 C35      0.6426  16.9196   9.9044   C.ar      2 RES2   0.0000
    71 C36      0.2675  18.0951  10.4914   C.ar      2 RES2   0.0000
    72 H30      0.9008  18.7519  10.6665   H         2 RES2   0.0000
    73 C37     -1.0659  18.3045  10.8266   C.ar      2 RES2   0.0000
    74 H31     -1.3227  19.0978  11.2392   H         2 RES2   0.0000
    75 C38     -2.0018  17.3421  10.5510   C.ar      2 RES2   0.0000
    76 H32     -2.8940  17.4868  10.7656   H         2 RES2   0.0000
    77 C39     -1.6331  16.1861   9.9668   C.ar      2 RES2   0.0000
    78 H33     -2.2737  15.5357   9.7885   H         2 RES2   0.0000
    79 C40     -0.3250  15.9568   9.6334   C.ar      2 RES2   0.0000
    80 H34     -0.0821  15.1560   9.2257   H         2 RES2   0.0000
    81 O1      16.7006  11.8295   2.4810   O.3       3 RES3   0.0000
    82 H1      17.2497  11.9417   3.1193   H         3 RES3   0.0000
    83 H2      16.7206  12.5921   1.8980   H         3 RES3   0.0000
@<TRIPOS>BOND
     1     1     2    1
     2     2    12   ar
     3     3     1    1
     4     4    10    3
     5     5     9    3
     6     6     8    3
     7     7    11    3
     8     8     1    1
     9     9     1    1
    10    10     1    1
    11    11     1    1
    12    12    13    1
    13    14    12   ar
    14    15    14    1
    15    16    14   ar
    16    17    16    1
    17    18    17    1
    18    19    17    1
    19    20    17    1
    20    21    16   ar
    21    22    21    1
    22    23     2   ar
    23    24     3   ar
    24    25    24   ar
    25    26    25    1
    26    27    25   ar
    27    28    27    1
    28    29    28    1
    29    30    28    1
    30    31    28    1
    31    32    27   ar
    32    33    32    1
    33    34     3   ar
    34    35    34    1
    35    21    23   ar
    36    23    24    1
    37    32    34   ar
    38    36    47    1
    39    37    38    1
    40    39    37   ar
    41    40    39    1
    42    41    39   ar
    43    42    41    1
    44    43    41   ar
    45    44    43    1
    46    45    43   ar
    47    46    45    1
    48    47    37   ar
    49    48    36    1
    50    49    48   ar
    51    50    49    1
    52    51    49   ar
    53    52    51    1
    54    53    51   ar
    55    54    53    1
    56    55    53   ar
    57    56    55    1
    58    57    48   ar
    59    58    57    1
    60    59    36    1
    61    60    59   ar
    62    61    60    1
    63    62    60   ar
    64    63    62    1
    65    64    62   ar
    66    65    64    1
    67    66    64   ar
    68    67    66    1
    69    68    59   ar
    70    69    68    1
    71    70    36    1
    72    71    70   ar
    73    72    71    1
    74    73    71   ar
    75    74    73    1
    76    75    73   ar
    77    76    75    1
    78    77    75   ar
    79    78    77    1
    80    79    70   ar
    81    80    79    1
    82    45    47   ar
    83    55    57   ar
    84    66    68   ar
    85    77    79   ar
    86    81    82    1
    87    83    81    1
@<TRIPOS>SUBSTRUCTURE
     1 RES1        1 GROUP             0 ****  ****    0  
     2 RES2       36 GROUP             0 ****  ****    0  
     3 RES3       81 GROUP             0 ****  ****    0  
@<TRIPOS>CRYSIN
   22.8050   18.7970   16.5040   90.0000   90.0000   90.0000    60     1
