@<TRIPOS>MOLECULE
COMQUR01
    91   100     1     0     0
SMALL
NO_CHARGES
****
Generated from the CSD

@<TRIPOS>ATOM
     1 Fe1      2.5972   4.2819   1.1984   Fe        1 RES1   0.0000
     2 S1       0.7813   1.1254  -1.8113   S.2       1 RES1   0.0000
     3 S2       4.8218   7.4148  -1.5228   S.2       1 RES1   0.0000
     4 N1       1.8874   3.0956  -0.1555   N.2       1 RES1   0.0000
     5 N2       4.2737   3.2370   1.3746   N.ar      1 RES1   0.0000
     6 N3       2.0395   3.0085   2.5626   N.2       1 RES1   0.0000
     7 C1      -5.6480   2.4662   5.6338   C.ar      1 RES1   0.0000
     8 C2      -5.7346   2.8842   7.0130   C.ar      1 RES1   0.0000
     9 C3       4.2653   2.3590   2.3947   C.ar      1 RES1   0.0000
    10 C4      -6.9839   2.7242   7.6864   C.ar      1 RES1   0.0000
    11 C5       2.9550   2.2098   3.0151   C.2       1 RES1   0.0000
    12 H1       2.7871   1.5882   3.6853   H         1 RES1   0.0000
    13 N4       3.3617   5.4592  -0.1508   N.2       1 RES1   0.0000
    14 C6       5.4835   6.3730   2.5191   C.ar      1 RES1   0.0000
    15 H2       5.2867   6.8702   1.7571   H         1 RES1   0.0000
    16 C7       6.7523   6.3776   3.0198   C.ar      1 RES1   0.0000
    17 H3       7.4068   6.8827   2.5953   H         1 RES1   0.0000
    18 N5       0.9504   5.3970   1.2875   N.ar      1 RES1   0.0000
    19 C8      13.5054   6.8625   6.4672   C.ar      1 RES1   0.0000
    20 H4      14.3386   7.1033   6.8000   H         1 RES1   0.0000
    21 C9       0.3558   3.4841   4.2685   C.ar      1 RES1   0.0000
    22 H5       0.9971   3.9441   4.7614   H         1 RES1   0.0000
    23 C10     -0.2567   2.2378   2.3449   C.ar      1 RES1   0.0000
    24 H6      -0.0340   1.8539   1.5270   H         1 RES1   0.0000
    25 N6       3.1688   5.6006   2.5207   N.2       1 RES1   0.0000
    26 C11     -0.9543   3.4079   4.7381   C.ar      1 RES1   0.0000
    27 H7      -1.1769   3.8104   5.5467   H         1 RES1   0.0000
    28 C12      1.4395   2.2766  -0.8584   C.1       1 RES1   0.0000
    29 C13      4.7838   4.8811   4.2358   C.ar      1 RES1   0.0000
    30 H8       4.1243   4.3792   4.6572   H         1 RES1   0.0000
    31 C14      0.7029   2.8904   3.0960   C.ar      1 RES1   0.0000
    32 C15     -7.9875   1.8601   5.6478   C.ar      1 RES1   0.0000
    33 H9      -8.7296   1.5416   5.1890   H         1 RES1   0.0000
    34 C16     -1.9205   2.7444   4.0181   C.ar      1 RES1   0.0000
    35 C17     -4.7558   3.7980   9.0314   C.ar      1 RES1   0.0000
    36 H10     -4.0301   4.1709   9.4777   H         1 RES1   0.0000
    37 C18      3.9571   6.2580  -0.7386   C.1       1 RES1   0.0000
    38 C19     -4.6479   3.4250   7.7361   C.ar      1 RES1   0.0000
    39 H11     -3.8299   3.5276   7.3054   H         1 RES1   0.0000
    40 C20      8.4285   5.7327   4.6479   C.1       1 RES1   0.0000
    41 C21      5.4009   3.3924   0.6889   C.ar      1 RES1   0.0000
    42 H12      5.4137   3.9845  -0.0280   H         1 RES1   0.0000
    43 C22      2.3495   6.5486   2.7648   C.2       1 RES1   0.0000
    44 H13      2.5648   7.2463   3.3417   H         1 RES1   0.0000
    45 C23     -6.7597   1.9891   4.9931   C.ar      1 RES1   0.0000
    46 H14     -6.6954   1.7451   4.0990   H         1 RES1   0.0000
    47 C24     11.9499   6.0544   4.7505   C.ar      1 RES1   0.0000
    48 H15     11.8177   5.7576   3.8797   H         1 RES1   0.0000
    49 C25      6.5709   2.6946   1.0139   C.ar      1 RES1   0.0000
    50 H16      7.3493   2.8143   0.5194   H         1 RES1   0.0000
    51 C26      6.5443   1.8353   2.0697   C.ar      1 RES1   0.0000
    52 H17      7.3165   1.3815   2.3185   H         1 RES1   0.0000
    53 C27     -1.5536   2.1632   2.8223   C.ar      1 RES1   0.0000
    54 H18     -2.1949   1.7078   2.3247   H         1 RES1   0.0000
    55 C28     12.3824   7.4778   8.5680   C.ar      1 RES1   0.0000
    56 H19     13.2106   7.7482   8.8961   H         1 RES1   0.0000
    57 C29      4.4819   5.6348   3.1364   C.ar      1 RES1   0.0000
    58 C30      7.0822   5.6519   4.1394   C.ar      1 RES1   0.0000
    59 C31      0.0588   7.4110   2.2594   C.ar      1 RES1   0.0000
    60 H20      0.1750   8.1430   2.8208   H         1 RES1   0.0000
    61 C32     11.0498   6.6076   6.7953   C.ar      1 RES1   0.0000
    62 C33      9.5572   5.8850   5.0024   C.1       1 RES1   0.0000
    63 C34      1.0678   6.4848   2.0961   C.ar      1 RES1   0.0000
    64 C35     12.3467   6.9775   7.2494   C.ar      1 RES1   0.0000
    65 C36     -4.3657   2.5625   4.9915   C.1       1 RES1   0.0000
    66 C37     -1.2363   6.1492   0.7495   C.ar      1 RES1   0.0000
    67 H21     -2.0213   6.0186   0.2675   H         1 RES1   0.0000
    68 C38     10.9183   6.1663   5.5234   C.ar      1 RES1   0.0000
    69 C39      6.1021   4.8718   4.7241   C.ar      1 RES1   0.0000
    70 H22      6.3188   4.3341   5.4503   H         1 RES1   0.0000
    71 C40     -3.2587   2.6340   4.5235   C.1       1 RES1   0.0000
    72 C41      5.3642   1.6333   2.7757   C.ar      1 RES1   0.0000
    73 H23      5.3234   1.0287   3.4816   H         1 RES1   0.0000
    74 C42     -8.0939   2.2113   6.9975   C.ar      1 RES1   0.0000
    75 H24     -8.9053   2.1041   7.4391   H         1 RES1   0.0000
    76 C43     10.0984   7.2681   8.9615   C.ar      1 RES1   0.0000
    77 H25      9.3677   7.3846   9.5244   H         1 RES1   0.0000
    78 C44     -7.0507   3.1049   9.0532   C.ar      1 RES1   0.0000
    79 H26     -7.8490   3.0039   9.5197   H         1 RES1   0.0000
    80 C45     11.3326   7.5991   9.3937   C.ar      1 RES1   0.0000
    81 H27     11.4549   7.9099  10.2614   H         1 RES1   0.0000
    82 C46     -1.1238   7.2323   1.5721   C.ar      1 RES1   0.0000
    83 H28     -1.8256   7.8353   1.6670   H         1 RES1   0.0000
    84 C47     -5.9688   3.6146   9.6861   C.ar      1 RES1   0.0000
    85 H29     -6.0380   3.8493  10.5833   H         1 RES1   0.0000
    86 C48      9.9205   6.7910   7.7703   C.ar      1 RES1   0.0000
    87 H30      9.0608   6.5517   7.5091   H         1 RES1   0.0000
    88 C49     -0.1976   5.2385   0.6220   C.ar      1 RES1   0.0000
    89 H31     -0.3022   4.5035   0.0622   H         1 RES1   0.0000
    90 C50     13.3558   6.3776   5.1859   C.ar      1 RES1   0.0000
    91 H32     14.0832   6.2580   4.6199   H         1 RES1   0.0000
@<TRIPOS>BOND
     1     1     4    1
     2     2    28    2
     3     3    37    2
     4     4    28    2
     5     5     1    1
     6     6     1    1
     7     7     8   ar
     8     8    10   ar
     9     9     5   ar
    10    10    74   ar
    11    11     6    2
    12    12    11    1
    13    13     1    1
    14    14    15    1
    15    16    14   ar
    16    17    16    1
    17    18     1    1
    18    19    20    1
    19    21    22    1
    20    23    24    1
    21    25     1    1
    22    26    21   ar
    23    27    26    1
    24    29    30    1
    25    31     6    1
    26    32    33    1
    27    34    26   ar
    28    35    36    1
    29    37    13    2
    30    38     8   ar
    31    39    38    1
    32    40    58    1
    33    41     5   ar
    34    42    41    1
    35    43    25    2
    36    44    43    1
    37    45     7   ar
    38    46    45    1
    39    47    48    1
    40    49    41   ar
    41    50    49    1
    42    51    49   ar
    43    52    51    1
    44    53    23   ar
    45    54    53    1
    46    55    56    1
    47    57    14   ar
    48    58    16   ar
    49    59    60    1
    50    61    64   ar
    51    62    40    3
    52    63    18   ar
    53    64    19   ar
    54    65     7    1
    55    66    67    1
    56    68    47   ar
    57    69    29   ar
    58    70    69    1
    59    71    34    1
    60    72     9   ar
    61    73    72    1
    62    74    32   ar
    63    75    74    1
    64    76    77    1
    65    78    10   ar
    66    79    78    1
    67    80    55   ar
    68    81    80    1
    69    82    59   ar
    70    83    82    1
    71    84    35   ar
    72    85    84    1
    73    86    61   ar
    74    87    86    1
    75    88    18   ar
    76    89    88    1
    77    90    19   ar
    78    91    90    1
    79     9    11    1
    80    21    31   ar
    81    23    31   ar
    82    25    57    1
    83    29    57   ar
    84    32    45   ar
    85    34    53   ar
    86    35    38   ar
    87    43    63    1
    88    47    90   ar
    89    51    72   ar
    90    55    64   ar
    91    58    69   ar
    92    59    63   ar
    93    61    68   ar
    94    62    68    1
    95    65    71    3
    96    66    82   ar
    97    66    88   ar
    98    76    80   ar
    99    76    86   ar
   100    78    84   ar
@<TRIPOS>SUBSTRUCTURE
     1 RES1        1 GROUP             0 ****  ****    0  
@<TRIPOS>CRYSIN
   16.5100   15.5400   15.5500   90.0000   90.1000   90.0000    14     1
