@<TRIPOS>MOLECULE
CONVIK
    69    73     5     0     0
SMALL
USER_CHARGES
****
Generated from the CSD

@<TRIPOS>ATOM
     1 Fe1      0.7509   2.3748   2.7099   Fe        1 RES1   2.0000
     2 N1      -0.5814   3.2240   3.8556   N.2       1 RES1   0.0000
     3 N2      -1.2730   2.4819   4.8116   N.2       1 RES1   0.0000
     4 N3       2.6143   2.2726   2.1472   N.2       1 RES1   0.0000
     5 N4       2.9661   2.6035   0.7210   N.2       1 RES1   0.0000
     6 N5       1.0761   4.2143   2.2412   N.ar      1 RES1   0.0000
     7 N6       1.6097   2.2239   4.4198   N.ar      1 RES1   0.0000
     8 N7      -0.3339   2.1266   1.0971   N.ar      1 RES1   0.0000
     9 N8       0.1997   0.4428   2.8525   N.ar      1 RES1   0.0000
    10 C1       0.2682   5.1097   2.9152   C.ar      1 RES1   0.0000
    11 C2      -0.7036   4.5014   3.7929   C.2       1 RES1   0.0000
    12 C3      -0.5397   1.7762   5.5639   C.2       1 RES1   0.0000
    13 C4       1.0134   1.9952   5.6266   C.ar      1 RES1   0.0000
    14 C5       1.7706   1.8006   6.7707   C.ar      1 RES1   0.0000
    15 C6       3.0435   1.8006   6.6610   C.ar      1 RES1   0.0000
    16 C7       3.8215   1.8736   5.4385   C.ar      1 RES1   0.0000
    17 C8       3.0316   2.0682   4.3728   C.ar      1 RES1   0.0000
    18 C9       3.5682   2.2142   2.9622   C.2       1 RES1   0.0000
    19 C10      2.6173   3.7228   0.4388   C.2       1 RES1   0.0000
    20 C11      1.8363   4.6231   1.2538   C.ar      1 RES1   0.0000
    21 C12      1.8244   6.0343   0.8934   C.ar      1 RES1   0.0000
    22 C13      1.0165   6.9346   1.6143   C.ar      1 RES1   0.0000
    23 C14      0.3010   6.4480   2.6958   C.ar      1 RES1   0.0000
    24 C15     -1.1268   1.0463   1.0344   C.ar      1 RES1   0.0000
    25 C16     -2.0032   0.8516   0.0470   C.ar      1 RES1   0.0000
    26 C17     -2.3729   1.6546  -0.9247   C.ar      1 RES1   0.0000
    27 C18     -1.7051   2.8712  -0.8620   C.ar      1 RES1   0.0000
    28 C19     -0.7333   3.1388   0.1881   C.ar      1 RES1   0.0000
    29 C20     -0.7572   0.0730   2.0532   C.ar      1 RES1   0.0000
    30 C21     -1.4101  -1.0706   2.1942   C.ar      1 RES1   0.0000
    31 C22     -0.9063  -1.9709   3.0719   C.ar      1 RES1   0.0000
    32 C23      0.2146  -1.4843   3.9496   C.ar      1 RES1   0.0000
    33 C24      0.6647  -0.4380   3.6988   C.ar      1 RES1   0.0000
    34 C25     -1.6217   5.2557   4.8116   C.3       1 RES1   0.0000
    35 C26     -1.1746   0.8273   6.5983   C.3       1 RES1   0.0000
    36 C27      5.0408   2.4819   2.6958   C.3       1 RES1   0.0000
    37 C28      3.2106   4.0148  -0.8934   C.3       1 RES1   0.0000
    38 H1      -2.4146  -0.0730   0.0000   H         1 RES1   0.0000
    39 H2      -3.1002   1.4356  -1.5673   H         1 RES1   0.0000
    40 H3      -1.8482   3.5768  -1.5673   H         1 RES1   0.0000
    41 H4      -0.3279   4.0391   0.3135   H         1 RES1   0.0000
    42 H5      -2.1165  -1.1923   1.7240   H         1 RES1   0.0000
    43 H6      -1.3117  -2.8955   3.1346   H         1 RES1   0.0000
    44 H7       0.5663  -2.0926   4.5452   H         1 RES1   0.0000
    45 H8       1.4308  -0.0219   4.2317   H         1 RES1   0.0000
    46 H9       1.2519   1.6789   7.5230   H         1 RES1   0.0000
    47 H10      3.5771   1.6546   7.5230   H         1 RES1   0.0000
    48 H11      4.7993   1.7519   5.3288   H         1 RES1   0.0000
    49 H12      2.2954   6.3263   0.1567   H         1 RES1   0.0000
    50 H13      0.9837   7.9079   1.4106   H         1 RES1   0.0000
    51 H14     -0.1789   7.0563   3.2913   H         1 RES1   0.0000
    52 H18     -0.6858   0.8760   7.3663   H         1 RES1   0.0000
    53 H19     -2.0868   1.0949   6.7394   H         1 RES1   0.0000
    54 H20     -1.2223  -0.0243   6.4259   H         1 RES1   0.0000
    55 Cl1      1.5908   1.8200  10.9601   Cl        2 RES2   0.0000
    56 O1       1.3174   3.0731  11.5980   O.2       2 RES2   0.0000
    57 O2       1.6841   0.8930  11.9742   O.2       2 RES2   0.0000
    58 O3       0.4947   1.2239  10.1874   O.2       2 RES2   0.0000
    59 O4       2.7811   1.8565  10.2031   O.3       2 RES2  -1.0000
    60 Cl2      3.1034   5.7278   5.1705   Cl        3 RES3   0.0000
    61 O5       4.0272   5.0416   5.9557   O.2       3 RES3   0.0000
    62 O6       3.1896   6.8397   5.3288   O.2       3 RES3   0.0000
    63 O7       2.0061   5.1000   5.5796   O.2       3 RES3   0.0000
    64 O10      3.3327   5.2557   3.8712   O.3       3 RES3  -1.0000
    65 O8      -1.5592   3.8055   8.6201   O.3       4 RES4   0.0000
    66 H15     -1.0137   4.1121   8.1499   H         4 RES4   0.0000
    67 H16     -2.1763   3.3335   8.6201   H         4 RES4   0.0000
    68 O9      -0.0598   6.2022   8.9649   O.3       5 RES5   0.0000
    69 H17     -0.0896   5.2070   8.4634   H         5 RES5   0.0000
@<TRIPOS>BOND
     1     1     2    1
     2     2     3    1
     3     3    12    2
     4     4     1    1
     5     5     4    1
     6     6     1    1
     7     7     1    1
     8     8     1    1
     9     9     1    1
    10    10     6   ar
    11    11     2    2
    12    12    13    1
    13    13     7   ar
    14    14    13   ar
    15    15    14   ar
    16    16    15   ar
    17    17     7   ar
    18    18     4    2
    19    19     5    2
    20    20     6   ar
    21    21    20   ar
    22    22    21   ar
    23    23    10   ar
    24    24     8   ar
    25    25    24   ar
    26    26    25   ar
    27    27    26   ar
    28    28     8   ar
    29    29     9   ar
    30    30    29   ar
    31    31    30   ar
    32    32    31   ar
    33    33     9   ar
    34    34    11    1
    35    35    12    1
    36    36    18    1
    37    37    19    1
    38    38    25    1
    39    39    26    1
    40    40    27    1
    41    41    28    1
    42    42    30    1
    43    43    31    1
    44    44    32    1
    45    45    33    1
    46    46    14    1
    47    47    15    1
    48    48    16    1
    49    49    21    1
    50    50    22    1
    51    51    23    1
    52    52    35    1
    53    53    35    1
    54    54    35    1
    55    10    11    1
    56    16    17   ar
    57    17    18    1
    58    19    20    1
    59    22    23   ar
    60    24    29    1
    61    27    28   ar
    62    32    33   ar
    63    55    56    2
    64    57    55    2
    65    58    55    2
    66    59    55    1
    67    60    61    2
    68    62    60    2
    69    63    60    2
    70    64    60    1
    71    65    66    1
    72    67    65    1
    73    68    69    1
@<TRIPOS>SUBSTRUCTURE
     1 RES1        1 GROUP             0 ****  ****    0  
     2 RES2       55 GROUP             0 ****  ****    0  
     3 RES3       60 GROUP             0 ****  ****    0  
     4 RES4       65 GROUP             0 ****  ****    0  
     5 RES5       68 GROUP             0 ****  ****    0  
@<TRIPOS>CRYSIN
    8.9430   24.3320   15.9540   90.0000  100.7700   90.0000   231     1
