@<TRIPOS>MOLECULE
COQHUM
    85    90     1     0     0
SMALL
NO_CHARGES
****
Generated from the CSD

@<TRIPOS>ATOM
     1 Fe1      2.4765  14.7422   9.1912   Fe        1 RES1   0.0000
     2 N1       3.0901  15.7045   7.3796   N.2       1 RES1   0.0000
     3 C1       2.7862  16.3174   6.4343   C.1       1 RES1   0.0000
     4 S1       2.3600  17.1739   5.1115   S.2       1 RES1   0.0000
     5 N2       0.5869  14.2108   8.4005   N.2       1 RES1   0.0000
     6 C2      -0.3861  13.7471   7.9550   C.1       1 RES1   0.0000
     7 S2      -1.7461  13.0561   7.3421   S.2       1 RES1   0.0000
     8 O1       1.9494  13.7430  11.0823   O.3       1 RES1   0.0000
     9 H1       2.2356  12.9873  11.0977   H         1 RES1   0.0000
    10 H2       2.3167  14.0942  11.6615   H         1 RES1   0.0000
    11 N3       3.3193  12.8267   8.4524   N.2       1 RES1   0.0000
    12 C3       3.7299  12.5936   7.1778   C.2       1 RES1   0.0000
    13 H3       3.5645  13.2147   6.4778   H         1 RES1   0.0000
    14 N4       4.3745  11.4519   6.9613   N.2       1 RES1   0.0000
    15 N5       4.3949  10.9057   8.2244   N.pl3     1 RES1   0.0000
    16 C4       5.0124   9.7396   8.6149   C.2       1 RES1   0.0000
    17 C5       4.8804   9.4461   9.9382   C.2       1 RES1   0.0000
    18 H4       5.2852   8.6582  10.2795   H         1 RES1   0.0000
    19 C6       4.1533  10.2910  10.8213   C.2       1 RES1   0.0000
    20 N6       3.5899  11.4257  10.4175   N.2       1 RES1   0.0000
    21 C7       3.7490  11.7333   9.1182   C.2       1 RES1   0.0000
    22 C8       5.7536   8.9764   7.5662   C.3       1 RES1   0.0000
    23 H5       6.4451   9.5679   7.1747   H         1 RES1   0.0000
    24 H6       5.1206   8.7367   6.8438   H         1 RES1   0.0000
    25 C9       6.4286   7.7016   8.0630   C.3       1 RES1   0.0000
    26 H7       6.9110   7.2776   7.3235   H         1 RES1   0.0000
    27 H8       5.7496   7.0844   8.4060   H         1 RES1   0.0000
    28 H9       7.0600   7.9236   8.7799   H         1 RES1   0.0000
    29 C10      4.0271   9.9024  12.2649   C.3       1 RES1   0.0000
    30 H10      4.9329   9.7148  12.6169   H         1 RES1   0.0000
    31 H11      3.5093   9.0607  12.3154   H         1 RES1   0.0000
    32 C11      3.3694  10.9188  13.1648   C.3       1 RES1   0.0000
    33 H12      3.3562  10.5802  14.0851   H         1 RES1   0.0000
    34 H13      2.4511  11.0774  12.8616   H         1 RES1   0.0000
    35 H14      3.8739  11.7576  13.1317   H         1 RES1   0.0000
    36 N7       4.4544  15.1861  10.0919   N.2       1 RES1   0.0000
    37 C12      5.5130  15.7401   9.4389   C.2       1 RES1   0.0000
    38 H15      5.5143  15.8472   8.4941   H         1 RES1   0.0000
    39 N8       6.5427  16.1233  10.1829   N.2       1 RES1   0.0000
    40 N9       6.1132  15.7655  11.4413   N.pl3     1 RES1   0.0000
    41 C13      6.7910  15.9372  12.6310   C.2       1 RES1   0.0000
    42 C14      6.1362  15.4841  13.7266   C.2       1 RES1   0.0000
    43 H16      6.5429  15.5695  14.5804   H         1 RES1   0.0000
    44 C15      4.8447  14.8792  13.6229   C.2       1 RES1   0.0000
    45 N10      4.2166  14.7389  12.4599   N.2       1 RES1   0.0000
    46 C16      4.8597  15.2008  11.3740   C.2       1 RES1   0.0000
    47 C17      8.1441  16.5679  12.5572   C.3       1 RES1   0.0000
    48 H17      8.0823  17.3929  12.0120   H         1 RES1   0.0000
    49 H18      8.7600  15.9478  12.0922   H         1 RES1   0.0000
    50 C18      8.7375  16.9219  13.9179   C.3       1 RES1   0.0000
    51 H19      9.5946  17.3808  13.7914   H         1 RES1   0.0000
    52 H20      8.8786  16.1028  14.4355   H         1 RES1   0.0000
    53 H21      8.1199  17.5096  14.4002   H         1 RES1   0.0000
    54 C19      4.1517  14.3671  14.8503   C.3       1 RES1   0.0000
    55 H22      3.3274  13.8910  14.5784   H         1 RES1   0.0000
    56 H23      3.8836  15.1368  15.4123   H         1 RES1   0.0000
    57 C20      5.0101  13.4271  15.6825   C.3       1 RES1   0.0000
    58 H24      4.4783  13.0698  16.4244   H         1 RES1   0.0000
    59 H25      5.7801  13.9171  16.0388   H         1 RES1   0.0000
    60 H26      5.3243  12.6874  15.1207   H         1 RES1   0.0000
    61 N11      1.6716  16.7130   9.8200   N.2       1 RES1   0.0000
    62 C21      0.7278  17.3210   9.0503   C.2       1 RES1   0.0000
    63 H27      0.3113  16.8716   8.3238   H         1 RES1   0.0000
    64 N12      0.4176  18.5741   9.3645   N.2       1 RES1   0.0000
    65 N13      1.2533  18.7900  10.4484   N.pl3     1 RES1   0.0000
    66 C22      1.3457  19.9416  11.1933   C.2       1 RES1   0.0000
    67 C23      2.2476  19.8857  12.2183   C.2       1 RES1   0.0000
    68 H28      2.3717  20.6473  12.7715   H         1 RES1   0.0000
    69 C24      3.0000  18.7107  12.4732   C.2       1 RES1   0.0000
    70 N14      2.8964  17.6076  11.7306   N.2       1 RES1   0.0000
    71 C25      1.9987  17.6614  10.7162   C.2       1 RES1   0.0000
    72 C26      0.4284  21.0731  10.8499   C.3       1 RES1   0.0000
    73 H29      0.4261  21.2108   9.8703   H         1 RES1   0.0000
    74 H30      0.7549  21.9051  11.2759   H         1 RES1   0.0000
    75 C27     -0.9955  20.7803  11.3260   C.3       1 RES1   0.0000
    76 H31     -1.5930  21.4986  11.0292   H         1 RES1   0.0000
    77 H32     -1.0078  20.7278  12.3036   H         1 RES1   0.0000
    78 H33     -1.2963  19.9268  10.9490   H         1 RES1   0.0000
    79 C28      3.9763  18.6711  13.6209   C.3       1 RES1   0.0000
    80 H34      3.5363  19.0311  14.4316   H         1 RES1   0.0000
    81 H35      4.2225  17.7290  13.8032   H         1 RES1   0.0000
    82 C29      5.2178  19.4578  13.3490   C.3       1 RES1   0.0000
    83 H36      5.8533  19.3310  14.0851   H         1 RES1   0.0000
    84 H37      4.9924  20.4098  13.2746   H         1 RES1   0.0000
    85 H38      5.6225  19.1519  12.5111   H         1 RES1   0.0000
@<TRIPOS>BOND
     1     1     2    1
     2     2     3    2
     3     3     4    2
     4     5     1    1
     5     6     5    2
     6     7     6    2
     7     8     1    1
     8     9     8    1
     9    10     8    1
    10    11     1    1
    11    12    11    1
    12    13    12    1
    13    14    12    2
    14    15    14    1
    15    16    15    1
    16    17    16    2
    17    18    17    1
    18    19    17    1
    19    20    19    2
    20    21    11    2
    21    22    16    1
    22    23    22    1
    23    24    22    1
    24    25    22    1
    25    26    25    1
    26    27    25    1
    27    28    25    1
    28    29    19    1
    29    30    29    1
    30    31    29    1
    31    32    29    1
    32    33    32    1
    33    34    32    1
    34    35    32    1
    35    36     1    1
    36    37    36    1
    37    38    37    1
    38    39    37    2
    39    40    39    1
    40    41    40    1
    41    42    41    2
    42    43    42    1
    43    44    42    1
    44    45    44    2
    45    46    36    2
    46    47    41    1
    47    48    47    1
    48    49    47    1
    49    50    47    1
    50    51    50    1
    51    52    50    1
    52    53    50    1
    53    54    44    1
    54    55    54    1
    55    56    54    1
    56    57    54    1
    57    58    57    1
    58    59    57    1
    59    60    57    1
    60    61     1    1
    61    62    61    1
    62    63    62    1
    63    64    62    2
    64    65    64    1
    65    66    65    1
    66    67    66    2
    67    68    67    1
    68    69    67    1
    69    70    69    2
    70    71    61    2
    71    72    66    1
    72    73    72    1
    73    74    72    1
    74    75    72    1
    75    76    75    1
    76    77    75    1
    77    78    75    1
    78    79    69    1
    79    80    79    1
    80    81    79    1
    81    82    79    1
    82    83    82    1
    83    84    82    1
    84    85    82    1
    85    15    21    1
    86    20    21    1
    87    40    46    1
    88    45    46    1
    89    65    71    1
    90    70    71    1
@<TRIPOS>SUBSTRUCTURE
     1 RES1        1 GROUP             0 ****  ****    0  
@<TRIPOS>CRYSIN
    8.8740   20.1260   19.9730   90.0000  101.4400   90.0000    14     1
