@<TRIPOS>MOLECULE
COQJEY
    91    98     2     0     0
SMALL
NO_CHARGES
****
Generated from the CSD

@<TRIPOS>ATOM
     1 Fe1      0.0000   0.0000   4.3258   Fe        1 RES1   0.0000
     2 N1      -1.1897   1.0037   2.8771   N.2       1 RES1   0.0000
     3 C1      -1.6799   1.6666   2.0625   C.1       1 RES1   0.0000
     4 S1      -2.3628   2.6070   0.9055   S.2       1 RES1   0.0000
     5 O1      -1.3015   0.7959   5.8421   O.3       1 RES1   0.0000
     6 H1      -1.2188   1.3189   6.5525   H         1 RES1   0.0000
     7 H2      -2.0160   0.4511   5.8004   H         1 RES1   0.0000
     8 N2       1.2742   1.8316   4.4095   N.2       1 RES1   0.0000
     9 C2       2.5711   1.9418   4.7461   C.2       1 RES1   0.0000
    10 N3       3.3459   0.9952   5.3083   N.2       1 RES1   0.0000
    11 C3       4.6072   1.3474   5.5547   C.2       1 RES1   0.0000
    12 C4       5.1101   2.6258   5.2360   C.2       1 RES1   0.0000
    13 H3       6.0067   2.8148   5.4006   H         1 RES1   0.0000
    14 C5       4.3142   3.6050   4.6887   C.2       1 RES1   0.0000
    15 N4       3.0109   3.2150   4.4602   N.pl3     1 RES1   0.0000
    16 N5       1.9780   3.9475   3.9159   N.2       1 RES1   0.0000
    17 C6       0.9952   3.0711   3.9181   C.2       1 RES1   0.0000
    18 H4       0.1489   3.2887   3.5987   H         1 RES1   0.0000
    19 C7       5.4874   0.3466   6.2278   C.3       1 RES1   0.0000
    20 H5       5.0148  -0.4853   6.3224   H         1 RES1   0.0000
    21 H6       5.7387   0.6737   7.0953   H         1 RES1   0.0000
    22 H7       6.2748   0.2055   5.6984   H         1 RES1   0.0000
    23 C8       4.7889   4.9758   4.4125   C.ar      1 RES1   0.0000
    24 C9       6.1621   5.1460   4.1549   C.ar      1 RES1   0.0000
    25 H8       6.7169   4.4020   4.0730   H         1 RES1   0.0000
    26 C10      6.6867   6.4215   4.0231   C.ar      1 RES1   0.0000
    27 H9       7.5943   6.5317   3.8585   H         1 RES1   0.0000
    28 C11      5.8713   7.5325   4.1333   C.ar      1 RES1   0.0000
    29 H10      6.2312   8.3873   4.0521   H         1 RES1   0.0000
    30 C12      4.5138   7.3675   4.3663   C.ar      1 RES1   0.0000
    31 H11      3.9610   8.1132   4.4266   H         1 RES1   0.0000
    32 C13      3.9740   6.0955   4.5108   C.ar      1 RES1   0.0000
    33 H12      3.0629   5.9950   4.6731   H         1 RES1   0.0000
    34 N1A      1.1897  -1.0037   2.8771   N.2       1 RES1   0.0000
    35 C1A      1.6799  -1.6666   2.0625   C.1       1 RES1   0.0000
    36 S1A      2.3628  -2.6070   0.9055   S.2       1 RES1   0.0000
    37 O1A      1.3015  -0.7959   5.8421   O.3       1 RES1   0.0000
    38 H1A      1.2188  -1.3189   6.5525   H         1 RES1   0.0000
    39 H2A      2.0160  -0.4511   5.8004   H         1 RES1   0.0000
    40 N2A     -1.2742  -1.8316   4.4095   N.2       1 RES1   0.0000
    41 C2A     -2.5711  -1.9418   4.7461   C.2       1 RES1   0.0000
    42 N3A     -3.3459  -0.9952   5.3083   N.2       1 RES1   0.0000
    43 C3A     -4.6072  -1.3474   5.5547   C.2       1 RES1   0.0000
    44 C4A     -5.1101  -2.6258   5.2360   C.2       1 RES1   0.0000
    45 H3A     -6.0067  -2.8148   5.4006   H         1 RES1   0.0000
    46 C5A     -4.3142  -3.6050   4.6887   C.2       1 RES1   0.0000
    47 N4A     -3.0109  -3.2150   4.4602   N.pl3     1 RES1   0.0000
    48 N5A     -1.9780  -3.9475   3.9159   N.2       1 RES1   0.0000
    49 C6A     -0.9952  -3.0711   3.9181   C.2       1 RES1   0.0000
    50 H4A     -0.1489  -3.2887   3.5987   H         1 RES1   0.0000
    51 C7A     -5.4874  -0.3466   6.2278   C.3       1 RES1   0.0000
    52 H5A     -5.0148   0.4853   6.3224   H         1 RES1   0.0000
    53 H6A     -5.7387  -0.6737   7.0953   H         1 RES1   0.0000
    54 H7A     -6.2748  -0.2055   5.6984   H         1 RES1   0.0000
    55 C8A     -4.7889  -4.9758   4.4125   C.ar      1 RES1   0.0000
    56 C9A     -6.1621  -5.1460   4.1549   C.ar      1 RES1   0.0000
    57 H8A     -6.7169  -4.4020   4.0730   H         1 RES1   0.0000
    58 C10A    -6.6867  -6.4215   4.0231   C.ar      1 RES1   0.0000
    59 H9A     -7.5943  -6.5317   3.8585   H         1 RES1   0.0000
    60 C11A    -5.8713  -7.5325   4.1333   C.ar      1 RES1   0.0000
    61 H10A    -6.2312  -8.3873   4.0521   H         1 RES1   0.0000
    62 C12A    -4.5138  -7.3675   4.3663   C.ar      1 RES1   0.0000
    63 H11A    -3.9610  -8.1132   4.4266   H         1 RES1   0.0000
    64 C13A    -3.9740  -6.0955   4.5108   C.ar      1 RES1   0.0000
    65 H12A    -3.0629  -5.9950   4.6731   H         1 RES1   0.0000
    66 N6       8.2965   4.6852   0.6873   N.2       2 RES2   0.0000
    67 C14      7.1203   5.3150   0.6582   C.2       2 RES2   0.0000
    68 N7       6.8965   6.6390   0.5719   N.2       2 RES2   0.0000
    69 C15      5.6244   7.0056   0.5503   C.2       2 RES2   0.0000
    70 C16      4.5509   6.0875   0.6128   C.2       2 RES2   0.0000
    71 H13      3.6769   6.4061   0.5875   H         2 RES2   0.0000
    72 C17      4.7710   4.7372   0.7111   C.2       2 RES2   0.0000
    73 N8       6.0975   4.3809   0.7342   N.pl3     2 RES2   0.0000
    74 N9       6.6395   3.1122   0.8019   N.2       2 RES2   0.0000
    75 C18      7.9432   3.3886   0.7729   C.2       2 RES2   0.0000
    76 H14      8.5817   2.7120   0.8109   H         2 RES2   0.0000
    77 C19      5.3224   8.4769   0.4832   C.3       2 RES2   0.0000
    78 H15      6.0984   8.9468   0.1705   H         2 RES2   0.0000
    79 H16      5.0858   8.7926   1.3582   H         2 RES2   0.0000
    80 H17      4.5910   8.6271  -0.1206   H         2 RES2   0.0000
    81 C20      3.6975   3.7249   0.7669   C.ar      2 RES2   0.0000
    82 C21      2.4574   4.0098   0.1787   C.ar      2 RES2   0.0000
    83 H18      2.3253   4.8302  -0.2420   H         2 RES2   0.0000
    84 C22      1.4291   3.0860   0.2159   C.ar      2 RES2   0.0000
    85 H19      0.6094   3.2830  -0.1765   H         2 RES2   0.0000
    86 C23      1.6183   1.8636   0.8384   C.ar      2 RES2   0.0000
    87 H20      0.9324   1.2390   0.8548   H         2 RES2   0.0000
    88 C24      2.8302   1.5798   1.4356   C.ar      2 RES2   0.0000
    89 H21      2.9530   0.7594   1.8600   H         2 RES2   0.0000
    90 C25      3.8604   2.4968   1.4088   C.ar      2 RES2   0.0000
    91 H22      4.6689   2.2952   1.8220   H         2 RES2   0.0000
@<TRIPOS>BOND
     1     1     2    1
     2     2     3    2
     3     3     4    2
     4     5     1    1
     5     6     5    1
     6     7     5    1
     7     8     1    1
     8     9     8    2
     9    10     9    1
    10    11    10    2
    11    12    11    1
    12    13    12    1
    13    14    12    2
    14    15     9    1
    15    16    15    1
    16    17     8    1
    17    18    17    1
    18    19    11    1
    19    20    19    1
    20    21    19    1
    21    22    19    1
    22    23    14    1
    23    24    23   ar
    24    25    24    1
    25    26    24   ar
    26    27    26    1
    27    28    26   ar
    28    29    28    1
    29    30    28   ar
    30    31    30    1
    31    32    23   ar
    32    33    32    1
    33    34     1    1
    34    35    34    2
    35    36    35    2
    36    37     1    1
    37    38    37    1
    38    39    37    1
    39    40     1    1
    40    41    40    2
    41    42    41    1
    42    43    42    2
    43    44    43    1
    44    45    44    1
    45    46    44    2
    46    47    41    1
    47    48    47    1
    48    49    40    1
    49    50    49    1
    50    51    43    1
    51    52    51    1
    52    53    51    1
    53    54    51    1
    54    55    46    1
    55    56    55   ar
    56    57    56    1
    57    58    56   ar
    58    59    58    1
    59    60    58   ar
    60    61    60    1
    61    62    60   ar
    62    63    62    1
    63    64    55   ar
    64    65    64    1
    65    14    15    1
    66    16    17    2
    67    30    32   ar
    68    46    47    1
    69    48    49    2
    70    62    64   ar
    71    66    67    2
    72    67    68    1
    73    68    69    2
    74    69    70    1
    75    70    71    1
    76    72    70    2
    77    73    67    1
    78    74    73    1
    79    75    66    1
    80    76    75    1
    81    77    69    1
    82    78    77    1
    83    79    77    1
    84    80    77    1
    85    81    72    1
    86    82    81   ar
    87    83    82    1
    88    84    82   ar
    89    85    84    1
    90    86    84   ar
    91    87    86    1
    92    88    86   ar
    93    89    88    1
    94    90    81   ar
    95    91    90    1
    96    72    73    1
    97    74    75    2
    98    88    90   ar
@<TRIPOS>SUBSTRUCTURE
     1 RES1        1 GROUP             0 ****  ****    0  
     2 RES2       66 GROUP             0 ****  ****    0  
@<TRIPOS>CRYSIN
   22.9090   57.0950    7.4460   90.0000   90.0000   90.0000    43     1
