@<TRIPOS>MOLECULE
COQNEB
    65    72     5     0     0
SMALL
USER_CHARGES
****
Generated from the CSD

@<TRIPOS>ATOM
     1 Fe1     -0.3407   8.5204   8.8284   Fe        1 RES1   0.0000
     2 O1       1.2592   8.8636   7.6313   O.co2     1 RES1  -1.0000
     3 O2       3.0321  10.2130   7.4830   O.co2     1 RES1   0.0000
     4 O3       0.6957   9.7639  10.0256   O.co2     1 RES1   0.0000
     5 O4       2.5944  10.9280  10.1421   O.co2     1 RES1   0.0000
     6 O5      -1.0596   6.9684   7.7408   O.co2     1 RES1  -1.0000
     7 C1       2.0803   9.7397   8.0762   C.2       1 RES1   0.0000
     8 O6      -1.2072   4.7490   7.7443   O.co2     1 RES1   0.0000
     9 C2       1.8145  10.2009   9.5135   C.2       1 RES1   0.0000
    10 C3      -0.7772   5.8144   8.2246   C.2       1 RES1   0.0000
    11 O1A     -1.9406   8.8636  10.0256   O.co2     1 RES1  -1.0000
    12 C1A     -2.7616   9.7397   9.5806   C.2       1 RES1   0.0000
    13 O2A     -3.7135  10.2130  10.1739   O.co2     1 RES1   0.0000
    14 C2A     -2.4959  10.2009   8.1433   C.2       1 RES1   0.0000
    15 O3A     -1.3770   9.7639   7.6313   O.co2     1 RES1   0.0000
    16 C3A      0.0958   5.8144   9.4323   C.2       1 RES1   0.0000
    17 O5A      0.3782   6.9684   9.9161   O.co2     1 RES1   0.0000
    18 O6A      0.5258   4.7490   9.9126   O.co2     1 RES1   0.0000
    19 O4A     -3.2758  10.9280   7.5148   O.co2     1 RES1   0.0000
    20 S1       1.8851  20.3817  19.1965   S.3       2 RES2   0.0000
    21 S2      -0.4542  21.9264  18.3419   S.3       2 RES2   0.0000
    22 S3       3.3302  21.0080  16.3750   S.3       2 RES2   0.0000
    23 S4       0.8625  19.8117  21.9192   S.3       2 RES2   0.0000
    24 S5       2.1062  23.3181  12.9072   S.3       2 RES2   1.0000
    25 S6       4.8932  21.5961  13.9171   S.3       2 RES2   0.0000
    26 S7       0.9701  22.5266  15.5239   S.3       2 RES2   0.0000
    27 S8      -1.9511  21.5901  20.8245   S.3       2 RES2   0.0000
    28 C4       1.7296  21.6042  16.7881   C.2       2 RES2   0.0000
    29 C5       0.5665  20.5569  20.3442   C.2       2 RES2   0.0000
    30 C6      -1.5212  21.0906  22.4807   C.3       2 RES2   0.0000
    31 C7       2.3677  22.5145  14.4398   C.2       2 RES2   0.0000
    32 C8      -0.4772  21.2457  19.9522   C.2       2 RES2   0.0000
    33 C9       3.4221  21.8217  14.8494   C.2       2 RES2   0.0000
    34 C10      1.1676  21.3444  17.9676   C.2       2 RES2   0.0000
    35 C11     -0.6800  20.0856  22.6961   C.3       2 RES2   0.0000
    36 C12      4.2154  21.6505  12.3245   C.3       2 RES2   0.0000
    37 C13      3.2718  22.4702  11.8230   C.3       2 RES2   0.0000
    38 S9       5.2868  15.8220  17.3708   S.3       3 RES3   0.0000
    39 S10      2.8405  17.2479  16.5621   S.3       3 RES3   0.0000
    40 S11      0.0433  16.2590  21.9333   S.3       3 RES3   0.0000
    41 S12      3.7755  17.9065  13.8394   S.3       3 RES3   0.0000
    42 S13      1.5030  16.6236  19.4014   S.3       3 RES3   0.0000
    43 S14      3.9155  15.1876  20.2559   S.3       3 RES3   0.0000
    44 S15      2.9824  14.6297  22.9822   S.3       3 RES3   0.0000
    45 S16      6.7205  16.2530  14.8424   S.3       3 RES3   0.0000
    46 C14      3.1372  16.0717  18.9988   C.2       3 RES3   0.0000
    47 C15      4.1362  17.1532  15.3932   C.2       3 RES3   0.0000
    48 C16      5.2310  16.5168  15.7711   C.2       3 RES3   0.0000
    49 C17      2.5751  15.3185  21.4072   C.2       3 RES3   0.0000
    50 C18      1.5161  15.9750  21.0117   C.2       3 RES3   0.0000
    51 C19      6.2029  16.7444  13.1861   C.3       3 RES3   0.0000
    52 C20      3.6704  16.3255  17.7910   C.2       3 RES3   0.0000
    53 C21      0.7229  16.1845  23.5860   C.3       3 RES3   0.0000
    54 C22      1.4175  14.8835  23.8862   C.3       3 RES3   0.0000
    55 C23      5.4168  18.0072  13.1190   C.3       3 RES3   0.0000
    56 C24      3.7427   5.6674   9.4535   C.ar      4 RES4   0.0000
    57 C25      3.7363   7.0933   9.4853   C.ar      4 RES4   0.0000
    58 C26      4.8143   7.7740   8.8284   C.ar      4 RES4   0.0000
    59 O7       3.7173   3.0069   8.7755   O.2       4 RES4   0.0000
    60 C27      4.8143   5.0410   8.8284   C.ar      4 RES4   0.0000
    61 N1       4.8143   3.5708   8.8284   N.pl3     4 RES4   0.0000
    62 C25A     5.8923   7.0933   8.1716   C.ar      4 RES4   0.0000
    63 C24A     5.8859   5.6674   8.2034   C.ar      4 RES4   0.0000
    64 O7A      5.9113   3.0069   8.8814   O.2       4 RES4   0.0000
    65 O8      -0.3407   2.0744   8.8284   O.3       5 RES5   0.0000
@<TRIPOS>BOND
     1     1     2    1
     2     2     7    1
     3     3     7    2
     4     4     1    1
     5     5     9    2
     6     6     1    1
     7     7     9    1
     8     8    10    2
     9     9     4    1
    10    10     6    1
    11    11     1    1
    12    12    11    1
    13    13    12    2
    14    14    12    1
    15    15     1    1
    16    16    10    1
    17    17     1    1
    18    18    16    2
    19    19    14    2
    20    14    15    1
    21    16    17    1
    22    20    29    1
    23    21    32    1
    24    22    28    1
    25    23    29    1
    26    24    31    1
    27    25    33    1
    28    26    28    1
    29    27    30    1
    30    28    34    2
    31    29    32    2
    32    30    35    1
    33    31    26    1
    34    32    27    1
    35    33    22    1
    36    34    20    1
    37    35    23    1
    38    36    25    1
    39    37    24    1
    40    21    34    1
    41    31    33    2
    42    36    37    1
    43    38    48    1
    44    39    47    1
    45    40    50    1
    46    41    47    1
    47    42    46    1
    48    43    46    1
    49    44    49    1
    50    45    48    1
    51    46    52    2
    52    47    48    2
    53    49    43    1
    54    50    42    1
    55    51    45    1
    56    52    38    1
    57    53    40    1
    58    54    44    1
    59    55    41    1
    60    39    52    1
    61    49    50    2
    62    51    55    1
    63    53    54    1
    64    56    57   ar
    65    57    58   ar
    66    58    62   ar
    67    59    61    2
    68    60    56   ar
    69    61    60    1
    70    62    63   ar
    71    63    60   ar
    72    64    61    2
@<TRIPOS>SUBSTRUCTURE
     1 RES1        1 GROUP             0 ****  ****    0  
     2 RES2       20 GROUP             0 ****  ****    0  
     3 RES3       38 GROUP             0 ****  ****    0  
     4 RES4       56 GROUP             0 ****  ****    0  
     5 RES5       65 GROUP             0 ****  ****    0  
@<TRIPOS>CRYSIN
   10.3100   20.1400   35.3400   90.0000   92.2100   90.0000    15     1
