@<TRIPOS>MOLECULE
COSBET
    79    86     3     0     0
SMALL
USER_CHARGES
****
Generated from the CSD

@<TRIPOS>ATOM
     1 Fe1     -0.5612   3.3467   4.1160   Fe        1 RES1   2.0000
     2 C1      -1.9406   2.2684   1.9318   C.ar      1 RES1   0.0000
     3 C2      -2.9500   1.9322   1.0370   C.ar      1 RES1   0.0000
     4 H1      -2.8017   1.2709   0.3705   H         1 RES1   0.0000
     5 C3      -4.1717   2.5754   1.1280   C.ar      1 RES1   0.0000
     6 H2      -4.8823   2.3516   0.5392   H         1 RES1   0.0000
     7 C4      -4.3356   3.5464   2.0889   C.ar      1 RES1   0.0000
     8 H3      -5.1605   4.0124   2.1600   H         1 RES1   0.0000
     9 C5      -3.2943   3.8425   2.9523   C.ar      1 RES1   0.0000
    10 H4      -3.4253   4.5131   3.6122   H         1 RES1   0.0000
    11 C6      -0.6382   1.6270   1.9715   C.2       1 RES1   0.0000
    12 H5      -0.3530   0.9911   1.3248   H         1 RES1   0.0000
    13 C7       1.3867   1.5102   3.2731   C.ar      1 RES1   0.0000
    14 C8       1.9705   2.1201   4.3713   C.ar      1 RES1   0.0000
    15 C9       3.2260   1.7183   4.8047   C.ar      1 RES1   0.0000
    16 H6       3.6307   2.1329   5.5589   H         1 RES1   0.0000
    17 C10      3.8812   0.7036   4.1266   C.ar      1 RES1   0.0000
    18 H7       4.7446   0.4294   4.4110   H         1 RES1   0.0000
    19 C11      3.2924   0.0863   3.0366   C.ar      1 RES1   0.0000
    20 H8       3.7559  -0.6066   2.5818   H         1 RES1   0.0000
    21 C12      2.0410   0.4669   2.6016   C.ar      1 RES1   0.0000
    22 H9       1.6302   0.0305   1.8656   H         1 RES1   0.0000
    23 N1      -2.1086   3.2195   2.8959   N.ar      1 RES1   0.0000
    24 N2       0.0936   2.0016   2.9617   N.2       1 RES1   0.0000
    25 N3       1.1985   3.1758   5.0372   N.pl3     1 RES1   0.0000
    26 H10      1.0465   2.9209   5.9922   H         1 RES1   0.0000
    27 C13     -2.1798   2.7688   6.3395   C.ar      1 RES1   0.0000
    28 C14     -2.9532   2.0873   7.2690   C.ar      1 RES1   0.0000
    29 H11     -3.4410   2.5612   7.9323   H         1 RES1   0.0000
    30 C15     -3.0005   0.7111   7.2161   C.ar      1 RES1   0.0000
    31 H12     -3.5092   0.2189   7.8496   H         1 RES1   0.0000
    32 C16     -2.2899   0.0550   6.2171   C.ar      1 RES1   0.0000
    33 H13     -2.3076  -0.8930   6.1593   H         1 RES1   0.0000
    34 C17     -1.5537   0.7974   5.3058   C.ar      1 RES1   0.0000
    35 H14     -1.0778   0.3400   4.6227   H         1 RES1   0.0000
    36 C18     -1.9773   4.1983   6.3362   C.2       1 RES1   0.0000
    37 H15     -2.3675   4.7656   6.9912   H         1 RES1   0.0000
    38 C19     -0.8811   6.0508   5.3984   C.ar      1 RES1   0.0000
    39 C20      0.4340   6.3870   5.7292   C.ar      1 RES1   0.0000
    40 C21      0.7984   7.7263   5.7292   C.ar      1 RES1   0.0000
    41 H16      1.6868   7.9731   5.9591   H         1 RES1   0.0000
    42 C22     -0.1239   8.7059   5.3968   C.ar      1 RES1   0.0000
    43 H17      0.1360   9.6196   5.4001   H         1 RES1   0.0000
    44 C23     -1.4113   8.3654   5.0643   C.ar      1 RES1   0.0000
    45 H18     -2.0344   9.0410   4.8229   H         1 RES1   0.0000
    46 C24     -1.8014   7.0337   5.0776   C.ar      1 RES1   0.0000
    47 H19     -2.6966   6.7979   4.8659   H         1 RES1   0.0000
    48 N4      -1.4891   2.1342   5.3515   N.ar      1 RES1   0.0000
    49 N5      -1.2320   4.6561   5.3865   N.2       1 RES1   0.0000
    50 N6       1.3565   5.3618   6.0521   N.pl3     1 RES1   0.0000
    51 H20      2.0837   5.6341   6.6869   H         1 RES1   0.0000
    52 C25      1.5837   5.1093   3.6337   C.ar      1 RES1   0.0000
    53 C26      2.3571   6.1163   3.0763   C.ar      1 RES1   0.0000
    54 H21      3.1795   6.3690   3.4782   H         1 RES1   0.0000
    55 C27      1.9173   6.7470   1.9285   C.ar      1 RES1   0.0000
    56 H22      2.4303   7.4409   1.5299   H         1 RES1   0.0000
    57 C28      0.7164   6.3505   1.3695   C.ar      1 RES1   0.0000
    58 H23      0.3922   6.7712   0.5805   H         1 RES1   0.0000
    59 C29     -0.0059   5.3373   1.9682   C.ar      1 RES1   0.0000
    60 H24     -0.8245   5.0624   1.5696   H         1 RES1   0.0000
    61 C30      1.8731   4.5186   4.9866   C.3       1 RES1   0.0000
    62 H25      2.8606   4.4032   5.0974   H         1 RES1   0.0000
    63 N7       0.4052   4.7263   3.0922   N.ar      1 RES1   0.0000
    64 C31      5.7382   7.9521   1.2438   C.3       2 RES2   0.0000
    65 F1       7.0338   7.8903   1.0238   F         2 RES2   0.0000
    66 F2       5.1134   7.4556   0.1955   F         2 RES2   0.0000
    67 F3       5.4930   7.0937   2.2692   F         2 RES2   0.0000
    68 O1       5.8553   9.9748   2.8345   O.3       2 RES2  -1.0000
    69 O2       5.5812  10.3288   0.4700   O.2       2 RES2   0.0000
    70 O3       3.7574   9.4523   1.7466   O.2       2 RES2   0.0000
    71 S1       5.1592   9.6130   1.6440   S.o2      2 RES2   0.0000
    72 C32      4.7229   7.8395   8.2366   C.3       3 RES3   0.0000
    73 F4       3.7708   8.6152   7.7421   F         3 RES3   0.0000
    74 F5       5.8706   8.2099   7.6956   F         3 RES3   0.0000
    75 F6       4.7933   8.0718   9.5545   F         3 RES3   0.0000
    76 O4       4.4430   5.9191   6.5162   O.3       3 RES3  -1.0000
    77 O5       5.4063   5.4256   8.6913   O.2       3 RES3   0.0000
    78 O6       3.0367   5.9189   8.4938   O.2       3 RES3   0.0000
    79 S2       4.3551   6.0755   7.9455   S.o2      3 RES3   0.0000
@<TRIPOS>BOND
     1     1    23    1
     2     2     3   ar
     3     3     4    1
     4     5     3   ar
     5     6     5    1
     6     7     5   ar
     7     8     7    1
     8     9     7   ar
     9    10     9    1
    10    11     2    1
    11    12    11    1
    12    13    14   ar
    13    14    15   ar
    14    15    16    1
    15    17    15   ar
    16    18    17    1
    17    19    17   ar
    18    20    19    1
    19    21    13   ar
    20    22    21    1
    21    23     2   ar
    22    24     1    1
    23    25     1    1
    24    26    25    1
    25    27    28   ar
    26    28    29    1
    27    30    28   ar
    28    31    30    1
    29    32    30   ar
    30    33    32    1
    31    34    32   ar
    32    35    34    1
    33    36    27    1
    34    37    36    1
    35    38    39   ar
    36    39    40   ar
    37    40    41    1
    38    42    40   ar
    39    43    42    1
    40    44    42   ar
    41    45    44    1
    42    46    38   ar
    43    47    46    1
    44    48     1    1
    45    49     1    1
    46    50    39    1
    47    51    50    1
    48    52    53   ar
    49    53    54    1
    50    55    53   ar
    51    56    55    1
    52    57    55   ar
    53    58    57    1
    54    59    57   ar
    55    60    59    1
    56    61    25    1
    57    62    61    1
    58    63     1    1
    59     9    23   ar
    60    11    24    2
    61    13    24    1
    62    14    25    1
    63    19    21   ar
    64    27    48   ar
    65    34    48   ar
    66    36    49    2
    67    38    49    1
    68    44    46   ar
    69    50    61    1
    70    52    61    1
    71    52    63   ar
    72    59    63   ar
    73    64    65    1
    74    66    64    1
    75    67    64    1
    76    68    71    1
    77    69    71    2
    78    70    71    2
    79    71    64    1
    80    72    73    1
    81    74    72    1
    82    75    72    1
    83    76    79    1
    84    77    79    2
    85    78    79    2
    86    79    72    1
@<TRIPOS>SUBSTRUCTURE
     1 RES1        1 GROUP             0 ****  ****    0  
     2 RES2       64 GROUP             0 ****  ****    0  
     3 RES3       72 GROUP             0 ****  ****    0  
@<TRIPOS>CRYSIN
    9.2055   11.5244   16.9127  100.5540   93.7520  100.5206     2     1
