@<TRIPOS>MOLECULE
COSGEW
    78    77     1     0     0
SMALL
NO_CHARGES
****
Generated from the CSD

@<TRIPOS>ATOM
     1 I1       0.3890  12.8266   2.1557   I         1 RES1   0.0000
     2 I2       5.1419  11.3104   4.0560   I         1 RES1   0.0000
     3 Fe1      1.4813  11.0545   3.7423   Fe        1 RES1   0.0000
     4 C1       2.3687   9.9151   4.7452   C.1       1 RES1   0.0000
     5 O1       2.8217   9.1692   5.4409   O.2       1 RES1   0.0000
     6 C2      -0.0033  10.3009   4.5767   C.1       1 RES1   0.0000
     7 O2      -0.6975   9.8379   5.0550   O.2       1 RES1   0.0000
     8 C3       3.2645  11.7026   2.9651   C.3       1 RES1   0.0000
     9 P1       1.3766   9.6013   2.0682   P.3       1 RES1   0.0000
    10 P2       1.6236  12.6491   5.2670   P.3       1 RES1   0.0000
    11 O3       2.3928   9.7607   0.8697   O.3       1 RES1   0.0000
    12 O4       0.0752   9.3621   1.2801   O.3       1 RES1   0.0000
    13 O5       1.7653   8.1918   2.6145   O.3       1 RES1   0.0000
    14 O6       2.0747  11.9855   6.6232   O.3       1 RES1   0.0000
    15 O7       0.4045  13.5802   5.6339   O.3       1 RES1   0.0000
    16 O8       2.7206  13.7602   5.0659   O.3       1 RES1   0.0000
    17 C4       2.0882  10.3909  -0.4185   C.3       1 RES1   0.0000
    18 C5       3.1593  11.3425  -0.7093   C.3       1 RES1   0.0000
    19 C6       1.9820   9.2849  -1.4404   C.3       1 RES1   0.0000
    20 C7      -1.3056   9.5550   1.7040   C.3       1 RES1   0.0000
    21 C8      -1.8643   8.2561   2.2286   C.3       1 RES1   0.0000
    22 C9      -2.1015  10.0051   0.5028   C.3       1 RES1   0.0000
    23 C10      1.9244   6.9830   1.8046   C.3       1 RES1   0.0000
    24 C11      3.3797   6.7258   1.5491   C.3       1 RES1   0.0000
    25 C12      1.2811   5.8899   2.5547   C.3       1 RES1   0.0000
    26 C13      2.3539  12.7314   7.8652   C.3       1 RES1   0.0000
    27 C14      1.7579  11.8698   8.9659   C.3       1 RES1   0.0000
    28 C15      3.7550  12.9886   7.9684   C.3       1 RES1   0.0000
    29 C16     -1.0379  13.2972   5.6257   C.3       1 RES1   0.0000
    30 C17     -1.4515  12.7443   6.9411   C.3       1 RES1   0.0000
    31 C18     -1.6830  14.6218   5.2860   C.3       1 RES1   0.0000
    32 C19      2.4971  15.1234   4.5631   C.3       1 RES1   0.0000
    33 C20      2.5343  16.0493   5.6801   C.3       1 RES1   0.0000
    34 C21      3.6279  15.4449   3.6146   C.3       1 RES1   0.0000
    35 H1       3.3600  11.3435   2.0726   H         1 RES1   0.0000
    36 H2       3.1975  12.6897   2.8599   H         1 RES1   0.0000
    37 H3       1.2729  10.9097  -0.4251   H         1 RES1   0.0000
    38 H4       2.9949  11.8070  -1.5543   H         1 RES1   0.0000
    39 H5       4.0128  10.9045  -0.7748   H         1 RES1   0.0000
    40 H6       3.2215  12.0273  -0.0185   H         1 RES1   0.0000
    41 H7       1.7825   9.6206  -2.3123   H         1 RES1   0.0000
    42 H8       1.2794   8.6576  -1.1817   H         1 RES1   0.0000
    43 H9       2.8137   8.7803  -1.4825   H         1 RES1   0.0000
    44 H10     -1.3892  10.1964   2.4245   H         1 RES1   0.0000
    45 H11     -2.7800   8.3761   2.5275   H         1 RES1   0.0000
    46 H12     -1.3406   7.9546   2.9841   H         1 RES1   0.0000
    47 H13     -1.8451   7.5879   1.5456   H         1 RES1   0.0000
    48 H14     -3.0287  10.1455   0.7289   H         1 RES1   0.0000
    49 H15     -2.0522   9.3394  -0.1962   H         1 RES1   0.0000
    50 H16     -1.7383  10.8331   0.1622   H         1 RES1   0.0000
    51 H17      1.4872   7.0580   0.9387   H         1 RES1   0.0000
    52 H18      3.5252   5.9474   0.9985   H         1 RES1   0.0000
    53 H19      3.8712   6.6171   2.3740   H         1 RES1   0.0000
    54 H20      3.7900   7.4920   1.0751   H         1 RES1   0.0000
    55 H21      1.3472   5.0617   2.0565   H         1 RES1   0.0000
    56 H22      0.3523   6.0827   2.7096   H         1 RES1   0.0000
    57 H23      1.7248   5.7727   3.4015   H         1 RES1   0.0000
    58 H24      1.9531  13.6321   7.9247   H         1 RES1   0.0000
    59 H25      1.8810  12.2597   9.8247   H         1 RES1   0.0000
    60 H26      2.2013  10.9980   8.9509   H         1 RES1   0.0000
    61 H27      0.8166  11.7198   8.8082   H         1 RES1   0.0000
    62 H28      3.9797  13.4837   8.7645   H         1 RES1   0.0000
    63 H29      4.0831  13.4858   7.2001   H         1 RES1   0.0000
    64 H30      4.2454  12.1440   7.9948   H         1 RES1   0.0000
    65 H31     -1.3246  12.6240   4.9675   H         1 RES1   0.0000
    66 H32     -2.3926  12.5433   6.9629   H         1 RES1   0.0000
    67 H33     -1.2629  13.3946   7.6388   H         1 RES1   0.0000
    68 H34     -0.9569  11.9392   7.1428   H         1 RES1   0.0000
    69 H35     -2.6591  14.5114   5.2423   H         1 RES1   0.0000
    70 H36     -1.3854  14.9308   4.4291   H         1 RES1   0.0000
    71 H37     -1.4839  15.2622   5.9584   H         1 RES1   0.0000
    72 H38      1.6318  15.2918   4.1342   H         1 RES1   0.0000
    73 H39      2.4029  16.9625   5.4184   H         1 RES1   0.0000
    74 H40      3.4240  16.0107   6.1321   H         1 RES1   0.0000
    75 H41      1.8847  15.8308   6.3720   H         1 RES1   0.0000
    76 H42      3.5359  16.3312   3.2339   H         1 RES1   0.0000
    77 H43      3.6485  14.8116   2.8651   H         1 RES1   0.0000
    78 H44      4.4875  15.3939   4.0546   H         1 RES1   0.0000
@<TRIPOS>BOND
     1     1     3    1
     2     2     8    1
     3     3     4    1
     4     4     5    3
     5     6     3    1
     6     7     6    3
     7     8     3    1
     8     9     3    1
     9    10     3    1
    10    11     9    1
    11    12     9    1
    12    13     9    1
    13    14    10    1
    14    15    10    1
    15    16    10    1
    16    17    11    1
    17    18    17    1
    18    19    17    1
    19    20    12    1
    20    21    20    1
    21    22    20    1
    22    23    13    1
    23    24    23    1
    24    25    23    1
    25    26    14    1
    26    27    26    1
    27    28    26    1
    28    29    15    1
    29    30    29    1
    30    31    29    1
    31    32    16    1
    32    33    32    1
    33    34    32    1
    34    35     8    1
    35    36     8    1
    36    37    17    1
    37    38    18    1
    38    39    18    1
    39    40    18    1
    40    41    19    1
    41    42    19    1
    42    43    19    1
    43    44    20    1
    44    45    21    1
    45    46    21    1
    46    47    21    1
    47    48    22    1
    48    49    22    1
    49    50    22    1
    50    51    23    1
    51    52    24    1
    52    53    24    1
    53    54    24    1
    54    55    25    1
    55    56    25    1
    56    57    25    1
    57    58    26    1
    58    59    27    1
    59    60    27    1
    60    61    27    1
    61    62    28    1
    62    63    28    1
    63    64    28    1
    64    65    29    1
    65    66    30    1
    66    67    30    1
    67    68    30    1
    68    69    31    1
    69    70    31    1
    70    71    31    1
    71    72    32    1
    72    73    33    1
    73    74    33    1
    74    75    33    1
    75    76    34    1
    76    77    34    1
    77    78    34    1
@<TRIPOS>SUBSTRUCTURE
     1 RES1        1 GROUP             0 ****  ****    0  
@<TRIPOS>CRYSIN
    9.1900   12.8600   27.2100   90.0000   92.8000   90.0000    14     1
