@<TRIPOS>MOLECULE
COWFAW
    77    80     3     0     0
SMALL
USER_CHARGES
****
Generated from the CSD

@<TRIPOS>ATOM
     1 Fe1      2.5967   3.9580   2.0873   Fe        1 RES1   2.0000
     2 N1       1.1122   4.5844   3.5784   N.ar      1 RES1   0.0000
     3 C1      -0.1537   4.9716   3.3971   C.ar      1 RES1   0.0000
     4 H1      -0.5059   4.9778   2.5145   H         1 RES1   0.0000
     5 C2      -0.9789   5.3655   4.4501   C.ar      1 RES1   0.0000
     6 H2      -1.8747   5.6380   4.2877   H         1 RES1   0.0000
     7 C3      -0.4664   5.3528   5.7382   C.ar      1 RES1   0.0000
     8 H3      -1.0075   5.6167   6.4725   H         1 RES1   0.0000
     9 C4       0.8425   4.9502   5.9429   C.ar      1 RES1   0.0000
    10 H4       1.2144   4.9338   6.8164   H         1 RES1   0.0000
    11 C5       1.5991   4.5709   4.8455   C.ar      1 RES1   0.0000
    12 C6       3.0101   4.1710   4.9716   C.2       1 RES1   0.0000
    13 H5       3.4552   4.2038   5.8108   H         1 RES1   0.0000
    14 N2       3.6188   3.7784   3.9178   N.2       1 RES1   0.0000
    15 C7       5.0519   3.4584   3.9428   C.3       1 RES1   0.0000
    16 H6       5.4524   3.9367   4.7245   H         1 RES1   0.0000
    17 C8       5.6137   4.1023   2.6700   C.3       1 RES1   0.0000
    18 H7       5.7050   5.0795   2.7970   H         1 RES1   0.0000
    19 H8       6.5089   3.7288   2.4681   H         1 RES1   0.0000
    20 O1       4.7045   3.8277   1.5756   O.3       1 RES1   0.0000
    21 H9       4.9858   4.1279   0.9280   H         1 RES1   0.0000
    22 C9       5.3370   1.9447   4.1274   C.3       1 RES1   0.0000
    23 C10      4.6454   1.4650   5.4144   C.3       1 RES1   0.0000
    24 H10      4.9155   0.5433   5.6060   H         1 RES1   0.0000
    25 H11      3.6737   1.5024   5.2964   H         1 RES1   0.0000
    26 H12      4.9069   2.0442   6.1608   H         1 RES1   0.0000
    27 C11      6.8584   1.7712   4.2837   C.3       1 RES1   0.0000
    28 H13      7.0602   0.8362   4.4965   H         1 RES1   0.0000
    29 H14      7.1799   2.3478   5.0079   H         1 RES1   0.0000
    30 H15      7.3031   2.0200   3.4465   H         1 RES1   0.0000
    31 C12      4.8581   1.0959   2.9543   C.3       1 RES1   0.0000
    32 H16      5.0923   0.1578   3.1137   H         1 RES1   0.0000
    33 H17      5.2892   1.4038   2.1303   H         1 RES1   0.0000
    34 H18      3.8859   1.1792   2.8656   H         1 RES1   0.0000
    35 N3       2.5246   5.9919   1.3741   N.ar      1 RES1   0.0000
    36 C13      2.9606   7.0965   1.9971   C.ar      1 RES1   0.0000
    37 H19      3.3294   7.0160   2.8686   H         1 RES1   0.0000
    38 C14      2.8924   8.3515   1.4121   C.ar      1 RES1   0.0000
    39 H20      3.1919   9.1163   1.8882   H         1 RES1   0.0000
    40 C15      2.3872   8.4840   0.1352   C.ar      1 RES1   0.0000
    41 H21      2.3530   9.3334  -0.2875   H         1 RES1   0.0000
    42 C16      1.9268   7.3397  -0.5225   C.ar      1 RES1   0.0000
    43 H22      1.5725   7.3969  -1.4020   H         1 RES1   0.0000
    44 C17      1.9954   6.1266   0.1281   C.ar      1 RES1   0.0000
    45 C18      1.4772   4.8764  -0.4468   C.2       1 RES1   0.0000
    46 H23      0.9823   4.8791  -1.2578   H         1 RES1   0.0000
    47 N4       1.7102   3.7942   0.1710   N.2       1 RES1   0.0000
    48 C19      1.1525   2.5109  -0.2754   C.3       1 RES1   0.0000
    49 H24      0.3227   2.7044  -0.7978   H         1 RES1   0.0000
    50 C20      0.7359   1.7855   1.0137   C.3       1 RES1   0.0000
    51 H25     -0.1380   2.1262   1.3274   H         1 RES1   0.0000
    52 H26      0.6494   0.8134   0.8432   H         1 RES1   0.0000
    53 O2       1.7498   2.0248   2.0152   O.3       1 RES1   0.0000
    54 H27      1.5060   1.7756   2.7032   H         1 RES1   0.0000
    55 C21      2.1121   1.7032  -1.1912   C.3       1 RES1   0.0000
    56 C22      3.3346   1.1672  -0.4488   C.3       1 RES1   0.0000
    57 H28      3.8815   0.6344  -1.0631   H         1 RES1   0.0000
    58 H29      3.0422   0.6055   0.2986   H         1 RES1   0.0000
    59 H30      3.8643   1.9168  -0.1069   H         1 RES1   0.0000
    60 C23      2.5762   2.6079  -2.3411   C.3       1 RES1   0.0000
    61 H31      3.0741   2.0746  -2.9957   H         1 RES1   0.0000
    62 H32      3.1560   3.3145  -1.9870   H         1 RES1   0.0000
    63 H33      1.7961   3.0125  -2.7738   H         1 RES1   0.0000
    64 C24      1.3193   0.5198  -1.7692   C.3       1 RES1   0.0000
    65 H34      1.8730   0.0440  -2.4218   H         1 RES1   0.0000
    66 H35      0.5093   0.8529  -2.2089   H         1 RES1   0.0000
    67 H36      1.0698  -0.0911  -1.0439   H         1 RES1   0.0000
    68 Cl1      5.2009   7.3767   5.4476   Cl        2 RES2   0.0000
    69 O3       6.0587   6.6995   6.3655   O.3       2 RES2  -1.0000
    70 O4       3.8677   6.8606   5.5122   O.2       2 RES2   0.0000
    71 O5       5.7140   7.2492   4.1127   O.2       2 RES2   0.0000
    72 O6       5.1705   8.7925   5.7765   O.2       2 RES2   0.0000
    73 Cl2      3.5421   4.7447   9.2333   Cl        3 RES3   0.0000
    74 O7       2.1083   4.7829   9.3360   O.3       3 RES3  -1.0000
    75 O8       4.0798   4.2622  10.4836   O.2       3 RES3   0.0000
    76 O9       3.9310   3.8545   8.1789   O.2       3 RES3   0.0000
    77 O10      4.0420   6.0418   8.9537   O.2       3 RES3   0.0000
@<TRIPOS>BOND
     1     1     2    1
     2     2     3   ar
     3     3     4    1
     4     5     3   ar
     5     6     5    1
     6     7     5   ar
     7     8     7    1
     8     9     7   ar
     9    10     9    1
    10    11     2   ar
    11    12    11    1
    12    13    12    1
    13    14     1    1
    14    15    14    1
    15    16    15    1
    16    17    15    1
    17    18    17    1
    18    19    17    1
    19    20     1    1
    20    21    20    1
    21    22    15    1
    22    23    22    1
    23    24    23    1
    24    25    23    1
    25    26    23    1
    26    27    22    1
    27    28    27    1
    28    29    27    1
    29    30    27    1
    30    31    22    1
    31    32    31    1
    32    33    31    1
    33    34    31    1
    34    35     1    1
    35    36    35   ar
    36    37    36    1
    37    38    36   ar
    38    39    38    1
    39    40    38   ar
    40    41    40    1
    41    42    40   ar
    42    43    42    1
    43    44    35   ar
    44    45    44    1
    45    46    45    1
    46    47     1    1
    47    48    47    1
    48    49    48    1
    49    50    48    1
    50    51    50    1
    51    52    50    1
    52    53     1    1
    53    54    53    1
    54    55    48    1
    55    56    55    1
    56    57    56    1
    57    58    56    1
    58    59    56    1
    59    60    55    1
    60    61    60    1
    61    62    60    1
    62    63    60    1
    63    64    55    1
    64    65    64    1
    65    66    64    1
    66    67    64    1
    67     9    11   ar
    68    12    14    2
    69    17    20    1
    70    42    44   ar
    71    45    47    2
    72    50    53    1
    73    68    69    1
    74    70    68    2
    75    71    68    2
    76    72    68    2
    77    73    74    1
    78    75    73    2
    79    76    73    2
    80    77    73    2
@<TRIPOS>SUBSTRUCTURE
     1 RES1        1 GROUP             0 ****  ****    0  
     2 RES2       68 GROUP             0 ****  ****    0  
     3 RES3       73 GROUP             0 ****  ****    0  
@<TRIPOS>CRYSIN
    9.5751   15.1762   10.7704   90.0000  110.5290   90.0000     4     1
