@<TRIPOS>MOLECULE
COZKIN
    92    97     4     0     0
SMALL
USER_CHARGES
****
Generated from the CSD

@<TRIPOS>ATOM
     1 Fe1      3.3343   6.0791  16.1251   Fe        1 RES1   2.0000
     2 O1       0.4211   1.9422  20.8346   O.3       1 RES1   0.0000
     3 O2       0.8827   3.6534  22.2215   O.2       1 RES1   0.0000
     4 O3       4.8299   9.3894  10.2201   O.3       1 RES1   0.0000
     5 O4       5.2887   7.3229   9.4803   O.2       1 RES1   0.0000
     6 N1       1.1036   7.6842  15.7867   N.pl3     1 RES1   0.0000
     7 N2       2.5436   8.8046  16.9259   N.pl3     1 RES1   0.0000
     8 N3       1.5948   5.5582  15.0745   N.ar      1 RES1   0.0000
     9 N4       2.5881   5.1898  17.7459   N.ar      1 RES1   0.0000
    10 N5       5.8315   6.3432  17.3016   N.pl3     1 RES1   0.0000
    11 N6       4.7659   8.1815  17.6240   N.pl3     1 RES1   0.0000
    12 N7       4.8807   4.6188  16.1180   N.ar      1 RES1   0.0000
    13 N8       3.9611   6.7512  14.3382   N.ar      1 RES1   0.0000
    14 C1       2.3329   7.5931  16.3732   C.3       1 RES1   0.0000
    15 C2       0.5659   8.9624  15.9656   C.2       1 RES1   0.0000
    16 C3       1.4591   9.6474  16.6802   C.2       1 RES1   0.0000
    17 C4       0.6839   6.5585  15.0589   C.ar      1 RES1   0.0000
    18 C5      -0.5153   6.5017  14.3800   C.ar      1 RES1   0.0000
    19 C6      -0.7908   5.3696  13.6572   C.ar      1 RES1   0.0000
    20 C7       0.1233   4.3361  13.6365   C.ar      1 RES1   0.0000
    21 C8       1.2916   4.4583  14.3477   C.ar      1 RES1   0.0000
    22 C9       3.7168   9.2028  17.7036   C.3       1 RES1   0.0000
    23 C10      4.6482   6.9545  17.0601   C.3       1 RES1   0.0000
    24 C11      6.6926   7.1849  18.0147   C.2       1 RES1   0.0000
    25 C12      6.0248   8.3157  18.2073   C.2       1 RES1   0.0000
    26 C13      5.9675   5.0374  16.8057   C.ar      1 RES1   0.0000
    27 C14      7.1016   4.2819  17.0113   C.ar      1 RES1   0.0000
    28 C15      7.1396   3.0109  16.4691   C.ar      1 RES1   0.0000
    29 C16      6.0489   2.5485  15.7560   C.ar      1 RES1   0.0000
    30 C17      4.9562   3.3655  15.6070   C.ar      1 RES1   0.0000
    31 C18      2.2759   3.8773  17.6959   C.ar      1 RES1   0.0000
    32 C19      1.7262   3.1812  18.7431   C.ar      1 RES1   0.0000
    33 C20      1.4614   3.8452  19.9184   C.ar      1 RES1   0.0000
    34 C21      1.7597   5.1982  19.9921   C.ar      1 RES1   0.0000
    35 C22      2.3244   5.8206  18.8994   C.ar      1 RES1   0.0000
    36 C23      0.8797   3.1683  21.1243   C.2       1 RES1   0.0000
    37 C24     -0.1856   1.2325  21.9628   C.3       1 RES1   0.0000
    38 C25      4.0833   8.0520  14.0257   C.ar      1 RES1   0.0000
    39 C26      4.3859   8.5223  12.7578   C.ar      1 RES1   0.0000
    40 C27      4.5965   7.6191  11.7539   C.ar      1 RES1   0.0000
    41 C28      4.4690   6.2765  12.0333   C.ar      1 RES1   0.0000
    42 C29      4.1427   5.8893  13.3103   C.ar      1 RES1   0.0000
    43 C30      4.9500   8.0644  10.3602   C.2       1 RES1   0.0000
    44 C31      5.1892   9.9233   8.9370   C.3       1 RES1   0.0000
    45 H1      -0.2694   9.2788  15.6428   H         1 RES1   0.0000
    46 H2       1.3727  10.5475  16.9685   H         1 RES1   0.0000
    47 H3      -1.1317   7.2231  14.4125   H         1 RES1   0.0000
    48 H4      -1.6049   5.2964  13.1720   H         1 RES1   0.0000
    49 H5      -0.0536   3.5482  13.1355   H         1 RES1   0.0000
    50 H6       1.9128   3.7405  14.3292   H         1 RES1   0.0000
    51 H7       3.4564   9.3353  18.6495   H         1 RES1   0.0000
    52 H8       4.0656  10.0613  17.3583   H         1 RES1   0.0000
    53 H9       7.5757   6.9879  18.3023   H         1 RES1   0.0000
    54 H10      6.3492   9.0843  18.6637   H         1 RES1   0.0000
    55 H11      7.8336   4.6247  17.5106   H         1 RES1   0.0000
    56 H12      7.9064   2.4627  16.5848   H         1 RES1   0.0000
    57 H13      6.0558   1.6780  15.3748   H         1 RES1   0.0000
    58 H14      4.2121   3.0349  15.1190   H         1 RES1   0.0000
    59 H15      2.4463   3.4080  16.8873   H         1 RES1   0.0000
    60 H16      1.5318   2.2547  18.6576   H         1 RES1   0.0000
    61 H17      1.5777   5.6876  20.7853   H         1 RES1   0.0000
    62 H18      2.5385   6.7437  18.9682   H         1 RES1   0.0000
    63 H19     -0.5082   0.3573  21.6644   H         1 RES1   0.0000
    64 H20     -0.9369   1.7572  22.3120   H         1 RES1   0.0000
    65 H21      0.4834   1.1104  22.6693   H         1 RES1   0.0000
    66 H22      3.9544   8.6886  14.7170   H         1 RES1   0.0000
    67 H23      4.4459   9.4552  12.5914   H         1 RES1   0.0000
    68 H24      4.6045   5.6288  11.3529   H         1 RES1   0.0000
    69 H25      4.0379   4.9617  13.4826   H         1 RES1   0.0000
    70 H26      5.0710  10.8958   8.9431   H         1 RES1   0.0000
    71 H27      4.6162   9.5276   8.2467   H         1 RES1   0.0000
    72 H28      6.1262   9.7085   8.7441   H         1 RES1   0.0000
    73 P1       3.1760  13.3979  18.7096   P.3       2 RES2  -1.0000
    74 F1       2.0306  12.7454  19.6112   F         2 RES2   0.0000
    75 F2       4.3486  14.0388  17.8173   F         2 RES2   0.0000
    76 F3       2.1754  14.4680  18.1306   F         2 RES2   0.0000
    77 F4       2.8287  12.4024  17.5187   F         2 RES2   0.0000
    78 F5       4.2084  12.3207  19.2728   F         2 RES2   0.0000
    79 F6       3.5812  14.3750  19.8908   F         2 RES2   0.0000
    80 P2       1.8673   0.0837  15.6322   P.3       3 RES3  -1.0000
    81 F7       1.7667  -0.2926  14.1236   F         3 RES3   0.0000
    82 F8       1.9844   0.3820  17.1865   F         3 RES3   0.0000
    83 F9       3.4281  -0.2013  15.6139   F         3 RES3   0.0000
    84 F10      1.6023  -1.4681  15.9991   F         3 RES3   0.0000
    85 F11      0.3082   0.3338  15.6692   F         3 RES3   0.0000
    86 F12      2.1187   1.6072  15.2946   F         3 RES3   0.0000
    87 N9       0.8527   2.7882   9.5785   N.1       4 RES4   0.0000
    88 C32      0.7980   2.0322  10.4272   C.1       4 RES4   0.0000
    89 C33      0.7239   1.0561  11.4910   C.3       4 RES4   0.0000
    90 H29      1.3284   1.3184  12.2178   H         4 RES4   0.0000
    91 H30      0.9875   0.1787  11.1479   H         4 RES4   0.0000
    92 H31     -0.1943   1.0131  11.8321   H         4 RES4   0.0000
@<TRIPOS>BOND
     1     1     8    1
     2     2    36    1
     3     3    36    2
     4     4    43    1
     5     5    43    2
     6     6    14    1
     7     7    14    1
     8     8    17   ar
     9     9     1    1
    10    10    23    1
    11    11    22    1
    12    12     1    1
    13    13     1    1
    14    14     1    1
    15    15     6    1
    16    16     7    1
    17    17     6    1
    18    18    17   ar
    19    19    18   ar
    20    20    19   ar
    21    21     8   ar
    22    22     7    1
    23    23     1    1
    24    24    10    1
    25    25    11    1
    26    26    10    1
    27    27    26   ar
    28    28    27   ar
    29    29    28   ar
    30    30    12   ar
    31    31     9   ar
    32    32    31   ar
    33    33    32   ar
    34    34    33   ar
    35    35     9   ar
    36    36    33    1
    37    37     2    1
    38    38    13   ar
    39    39    38   ar
    40    40    39   ar
    41    41    40   ar
    42    42    13   ar
    43    43    40    1
    44    44     4    1
    45    45    15    1
    46    46    16    1
    47    47    18    1
    48    48    19    1
    49    49    20    1
    50    50    21    1
    51    51    22    1
    52    52    22    1
    53    53    24    1
    54    54    25    1
    55    55    27    1
    56    56    28    1
    57    57    29    1
    58    58    30    1
    59    59    31    1
    60    60    32    1
    61    61    34    1
    62    62    35    1
    63    63    37    1
    64    64    37    1
    65    65    37    1
    66    66    38    1
    67    67    39    1
    68    68    41    1
    69    69    42    1
    70    70    44    1
    71    71    44    1
    72    72    44    1
    73    11    23    1
    74    12    26   ar
    75    15    16    2
    76    20    21   ar
    77    24    25    2
    78    29    30   ar
    79    34    35   ar
    80    41    42   ar
    81    73    74    1
    82    75    73    1
    83    76    73    1
    84    77    73    1
    85    78    73    1
    86    79    73    1
    87    80    81    1
    88    82    80    1
    89    83    80    1
    90    84    80    1
    91    85    80    1
    92    86    80    1
    93    87    88    3
    94    88    89    1
    95    89    90    1
    96    91    89    1
    97    92    89    1
@<TRIPOS>SUBSTRUCTURE
     1 RES1        1 GROUP             0 ****  ****    0  
     2 RES2       73 GROUP             0 ****  ****    0  
     3 RES3       80 GROUP             0 ****  ****    0  
     4 RES4       87 GROUP             0 ****  ****    0  
@<TRIPOS>CRYSIN
    8.4369   22.6147   20.3046   90.0000   90.9000   90.0000    14     1
