@<TRIPOS>MOLECULE
COZVIX
    93   100     1     0     0
SMALL
NO_CHARGES
****
Generated from the CSD

@<TRIPOS>ATOM
     1 Fe1      2.0936   4.9353   6.3153   Fe        1 RES1   0.0000
     2 S1      -1.6280   7.5789   4.5123   S.2       1 RES1   0.0000
     3 O1       0.9311   4.0273   7.7818   O.3       1 RES1   0.0000
     4 N1       1.7849   3.2507   4.9386   N.ar      1 RES1   0.0000
     5 C1       1.7112   1.9815   5.3781   C.ar      1 RES1   0.0000
     6 H1       1.9149   1.8036   6.2888   H         1 RES1   0.0000
     7 N2       1.3470   3.9230   0.7856   N.2       1 RES1   0.0000
     8 C2       1.3531   0.9281   4.5647   C.ar      1 RES1   0.0000
     9 H2       1.2826   0.0503   4.9209   H         1 RES1   0.0000
    10 N3       1.0462   3.8113  -0.5545   N.pl3     1 RES1   0.0000
    11 C3       1.0994   1.1571   3.2398   C.ar      1 RES1   0.0000
    12 H3       0.8417   0.4381   2.6739   H         1 RES1   0.0000
    13 N4       0.2020   6.8076  -2.6146   N.pl3     1 RES1   0.0000
    14 C4       1.2194   2.4365   2.7244   C.ar      1 RES1   0.0000
    15 N5       0.6856   7.9315  -2.0260   N.2       1 RES1   0.0000
    16 C5       1.5685   3.4364   3.6250   C.ar      1 RES1   0.0000
    17 H4       1.6612   4.3189   3.2852   H         1 RES1   0.0000
    18 N6       1.3359  12.5123  -3.3509   N.ar      1 RES1   0.0000
    19 C6       1.0246   2.7176   1.2871   C.2       1 RES1   0.0000
    20 N7       0.3986   5.9205   5.4640   N.2       1 RES1   0.0000
    21 C7       0.5056   1.8881   0.3120   C.2       1 RES1   0.0000
    22 H5       0.1974   0.9965   0.4269   H         1 RES1   0.0000
    23 C8       0.5234   2.6104  -0.8601   C.2       1 RES1   0.0000
    24 H6       0.2266   2.3179  -1.7140   H         1 RES1   0.0000
    25 C9       1.2602   4.9458  -1.4500   C.3       1 RES1   0.0000
    26 H7       1.6865   4.6273  -2.2849   H         1 RES1   0.0000
    27 H8       1.8759   5.5909  -1.0206   H         1 RES1   0.0000
    28 C10     -0.0416   5.6475  -1.7910   C.3       1 RES1   0.0000
    29 H9      -0.6386   5.0212  -2.2710   H         1 RES1   0.0000
    30 H10     -0.4945   5.9251  -0.9549   H         1 RES1   0.0000
    31 H11      0.1766   3.7949   7.6921   H         1 RES1   0.0000
    32 C11      0.0222   6.9732  -3.9345   C.2       1 RES1   0.0000
    33 H12     -0.3052   6.3196  -4.5420   H         1 RES1   0.0000
    34 C12      0.3921   8.2451  -4.2502   C.2       1 RES1   0.0000
    35 H13      0.3864   8.6564  -5.1066   H         1 RES1   0.0000
    36 C13      0.7857   8.8155  -3.0276   C.2       1 RES1   0.0000
    37 C14      1.2761  10.1697  -2.7611   C.ar      1 RES1   0.0000
    38 C15      2.0702  10.4379  -1.6521   C.ar      1 RES1   0.0000
    39 H14      2.3273   9.7327  -1.0698   H         1 RES1   0.0000
    40 C16      2.4873  11.7291  -1.3982   C.ar      1 RES1   0.0000
    41 H15      3.0341  11.9201  -0.6454   H         1 RES1   0.0000
    42 C17      2.0937  12.7494  -2.2634   C.ar      1 RES1   0.0000
    43 H16      2.3683  13.6401  -2.0790   H         1 RES1   0.0000
    44 C18      0.9067  11.2483  -3.5543   C.ar      1 RES1   0.0000
    45 H17      0.3186  11.0873  -4.2831   H         1 RES1   0.0000
    46 C19     -0.4500   6.6073   5.0674   C.1       1 RES1   0.0000
    47 H18      1.2276   3.3243   8.0963   H         1 RES1   0.0000
    48 S1A      5.8152   2.2917   8.1184   S.2       1 RES1   0.0000
    49 O1A      3.2560   5.8432   4.8489   O.3       1 RES1   0.0000
    50 N1A      2.4023   6.6199   7.6921   N.ar      1 RES1   0.0000
    51 C1A      2.4760   7.8890   7.2525   C.ar      1 RES1   0.0000
    52 H1A      2.2723   8.0670   6.3419   H         1 RES1   0.0000
    53 N2A      2.8402   5.9475  11.8451   N.2       1 RES1   0.0000
    54 C2A      2.8341   8.9424   8.0660   C.ar      1 RES1   0.0000
    55 H2A      2.9046   9.8202   7.7098   H         1 RES1   0.0000
    56 N3A      3.1409   6.0592  13.1852   N.pl3     1 RES1   0.0000
    57 C3A      3.0877   8.7134   9.3909   C.ar      1 RES1   0.0000
    58 H3A      3.3455   9.4324   9.9568   H         1 RES1   0.0000
    59 N4A      3.9851   3.0629  15.2452   N.pl3     1 RES1   0.0000
    60 C4A      2.9678   7.4340   9.9062   C.ar      1 RES1   0.0000
    61 N5A      3.5016   1.9391  14.6566   N.2       1 RES1   0.0000
    62 C5A      2.6187   6.4341   9.0057   C.ar      1 RES1   0.0000
    63 H4A      2.5260   5.5516   9.3454   H         1 RES1   0.0000
    64 N6A      2.8512  -2.6418  15.9816   N.ar      1 RES1   0.0000
    65 C6A      3.1626   7.1530  11.3436   C.2       1 RES1   0.0000
    66 N7A      3.7885   3.9501   7.1666   N.2       1 RES1   0.0000
    67 C7A      3.6816   7.9824  12.3187   C.2       1 RES1   0.0000
    68 H5A      3.9898   8.8741  12.2038   H         1 RES1   0.0000
    69 C8A      3.6638   7.2602  13.4908   C.2       1 RES1   0.0000
    70 H6A      3.9606   7.5526  14.3447   H         1 RES1   0.0000
    71 C9A      2.9270   4.9247  14.0807   C.3       1 RES1   0.0000
    72 H7A      2.5007   5.2432  14.9156   H         1 RES1   0.0000
    73 H8A      2.3113   4.2797  13.6512   H         1 RES1   0.0000
    74 C10A     4.2287   4.2230  14.4217   C.3       1 RES1   0.0000
    75 H9A      4.8258   4.8493  14.9017   H         1 RES1   0.0000
    76 H10A     4.6817   3.9454  13.5856   H         1 RES1   0.0000
    77 H11A     4.0105   6.0757   4.9386   H         1 RES1   0.0000
    78 C11A     4.1650   2.8974  16.5651   C.2       1 RES1   0.0000
    79 H12A     4.4924   3.5509  17.1727   H         1 RES1   0.0000
    80 C12A     3.7951   1.6254  16.8809   C.2       1 RES1   0.0000
    81 H13A     3.8008   1.2141  17.7373   H         1 RES1   0.0000
    82 C13A     3.4014   1.0550  15.6583   C.2       1 RES1   0.0000
    83 C14A     2.9111  -0.2992  15.3917   C.ar      1 RES1   0.0000
    84 C15A     2.1169  -0.5673  14.2828   C.ar      1 RES1   0.0000
    85 H14A     1.8599   0.1379  13.7005   H         1 RES1   0.0000
    86 C16A     1.6998  -1.8586  14.0289   C.ar      1 RES1   0.0000
    87 H15A     1.1531  -2.0495  13.2761   H         1 RES1   0.0000
    88 C17A     2.0934  -2.8788  14.8941   C.ar      1 RES1   0.0000
    89 H16A     1.8188  -3.7695  14.7097   H         1 RES1   0.0000
    90 C18A     3.2804  -1.3778  16.1850   C.ar      1 RES1   0.0000
    91 H17A     3.8685  -1.2168  16.9137   H         1 RES1   0.0000
    92 C19A     4.6371   3.2632   7.5633   C.1       1 RES1   0.0000
    93 H18A     2.9596   6.5462   4.5344   H         1 RES1   0.0000
@<TRIPOS>BOND
     1     1     3    1
     2     2    46    2
     3     3    31    1
     4     4     1    1
     5     5     4   ar
     6     6     5    1
     7     7    10    1
     8     8     5   ar
     9     9     8    1
    10    10    23    1
    11    11     8   ar
    12    12    11    1
    13    13    15    1
    14    14    11   ar
    15    15    36    2
    16    16     4   ar
    17    17    16    1
    18    18    42   ar
    19    19     7    2
    20    20     1    1
    21    21    19    1
    22    22    21    1
    23    23    21    2
    24    24    23    1
    25    25    10    1
    26    26    25    1
    27    27    25    1
    28    28    13    1
    29    29    28    1
    30    30    28    1
    31    32    13    1
    32    33    32    1
    33    34    32    2
    34    35    34    1
    35    36    34    1
    36    37    36    1
    37    38    37   ar
    38    39    38    1
    39    40    38   ar
    40    41    40    1
    41    42    40   ar
    42    43    42    1
    43    44    18   ar
    44    45    44    1
    45    46    20    2
    46    47     3    1
    47    48    92    2
    48    49     1    1
    49    50     1    1
    50    51    50   ar
    51    52    51    1
    52    53    56    1
    53    54    51   ar
    54    55    54    1
    55    56    69    1
    56    57    54   ar
    57    58    57    1
    58    59    61    1
    59    60    57   ar
    60    61    82    2
    61    62    50   ar
    62    63    62    1
    63    64    88   ar
    64    65    53    2
    65    66     1    1
    66    67    65    1
    67    68    67    1
    68    69    67    2
    69    70    69    1
    70    71    56    1
    71    72    71    1
    72    73    71    1
    73    74    59    1
    74    75    74    1
    75    76    74    1
    76    77    49    1
    77    78    59    1
    78    79    78    1
    79    80    78    2
    80    81    80    1
    81    82    80    1
    82    83    82    1
    83    84    83   ar
    84    85    84    1
    85    86    84   ar
    86    87    86    1
    87    88    86   ar
    88    89    88    1
    89    90    64   ar
    90    91    90    1
    91    92    66    2
    92    93    49    1
    93    14    16   ar
    94    14    19    1
    95    25    28    1
    96    37    44   ar
    97    60    62   ar
    98    60    65    1
    99    71    74    1
   100    83    90   ar
@<TRIPOS>SUBSTRUCTURE
     1 RES1        1 GROUP             0 ****  ****    0  
@<TRIPOS>CRYSIN
    7.6080   10.3940   12.7230   90.2700   96.7300  100.7000     2     1
