@<TRIPOS>MOLECULE
COZZAV
   209   221     5     0     0
SMALL
NO_CHARGES
****
Generated from the CSD

@<TRIPOS>ATOM
     1 Fe1     16.4970  -0.1666   3.8419   Fe        1 RES1   0.0000
     2 N1      15.3142   0.0200   2.2815   N.2       1 RES1   0.0000
     3 N2      17.5847  -1.4449   2.8199   N.2       1 RES1   0.0000
     4 N3      17.6645  -0.3793   5.4140   N.2       1 RES1   0.0000
     5 N4      15.3674   1.0825   4.8564   N.2       1 RES1   0.0000
     6 N5      17.7260   1.3186   3.2127   N.2       1 RES1   0.0000
     7 N6      18.7065   3.1850   2.5905   N.pl3     1 RES1   0.0000
     8 H1      18.8159   4.0286   2.3613   H         1 RES1   0.0000
     9 N7      15.3173  -1.6507   4.5845   N.2       1 RES1   0.0000
    10 N8      13.8624  -3.2319   4.9912   N.pl3     1 RES1   0.0000
    11 H2      13.3447  -3.9304   4.8523   H         1 RES1   0.0000
    12 N9      17.1179   0.5272  -1.6712   N.am      1 RES1   0.0000
    13 H3      17.6385   0.7091  -0.9860   H         1 RES1   0.0000
    14 N10     21.7830  -2.3433   4.9924   N.am      1 RES1   0.0000
    15 H4      21.2802  -1.6224   4.9561   H         1 RES1   0.0000
    16 N11     18.7301   3.0380   8.0289   N.am      1 RES1   0.0000
    17 H5      18.7609   2.6399   7.2447   H         1 RES1   0.0000
    18 N12     11.8570   3.3655   2.8690   N.am      1 RES1   0.0000
    19 H6      12.7000   3.2272   2.6536   H         1 RES1   0.0000
    20 O1      16.0790   1.4667  -3.4563   O.2       1 RES1   0.0000
    21 O2      23.9270  -3.0506   4.7480   O.2       1 RES1   0.0000
    22 O3      19.7051   4.7066   9.2315   O.2       1 RES1   0.0000
    23 O4      10.3158   4.9889   3.1245   O.2       1 RES1   0.0000
    24 C1      13.9988   0.4496   2.3057   C.2       1 RES1   0.0000
    25 C2      15.5226  -0.4011   0.9900   C.2       1 RES1   0.0000
    26 C3      17.5565  -1.6857   1.4636   C.2       1 RES1   0.0000
    27 C4      18.5214  -2.3125   3.3359   C.2       1 RES1   0.0000
    28 C5      18.5766  -1.3950   5.6164   C.2       1 RES1   0.0000
    29 C6      17.6414   0.3355   6.5867   C.2       1 RES1   0.0000
    30 C7      15.6443   1.6774   6.0748   C.2       1 RES1   0.0000
    31 C8      14.0583   1.4085   4.5648   C.2       1 RES1   0.0000
    32 C9      13.3933   0.3227   1.0090   C.2       1 RES1   0.0000
    33 H7      12.4974   0.5382   0.7784   H         1 RES1   0.0000
    34 C10     14.3461  -0.1638   0.1797   C.2       1 RES1   0.0000
    35 H8      14.2601  -0.3202  -0.7542   H         1 RES1   0.0000
    36 C11     18.5404  -2.6902   1.1236   C.2       1 RES1   0.0000
    37 H9      18.7536  -3.0013   0.2508   H         1 RES1   0.0000
    38 C12     19.0979  -3.1011   2.2748   C.2       1 RES1   0.0000
    39 H10     19.7508  -3.7850   2.3717   H         1 RES1   0.0000
    40 C13     19.1459  -1.3036   6.9326   C.2       1 RES1   0.0000
    41 H11     19.7895  -1.8896   7.3139   H         1 RES1   0.0000
    42 C14     18.5852  -0.2192   7.5246   C.2       1 RES1   0.0000
    43 H12     18.7789   0.1120   8.3933   H         1 RES1   0.0000
    44 C15     14.5086   2.4859   6.4862   C.2       1 RES1   0.0000
    45 H13     14.4663   3.0543   7.2464   H         1 RES1   0.0000
    46 C16     13.5226   2.2793   5.5835   C.2       1 RES1   0.0000
    47 H14     12.6438   2.6399   5.6134   H         1 RES1   0.0000
    48 C17     16.6082  -1.1699   0.5731   C.2       1 RES1   0.0000
    49 C18     18.9242  -2.3663   4.6682   C.2       1 RES1   0.0000
    50 C19     16.7089   1.3370   6.9008   C.2       1 RES1   0.0000
    51 C20     13.3713   0.9998   3.4262   C.2       1 RES1   0.0000
    52 C21     17.5297   2.5986   2.9238   C.2       1 RES1   0.0000
    53 C22     19.6939   2.2443   2.6692   C.2       1 RES1   0.0000
    54 H15     20.6183   2.3688   2.4910   H         1 RES1   0.0000
    55 C23     19.0859   1.0984   3.0550   C.2       1 RES1   0.0000
    56 H16     19.5237   0.2671   3.1968   H         1 RES1   0.0000
    57 C24     16.2482   3.3380   2.9200   C.3       1 RES1   0.0000
    58 H17     16.4099   4.2702   2.6657   H         1 RES1   0.0000
    59 H18     15.6352   2.9267   2.2748   H         1 RES1   0.0000
    60 H19     15.8506   3.3057   3.8144   H         1 RES1   0.0000
    61 C25     14.7042  -2.6792   4.0825   C.2       1 RES1   0.0000
    62 C26     13.9500  -2.5436   6.1307   C.2       1 RES1   0.0000
    63 H20     13.4666  -2.7067   6.9316   H         1 RES1   0.0000
    64 C27     14.8455  -1.5792   5.9231   C.2       1 RES1   0.0000
    65 H21     15.1254  -0.9428   6.5701   H         1 RES1   0.0000
    66 C28     14.8886  -3.2174   2.7557   C.3       1 RES1   0.0000
    67 H22     14.3032  -3.9952   2.6346   H         1 RES1   0.0000
    68 H23     14.6654  -2.5338   2.0914   H         1 RES1   0.0000
    69 H24     15.8225  -3.4923   2.6415   H         1 RES1   0.0000
    70 C29     16.6084  -1.6817  -0.8421   C.ar      1 RES1   0.0000
    71 C30     16.8594  -0.8354  -1.9305   C.ar      1 RES1   0.0000
    72 C31     16.8518  -1.3427  -3.2369   C.ar      1 RES1   0.0000
    73 H25     17.0603  -0.7778  -3.9718   H         1 RES1   0.0000
    74 C32     16.5353  -2.6823  -3.4473   C.ar      1 RES1   0.0000
    75 H26     16.5170  -3.0249  -4.3333   H         1 RES1   0.0000
    76 C33     16.2505  -3.5122  -2.3974   C.ar      1 RES1   0.0000
    77 H27     16.0191  -4.4195  -2.5568   H         1 RES1   0.0000
    78 C34     16.3008  -3.0211  -1.0955   C.ar      1 RES1   0.0000
    79 H28     16.1226  -3.6063  -0.3685   H         1 RES1   0.0000
    80 C35     16.6360   1.5965  -2.3855   C.2       1 RES1   0.0000
    81 C36     16.7867   2.9646  -1.7207   C.3       1 RES1   0.0000
    82 C37     17.2625   3.9789  -2.7576   C.3       1 RES1   0.0000
    83 H29     16.6485   3.9775  -3.5203   H         1 RES1   0.0000
    84 H30     17.2835   4.8732  -2.3561   H         1 RES1   0.0000
    85 H31     18.1609   3.7379  -3.0619   H         1 RES1   0.0000
    86 C38     17.7483   2.9728  -0.5397   C.3       1 RES1   0.0000
    87 H32     17.4475   2.3236   0.1315   H         1 RES1   0.0000
    88 H33     18.6460   2.7322  -0.8476   H         1 RES1   0.0000
    89 H34     17.7662   3.8675  -0.1401   H         1 RES1   0.0000
    90 C39     15.3716   3.3568  -1.2386   C.3       1 RES1   0.0000
    91 H35     14.7521   3.3509  -1.9997   H         1 RES1   0.0000
    92 H36     15.0662   2.7126  -0.5657   H         1 RES1   0.0000
    93 H37     15.3965   4.2525  -0.8442   H         1 RES1   0.0000
    94 C40     19.7178  -3.5591   5.1178   C.ar      1 RES1   0.0000
    95 C41     21.1110  -3.5387   5.2711   C.ar      1 RES1   0.0000
    96 C42     21.7675  -4.6901   5.7482   C.ar      1 RES1   0.0000
    97 H38     22.7095  -4.6846   5.8729   H         1 RES1   0.0000
    98 C43     21.0345  -5.8341   6.0355   C.ar      1 RES1   0.0000
    99 H39     21.4836  -6.6036   6.3625   H         1 RES1   0.0000
   100 C44     19.6664  -5.8763   5.8573   C.ar      1 RES1   0.0000
   101 H40     19.1773  -6.6704   6.0390   H         1 RES1   0.0000
   102 C45     19.0198  -4.7337   5.4024   C.ar      1 RES1   0.0000
   103 H41     18.0788  -4.7514   5.2830   H         1 RES1   0.0000
   104 C46     23.1212  -2.1441   4.7686   C.2       1 RES1   0.0000
   105 C47     23.5482  -0.6721   4.6430   C.3       1 RES1   0.0000
   106 C48     23.8962  -0.2141   6.0580   C.3       1 RES1   0.0000
   107 H42     23.0945  -0.2495   6.6202   H         1 RES1   0.0000
   108 H43     24.5844  -0.8034   6.4334   H         1 RES1   0.0000
   109 H44     24.2354   0.7051   6.0303   H         1 RES1   0.0000
   110 C49     22.4598   0.2355   4.0600   C.3       1 RES1   0.0000
   111 H45     21.7042   0.2789   4.6810   H         1 RES1   0.0000
   112 H46     22.1575  -0.1277   3.2020   H         1 RES1   0.0000
   113 H47     22.8235   1.1353   3.9233   H         1 RES1   0.0000
   114 C50     24.7812  -0.6285   3.7383   C.3       1 RES1   0.0000
   115 H48     24.5371  -0.9251   2.8370   H         1 RES1   0.0000
   116 H49     25.1251   0.2887   3.6985   H         1 RES1   0.0000
   117 H50     25.4742  -1.2198   4.0998   H         1 RES1   0.0000
   118 C51     16.6850   1.8273   8.3260   C.ar      1 RES1   0.0000
   119 C52     17.6760   2.6466   8.8661   C.ar      1 RES1   0.0000
   120 C53     17.6412   2.9618  10.2401   C.ar      1 RES1   0.0000
   121 H51     18.3212   3.5061  10.6214   H         1 RES1   0.0000
   122 C54     16.6157   2.4765  11.0333   C.ar      1 RES1   0.0000
   123 H52     16.6009   2.6910  11.9586   H         1 RES1   0.0000
   124 C55     15.6193   1.6892  10.5083   C.ar      1 RES1   0.0000
   125 H53     14.9156   1.3690  11.0608   H         1 RES1   0.0000
   126 C56     15.6557   1.3671   9.1585   C.ar      1 RES1   0.0000
   127 H54     14.9679   0.8230   8.7912   H         1 RES1   0.0000
   128 C57     19.7152   3.9510   8.2636   C.2       1 RES1   0.0000
   129 C58     20.8715   3.9040   7.2637   C.3       1 RES1   0.0000
   130 C59     21.8663   2.8795   7.8640   C.3       1 RES1   0.0000
   131 H55     21.4387   1.9996   7.9159   H         1 RES1   0.0000
   132 H56     22.6616   2.8245   7.2949   H         1 RES1   0.0000
   133 H57     22.1282   3.1683   8.7635   H         1 RES1   0.0000
   134 C60     20.4676   3.4550   5.8625   C.3       1 RES1   0.0000
   135 H58     19.7484   4.0305   5.5287   H         1 RES1   0.0000
   136 H59     20.1551   2.5260   5.8937   H         1 RES1   0.0000
   137 H60     21.2418   3.5179   5.2640   H         1 RES1   0.0000
   138 C61     21.4969   5.2876   7.1669   C.3       1 RES1   0.0000
   139 H61     21.7613   5.5901   8.0595   H         1 RES1   0.0000
   140 H62     22.2881   5.2483   6.5874   H         1 RES1   0.0000
   141 H63     20.8469   5.9142   6.7880   H         1 RES1   0.0000
   142 C62     11.8688   1.0412   3.4310   C.ar      1 RES1   0.0000
   143 C63     11.1290   2.2115   3.2055   C.ar      1 RES1   0.0000
   144 C64      9.7261   2.1677   3.2795   C.ar      1 RES1   0.0000
   145 H64      9.2179   2.9600   3.1536   H         1 RES1   0.0000
   146 C65      9.0857   0.9703   3.5367   C.ar      1 RES1   0.0000
   147 H65      8.1380   0.9467   3.5808   H         1 RES1   0.0000
   148 C66      9.8064  -0.1982   3.7303   C.ar      1 RES1   0.0000
   149 H66      9.3571  -1.0194   3.8939   H         1 RES1   0.0000
   150 C67     11.1943  -0.1505   3.6822   C.ar      1 RES1   0.0000
   151 H67     11.6922  -0.9467   3.8230   H         1 RES1   0.0000
   152 C68     11.4534   4.6607   2.8261   C.2       1 RES1   0.0000
   153 C69     12.5413   5.6667   2.4357   C.3       1 RES1   0.0000
   154 C70     11.8813   7.0098   2.1208   C.3       1 RES1   0.0000
   155 H68     11.3709   7.3147   2.9010   H         1 RES1   0.0000
   156 H69     12.5724   7.6702   1.9046   H         1 RES1   0.0000
   157 H70     11.2766   6.9061   1.3562   H         1 RES1   0.0000
   158 C71     13.3343   5.2012   1.2125   C.3       1 RES1   0.0000
   159 H71     13.7606   4.3409   1.4081   H         1 RES1   0.0000
   160 H72     12.7270   5.1010   0.4498   H         1 RES1   0.0000
   161 H73     14.0228   5.8651   0.9981   H         1 RES1   0.0000
   162 C72     13.4761   5.8235   3.6464   C.3       1 RES1   0.0000
   163 H74     12.9661   6.1617   4.4112   H         1 RES1   0.0000
   164 H75     14.1917   6.4563   3.4269   H         1 RES1   0.0000
   165 H76     13.8674   4.9537   3.8732   H         1 RES1   0.0000
   166 C73      9.2859   3.2792  17.1285   C.ar      2 RES2   0.0000
   167 H77      9.0957   2.5849  17.7485   H         2 RES2   0.0000
   168 C74      8.6963   4.5275  17.2821   C.ar      2 RES2   0.0000
   169 H78      8.1018   4.6885  18.0062   H         2 RES2   0.0000
   170 C75      8.9754   5.5447  16.3767   C.ar      2 RES2   0.0000
   171 H79      8.5728   6.3994  16.4805   H         2 RES2   0.0000
   172 C76      9.8445   5.3112  15.3163   C.ar      2 RES2   0.0000
   173 H80     10.0356   6.0065  14.6970   H         2 RES2   0.0000
   174 C77     10.4342   4.0620  15.1623   C.ar      2 RES2   0.0000
   175 H81     11.0274   3.9029  14.4375   H         2 RES2   0.0000
   176 C78     10.1555   3.0465  16.0688   C.ar      2 RES2   0.0000
   177 H82     10.5586   2.1920  15.9633   H         2 RES2   0.0000
   178 C79     21.7885  18.4144   0.2387   C.ar      3 RES3   0.0000
   179 H83     21.3873  17.5698   0.4065   H         3 RES3   0.0000
   180 C80     21.0162  19.5359   0.1730   C.ar      3 RES3   0.0000
   181 H84     20.0746  19.4692   0.2854   H         3 RES3   0.0000
   182 C81     21.5991  20.7753  -0.0605   C.ar      3 RES3   0.0000
   183 H85     21.0586  21.5551  -0.0986   H         3 RES3   0.0000
   184 C79B    22.9695  20.8696  -0.2387   C.ar      3 RES3   0.0000
   185 H83B    23.3707  21.7142  -0.4065   H         3 RES3   0.0000
   186 C80B    23.7418  19.7481  -0.1730   C.ar      3 RES3   0.0000
   187 H84B    24.6834  19.8148  -0.2854   H         3 RES3   0.0000
   188 C81B    23.1589  18.5087   0.0605   C.ar      3 RES3   0.0000
   189 H85B    23.6994  17.7289   0.0986   H         3 RES3   0.0000
   190 C82     10.1581   9.8956   0.8943   C.ar      4 RES4   0.0000
   191 H86      9.4411   9.9369   1.5154   H         4 RES4   0.0000
   192 C83     11.3737  10.3887   1.2369   C.ar      4 RES4   0.0000
   193 H87     11.4967  10.7894   2.0880   H         4 RES4   0.0000
   194 C84     12.4222  10.3120   0.3581   C.ar      4 RES4   0.0000
   195 H88     13.2796  10.6401   0.6020   H         4 RES4   0.0000
   196 C82B    12.2209   9.7464  -0.8943   C.ar      4 RES4   0.0000
   197 H86B    12.9379   9.7051  -1.5154   H         4 RES4   0.0000
   198 C83B    11.0053   9.2533  -1.2369   C.ar      4 RES4   0.0000
   199 H87B    10.8823   8.8526  -2.0880   H         4 RES4   0.0000
   200 C84B     9.9568   9.3300  -0.3581   C.ar      4 RES4   0.0000
   201 H88B     9.0994   9.0019  -0.6020   H         4 RES4   0.0000
   202 S1      16.0698  12.0445   1.2645   S.3       5 RES5   0.0000
   203 C85     17.2350  13.1150   0.5795   C.3       5 RES5   0.0000
   204 H89     17.3850  12.8832  -0.3719   H         5 RES5   0.0000
   205 H90     16.8997  14.0460   0.6210   H         5 RES5   0.0000
   206 C86     18.3952  13.0168   1.2593   C.3       5 RES5   0.0000
   207 H91     19.0549  13.6276   0.8701   H         5 RES5   0.0000
   208 H92     18.2435  13.2564   2.1987   H         5 RES5   0.0000
   209 H93     18.7265  12.0975   1.2075   H         5 RES5   0.0000
@<TRIPOS>BOND
     1     1     2    1
     2     2    24    1
     3     3     1    1
     4     4     1    1
     5     5     1    1
     6     6     1    1
     7     7     8    1
     8     9     1    1
     9    10    11    1
    10    12    13    1
    11    14    15    1
    12    16    17    1
    13    18    19    1
    14    20    80    2
    15    21   104    2
    16    22   128    2
    17    23   152    2
    18    24    32    1
    19    25     2    1
    20    26     3    2
    21    27     3    1
    22    28     4    1
    23    29     4    1
    24    30     5    1
    25    31     5    2
    26    32    33    1
    27    34    25    1
    28    35    34    1
    29    36    26    1
    30    37    36    1
    31    38    27    1
    32    39    38    1
    33    40    28    2
    34    41    40    1
    35    42    29    2
    36    43    42    1
    37    44    30    1
    38    45    44    1
    39    46    31    1
    40    47    46    1
    41    48    25    2
    42    49    27    2
    43    50    29    1
    44    51    24    2
    45    52     6    2
    46    53     7    1
    47    54    53    1
    48    55     6    1
    49    56    55    1
    50    57    52    1
    51    58    57    1
    52    59    57    1
    53    60    57    1
    54    61     9    2
    55    62    10    1
    56    63    62    1
    57    64     9    1
    58    65    64    1
    59    66    61    1
    60    67    66    1
    61    68    66    1
    62    69    66    1
    63    70    48    1
    64    71    12    1
    65    72    71   ar
    66    73    72    1
    67    74    72   ar
    68    75    74    1
    69    76    74   ar
    70    77    76    1
    71    78    70   ar
    72    79    78    1
    73    80    12   am
    74    81    80    1
    75    82    81    1
    76    83    82    1
    77    84    82    1
    78    85    82    1
    79    86    81    1
    80    87    86    1
    81    88    86    1
    82    89    86    1
    83    90    81    1
    84    91    90    1
    85    92    90    1
    86    93    90    1
    87    94    49    1
    88    95    14    1
    89    96    95   ar
    90    97    96    1
    91    98    96   ar
    92    99    98    1
    93   100    98   ar
    94   101   100    1
    95   102    94   ar
    96   103   102    1
    97   104    14   am
    98   105   104    1
    99   106   105    1
   100   107   106    1
   101   108   106    1
   102   109   106    1
   103   110   105    1
   104   111   110    1
   105   112   110    1
   106   113   110    1
   107   114   105    1
   108   115   114    1
   109   116   114    1
   110   117   114    1
   111   118    50    1
   112   119    16    1
   113   120   119   ar
   114   121   120    1
   115   122   120   ar
   116   123   122    1
   117   124   122   ar
   118   125   124    1
   119   126   118   ar
   120   127   126    1
   121   128    16   am
   122   129   128    1
   123   130   129    1
   124   131   130    1
   125   132   130    1
   126   133   130    1
   127   134   129    1
   128   135   134    1
   129   136   134    1
   130   137   134    1
   131   138   129    1
   132   139   138    1
   133   140   138    1
   134   141   138    1
   135   142    51    1
   136   143    18    1
   137   144   143   ar
   138   145   144    1
   139   146   144   ar
   140   147   146    1
   141   148   146   ar
   142   149   148    1
   143   150   142   ar
   144   151   150    1
   145   152    18   am
   146   153   152    1
   147   154   153    1
   148   155   154    1
   149   156   154    1
   150   157   154    1
   151   158   153    1
   152   159   158    1
   153   160   158    1
   154   161   158    1
   155   162   153    1
   156   163   162    1
   157   164   162    1
   158   165   162    1
   159     7    52    1
   160    10    61    1
   161    26    48    1
   162    28    49    1
   163    30    50    2
   164    31    51    1
   165    32    34    2
   166    36    38    2
   167    40    42    1
   168    44    46    2
   169    53    55    2
   170    62    64    2
   171    70    71   ar
   172    76    78   ar
   173    94    95   ar
   174   100   102   ar
   175   118   119   ar
   176   124   126   ar
   177   142   143   ar
   178   148   150   ar
   179   166   167    1
   180   168   166   ar
   181   169   168    1
   182   170   168   ar
   183   171   170    1
   184   172   170   ar
   185   173   172    1
   186   174   172   ar
   187   175   174    1
   188   176   166   ar
   189   177   176    1
   190   174   176   ar
   191   178   179    1
   192   180   178   ar
   193   181   180    1
   194   182   180   ar
   195   183   182    1
   196   184   182   ar
   197   185   184    1
   198   186   184   ar
   199   187   186    1
   200   188   178   ar
   201   189   188    1
   202   186   188   ar
   203   190   191    1
   204   192   190   ar
   205   193   192    1
   206   194   192   ar
   207   195   194    1
   208   196   194   ar
   209   197   196    1
   210   198   196   ar
   211   199   198    1
   212   200   190   ar
   213   201   200    1
   214   198   200   ar
   215   202   203    1
   216   203   204    1
   217   205   203    1
   218   206   203    1
   219   207   206    1
   220   208   206    1
   221   209   206    1
@<TRIPOS>SUBSTRUCTURE
     1 RES1        1 GROUP             0 ****  ****    0  
     2 RES2      166 GROUP             0 ****  ****    0  
     3 RES3      178 GROUP             0 ****  ****    0  
     4 RES4      190 GROUP             0 ****  ****    0  
     5 RES5      202 GROUP             0 ****  ****    0  
@<TRIPOS>CRYSIN
   22.3790   19.6420   17.3160   90.0000   92.5600   90.0000    14     1
