@<TRIPOS>MOLECULE
CUCPUM
   136   140     8     0     0
SMALL
USER_CHARGES
****
Generated from the CSD

@<TRIPOS>ATOM
     1 Fe1      3.9032   7.7282  10.2293   Fe        1 RES1   2.0000
     2 N1       4.0625   6.0006   9.2769   N.ar      1 RES1   0.0000
     3 N2       5.5356   8.1487   9.1990   N.ar      1 RES1   0.0000
     4 N3       4.9399   7.0432  11.7665   N.ar      1 RES1   0.0000
     5 N4       2.3792   7.0963  11.3040   N.ar      1 RES1   0.0000
     6 N5       3.7797   9.5518  10.9785   N.ar      1 RES1   0.0000
     7 N6       2.7663   8.5174   8.8143   N.ar      1 RES1   0.0000
     8 C1       3.3035   4.8903   9.3513   C.ar      1 RES1   0.0000
     9 H1       2.5950   4.8739   9.9533   H         1 RES1   0.0000
    10 C2       3.5355   3.7690   8.5661   C.ar      1 RES1   0.0000
    11 H2       2.9930   3.0179   8.6562   H         1 RES1   0.0000
    12 C3       4.5583   3.7665   7.6609   C.ar      1 RES1   0.0000
    13 H3       4.7062   3.0241   7.1218   H         1 RES1   0.0000
    14 C4       5.3819   4.8928   7.5522   C.ar      1 RES1   0.0000
    15 C5       5.0952   5.9780   8.3860   C.ar      1 RES1   0.0000
    16 C6       5.9114   7.1451   8.3602   C.ar      1 RES1   0.0000
    17 C7       7.0370   7.2003   7.5351   C.ar      1 RES1   0.0000
    18 C8       7.8506   8.3494   7.6266   C.ar      1 RES1   0.0000
    19 H4       8.6172   8.4296   7.1075   H         1 RES1   0.0000
    20 C9       7.4917   9.3445   8.4932   C.ar      1 RES1   0.0000
    21 H5       8.0263  10.1006   8.5776   H         1 RES1   0.0000
    22 C10      6.3312   9.2306   9.2483   C.ar      1 RES1   0.0000
    23 H6       6.0956   9.9312   9.8103   H         1 RES1   0.0000
    24 C11      6.4991   5.0000   6.6613   C.ar      1 RES1   0.0000
    25 H7       6.6806   4.3046   6.0707   H         1 RES1   0.0000
    26 C12      7.2950   6.0932   6.6641   C.ar      1 RES1   0.0000
    27 H8       8.0249   6.1273   6.0878   H         1 RES1   0.0000
    28 C13      6.2580   7.0828  11.9926   C.ar      1 RES1   0.0000
    29 H9       6.8129   7.4590  11.3476   H         1 RES1   0.0000
    30 C14      6.8259   6.5807  13.1538   C.ar      1 RES1   0.0000
    31 H10      7.7457   6.6373  13.2797   H         1 RES1   0.0000
    32 C15      6.0488   6.0049  14.1077   C.ar      1 RES1   0.0000
    33 H11      6.4322   5.6713  14.8871   H         1 RES1   0.0000
    34 C16      4.6561   5.9203  13.9060   C.ar      1 RES1   0.0000
    35 C17      4.1569   6.4765  12.7134   C.ar      1 RES1   0.0000
    36 C18      2.7563   6.4744  12.4488   C.ar      1 RES1   0.0000
    37 C19      1.8694   5.8632  13.3455   C.ar      1 RES1   0.0000
    38 C20      0.5063   5.8887  13.0065   C.ar      1 RES1   0.0000
    39 H12     -0.1221   5.4759  13.5528   H         1 RES1   0.0000
    40 C21      0.1189   6.5206  11.8753   C.ar      1 RES1   0.0000
    41 H13     -0.7837   6.5564  11.6522   H         1 RES1   0.0000
    42 C22      1.0618   7.1204  11.0402   C.ar      1 RES1   0.0000
    43 H14      0.7682   7.5522  10.2708   H         1 RES1   0.0000
    44 C23      3.7352   5.3211  14.8113   C.ar      1 RES1   0.0000
    45 H15      4.0499   4.9559  15.6064   H         1 RES1   0.0000
    46 C24      2.4123   5.2726  14.5367   C.ar      1 RES1   0.0000
    47 H16      1.8403   4.8479  15.1345   H         1 RES1   0.0000
    48 C25      4.2847  10.0536  12.1113   C.ar      1 RES1   0.0000
    49 H17      4.7532   9.4845  12.6776   H         1 RES1   0.0000
    50 C26      4.1445  11.3780  12.4774   C.ar      1 RES1   0.0000
    51 H18      4.5137  11.6799  13.2754   H         1 RES1   0.0000
    52 C27      3.4697  12.2380  11.6766   C.ar      1 RES1   0.0000
    53 H19      3.3794  13.1309  11.9182   H         1 RES1   0.0000
    54 C28      2.9019  11.7656  10.4667   C.ar      1 RES1   0.0000
    55 C29      3.0880  10.4119  10.1778   C.ar      1 RES1   0.0000
    56 C30      2.5431   9.8503   8.9937   C.ar      1 RES1   0.0000
    57 C31      1.8030  10.6386   8.0971   C.ar      1 RES1   0.0000
    58 C32      1.2585  10.0050   6.9873   C.ar      1 RES1   0.0000
    59 H20      0.7618  10.4898   6.3696   H         1 RES1   0.0000
    60 C33      1.4545   8.6762   6.8100   C.ar      1 RES1   0.0000
    61 H21      1.0839   8.2454   6.0735   H         1 RES1   0.0000
    62 C34      2.2105   7.9585   7.7281   C.ar      1 RES1   0.0000
    63 H22      2.3367   7.0480   7.5837   H         1 RES1   0.0000
    64 C35      2.1717  12.5614   9.5429   C.ar      1 RES1   0.0000
    65 H23      2.0578  13.4689   9.7145   H         1 RES1   0.0000
    66 C36      1.6404  12.0259   8.4160   C.ar      1 RES1   0.0000
    67 H24      1.1587  12.5716   7.8368   H         1 RES1   0.0000
    68 P1       4.8756   3.2997   2.6679   P.3       2 RES2   0.0000
    69 S1       4.6064   2.4965   0.8653   S.2       2 RES2   0.0000
    70 S2       5.4020   2.0466   4.1278   S.3       2 RES2  -1.0000
    71 C37      3.2974   4.1345   3.1018   C.3       2 RES2   0.0000
    72 H25      3.1064   4.7889   2.4125   H         2 RES2   0.0000
    73 H26      2.5916   3.4704   3.0689   H         2 RES2   0.0000
    74 C38      3.2120   4.8411   4.4533   C.3       2 RES2   0.0000
    75 H27      3.8864   4.4410   5.0424   H         2 RES2   0.0000
    76 C39      3.5052   6.3207   4.3517   C.3       2 RES2   0.0000
    77 H28      4.4270   6.4491   4.1158   H         2 RES2   0.0000
    78 H29      3.3299   6.7414   5.1969   H         2 RES2   0.0000
    79 H30      2.9454   6.7121   3.6767   H         2 RES2   0.0000
    80 C40      1.8515   4.6276   5.0939   C.3       2 RES2   0.0000
    81 H31      1.1657   4.9453   4.5019   H         2 RES2   0.0000
    82 H32      1.8096   5.1128   5.9219   H         2 RES2   0.0000
    83 H33      1.7207   3.6929   5.2641   H         2 RES2   0.0000
    84 C41      6.1069   4.6521   2.5484   C.3       2 RES2   0.0000
    85 H34      5.7650   5.3319   1.9478   H         2 RES2   0.0000
    86 H35      6.2078   5.0576   3.4236   H         2 RES2   0.0000
    87 C42      7.4844   4.2103   2.0536   C.3       2 RES2   0.0000
    88 H36      7.3650   3.3290   1.6432   H         2 RES2   0.0000
    89 C43      8.0020   5.1015   0.9968   C.3       2 RES2   0.0000
    90 H37      8.1108   5.9872   1.3500   H         2 RES2   0.0000
    91 H38      7.3831   5.1226   0.2631   H         2 RES2   0.0000
    92 H39      8.8512   4.7736   0.6893   H         2 RES2   0.0000
    93 C44      8.4723   4.0327   3.1776   C.3       2 RES2   0.0000
    94 H40      9.3225   3.7717   2.8187   H         2 RES2   0.0000
    95 H41      8.1554   3.3522   3.7768   H         2 RES2   0.0000
    96 H42      8.5660   4.8613   3.6553   H         2 RES2   0.0000
    97 P2       6.5151   6.8978  -3.6046   P.3       3 RES3   0.0000
    98 S3       5.2421   5.4217  -3.7614   S.2       3 RES3   0.0000
    99 S4       6.8611   7.9212  -5.2560   S.3       3 RES3  -1.0000
   100 C45      8.0090   6.4234  -2.6986   C.3       3 RES3   0.0000
   101 H43      8.2364   7.1671  -2.1179   H         3 RES3   0.0000
   102 H44      7.7674   5.6831  -2.1208   H         3 RES3   0.0000
   103 C46      9.1992   6.0500  -3.3793   C.3       3 RES3   0.0000
   104 H45      9.2277   6.4889  -4.2545   H         3 RES3   0.0000
   105 C47      9.3607   4.6119  -3.5494   C.3       3 RES3   0.0000
   106 H46      9.6780   4.4289  -4.4375   H         3 RES3   0.0000
   107 H47      8.5156   4.1775  -3.4164   H         3 RES3   0.0000
   108 H48      9.9943   4.2824  -2.9088   H         3 RES3   0.0000
   109 C48     10.3775   6.4011  -2.6256   C.3       3 RES3   0.0000
   110 H49     10.1499   7.0613  -1.9664   H         3 RES3   0.0000
   111 H50     11.0415   6.7563  -3.2191   H         3 RES3   0.0000
   112 H51     10.7227   5.6198  -2.1880   H         3 RES3   0.0000
   113 C49      5.8128   8.4092  -2.7658   C.3       3 RES3   0.0000
   114 H52      6.5004   9.0933  -2.8015   H         3 RES3   0.0000
   115 H53      5.0813   8.7222  -3.3192   H         3 RES3   0.0000
   116 C50      5.3301   8.3822  -1.4215   C.3       3 RES3   0.0000
   117 H54      6.1108   8.1246  -0.8881   H         3 RES3   0.0000
   118 C51      5.2135   9.7989  -1.2156   C.3       3 RES3   0.0000
   119 H55      5.6363  10.0392  -0.3947   H         3 RES3   0.0000
   120 H56      4.2847  10.0395  -1.1870   H         3 RES3   0.0000
   121 H57      5.6391  10.2596  -1.9463   H         3 RES3   0.0000
   122 C52      4.2015   7.7479  -0.7436   C.3       3 RES3   0.0000
   123 H58      4.3946   7.6657   0.1931   H         3 RES3   0.0000
   124 H59      4.0525   6.8757  -1.1183   H         3 RES3   0.0000
   125 H60      3.4138   8.2844  -0.8623   H         3 RES3   0.0000
   126 O1      11.5133  12.4691   2.0178   O.3       4 RES4   0.0000
   127 H61     12.0041  12.4828   1.2728   H         4 RES4   0.0000
   128 H62     11.7257  11.6971   2.4168   H         4 RES4   0.0000
   129 O2       9.5582  14.1839   3.1547   O.3       5 RES5   0.0000
   130 H63     10.2882  13.7424   2.9031   H         5 RES5   0.0000
   131 O3       7.5539  13.6311   5.0124   O.3       6 RES6   0.0000
   132 H64      8.3017  13.5781   4.3760   H         6 RES6   0.0000
   133 O4       8.6775  12.2296   7.1547   O.3       7 RES7   0.0000
   134 H65      8.5431  12.6608   6.3781   H         7 RES7   0.0000
   135 O5       7.3537  16.2701   5.9620   O.3       8 RES8   0.0000
   136 H66      7.0716  16.2979   6.8930   H         8 RES8   0.0000
@<TRIPOS>BOND
     1     1     2    1
     2     2     8   ar
     3     3     1    1
     4     4     1    1
     5     5     1    1
     6     6     1    1
     7     7     1    1
     8     8     9    1
     9    10     8   ar
    10    11    10    1
    11    12    10   ar
    12    13    12    1
    13    14    12   ar
    14    15     2   ar
    15    16     3   ar
    16    17    16   ar
    17    18    17   ar
    18    19    18    1
    19    20    18   ar
    20    21    20    1
    21    22     3   ar
    22    23    22    1
    23    24    14   ar
    24    25    24    1
    25    26    17   ar
    26    27    26    1
    27    28     4   ar
    28    29    28    1
    29    30    28   ar
    30    31    30    1
    31    32    30   ar
    32    33    32    1
    33    34    32   ar
    34    35     4   ar
    35    36     5   ar
    36    37    36   ar
    37    38    37   ar
    38    39    38    1
    39    40    38   ar
    40    41    40    1
    41    42     5   ar
    42    43    42    1
    43    44    34   ar
    44    45    44    1
    45    46    37   ar
    46    47    46    1
    47    48     6   ar
    48    49    48    1
    49    50    48   ar
    50    51    50    1
    51    52    50   ar
    52    53    52    1
    53    54    52   ar
    54    55     6   ar
    55    56     7   ar
    56    57    56   ar
    57    58    57   ar
    58    59    58    1
    59    60    58   ar
    60    61    60    1
    61    62     7   ar
    62    63    62    1
    63    64    54   ar
    64    65    64    1
    65    66    57   ar
    66    67    66    1
    67    14    15   ar
    68    15    16   ar
    69    20    22   ar
    70    24    26   ar
    71    34    35   ar
    72    35    36   ar
    73    40    42   ar
    74    44    46   ar
    75    54    55   ar
    76    55    56   ar
    77    60    62   ar
    78    64    66   ar
    79    68    69    2
    80    70    68    1
    81    71    68    1
    82    72    71    1
    83    73    71    1
    84    74    71    1
    85    75    74    1
    86    76    74    1
    87    77    76    1
    88    78    76    1
    89    79    76    1
    90    80    74    1
    91    81    80    1
    92    82    80    1
    93    83    80    1
    94    84    68    1
    95    85    84    1
    96    86    84    1
    97    87    84    1
    98    88    87    1
    99    89    87    1
   100    90    89    1
   101    91    89    1
   102    92    89    1
   103    93    87    1
   104    94    93    1
   105    95    93    1
   106    96    93    1
   107    97    98    2
   108    99    97    1
   109   100    97    1
   110   101   100    1
   111   102   100    1
   112   103   100    1
   113   104   103    1
   114   105   103    1
   115   106   105    1
   116   107   105    1
   117   108   105    1
   118   109   103    1
   119   110   109    1
   120   111   109    1
   121   112   109    1
   122   113    97    1
   123   114   113    1
   124   115   113    1
   125   116   113    1
   126   117   116    1
   127   118   116    1
   128   119   118    1
   129   120   118    1
   130   121   118    1
   131   122   116    1
   132   123   122    1
   133   124   122    1
   134   125   122    1
   135   126   127    1
   136   128   126    1
   137   129   130    1
   138   131   132    1
   139   133   134    1
   140   135   136    1
@<TRIPOS>SUBSTRUCTURE
     1 RES1        1 GROUP             0 ****  ****    0  
     2 RES2       68 GROUP             0 ****  ****    0  
     3 RES3       97 GROUP             0 ****  ****    0  
     4 RES4      126 GROUP             0 ****  ****    0  
     5 RES5      129 GROUP             0 ****  ****    0  
     6 RES6      131 GROUP             0 ****  ****    0  
     7 RES7      133 GROUP             0 ****  ****    0  
     8 RES8      135 GROUP             0 ****  ****    0  
@<TRIPOS>CRYSIN
   12.9403   15.9974   16.1466   62.4150   83.9180   72.6390     2     1
