@<TRIPOS>MOLECULE
CUDGAJ
    43    45     1     0     0
SMALL
NO_CHARGES
****
Generated from the CSD

@<TRIPOS>ATOM
     1 Fe1     -1.1676   9.3405   0.5490   Fe        1 RES1   0.0000
     2 S1      -2.7978  10.9892   0.1341   S.2       1 RES1   0.0000
     3 P1      -1.9468  11.9927  -1.3730   P.3       1 RES1   0.0000
     4 F1      -3.5522   9.1202   2.1601   F         1 RES1   0.0000
     5 F2      -2.1379   7.4909   2.4929   F         1 RES1   0.0000
     6 F3      -1.8759  10.8674   3.4360   F         1 RES1   0.0000
     7 F4      -0.4404   9.2430   3.7711   F         1 RES1   0.0000
     8 F5      -3.7520   9.4939   4.7905   F         1 RES1   0.0000
     9 F6      -2.4421   7.8671   5.0991   F         1 RES1   0.0000
    10 F7      -1.9362   9.7900   5.8861   F         1 RES1   0.0000
    11 O1      -2.9580   7.4571  -0.8760   O.2       1 RES1   0.0000
    12 O2       0.5613  11.4831   1.6169   O.2       1 RES1   0.0000
    13 O3       0.7460   7.2440   1.3048   O.2       1 RES1   0.0000
    14 O4      -0.2900  12.4210  -3.7654   O.2       1 RES1   0.0000
    15 O5       0.9962  10.5372  -3.6405   O.3       1 RES1   0.0000
    16 O6       1.9905   9.1761  -1.1892   O.2       1 RES1   0.0000
    17 O7       0.4689   7.9268  -2.3057   O.3       1 RES1   0.0000
    18 C1      -2.2614   8.1764  -0.3282   C.1       1 RES1   0.0000
    19 C2      -0.1252  10.6417   1.2551   C.1       1 RES1   0.0000
    20 C3       0.0312   8.0566   0.9720   C.1       1 RES1   0.0000
    21 C4      -2.1484   8.8868   2.2155   C.3       1 RES1   0.0000
    22 C5      -1.7632   9.4898   3.5620   C.3       1 RES1   0.0000
    23 C6      -2.4637   9.1678   4.8367   C.3       1 RES1   0.0000
    24 C7      -1.2345  13.5710  -0.8344   C.3       1 RES1   0.0000
    25 C8      -3.1580  12.3686  -2.6536   C.3       1 RES1   0.0000
    26 C9      -3.7286  11.1399  -3.3401   C.3       1 RES1   0.0000
    27 C10     -2.2397  14.4499  -0.0497   C.3       1 RES1   0.0000
    28 C11     -0.6273  10.9003  -2.0121   C.2       1 RES1   0.0000
    29 C12     -0.0030  11.3788  -3.1783   C.2       1 RES1   0.0000
    30 C13      1.7585  10.9564  -4.7951   C.3       1 RES1   0.0000
    31 C14      1.1595  10.4087  -6.0445   C.3       1 RES1   0.0000
    32 C15      1.9962  10.7361  -7.2580   C.3       1 RES1   0.0000
    33 C16      3.4314  10.3020  -7.0846   C.3       1 RES1   0.0000
    34 C17      4.0327  10.8240  -5.8133   C.3       1 RES1   0.0000
    35 C18      3.1881  10.4684  -4.6114   C.3       1 RES1   0.0000
    36 C19     -0.3359   9.8522  -1.2020   C.2       1 RES1   0.0000
    37 C20      0.8946   8.9824  -1.5868   C.2       1 RES1   0.0000
    38 C21      1.5432   7.0118  -2.8223   C.3       1 RES1   0.0000
    39 C22      0.9317   6.3205  -3.9873   C.3       1 RES1   0.0000
    40 C23      1.9464   5.2794  -4.5882   C.3       1 RES1   0.0000
    41 C24      2.4158   4.3306  -3.5134   C.3       1 RES1   0.0000
    42 C25      3.0213   5.0616  -2.3380   C.3       1 RES1   0.0000
    43 C26      1.9740   6.0550  -1.7243   C.3       1 RES1   0.0000
@<TRIPOS>BOND
     1     1     2    1
     2     2     3    2
     3     3    24    1
     4     4    21    1
     5     5    21    1
     6     6    22    1
     7     7    22    1
     8     8    23    1
     9     9    23    1
    10    10    23    1
    11    11    18    3
    12    12    19    3
    13    13    20    3
    14    14    29    2
    15    15    29    1
    16    16    37    2
    17    17    37    1
    18    18     1    1
    19    19     1    1
    20    20     1    1
    21    21     1    1
    22    22    21    1
    23    23    22    1
    24    24    27    1
    25    25     3    1
    26    26    25    1
    27    28     3    1
    28    29    28    1
    29    30    15    1
    30    31    30    1
    31    32    31    1
    32    33    32    1
    33    34    33    1
    34    35    30    1
    35    36     1    1
    36    37    36    1
    37    38    17    1
    38    39    38    1
    39    40    39    1
    40    41    40    1
    41    42    41    1
    42    43    38    1
    43    28    36    2
    44    34    35    1
    45    42    43    1
@<TRIPOS>SUBSTRUCTURE
     1 RES1        1 GROUP             0 ****  ****    0  
@<TRIPOS>CRYSIN
   11.3670   12.9040   13.2400  110.2800  101.9400  109.6400     2     1
