@<TRIPOS>MOLECULE
CUFYEJ
    87    90     6     0     0
SMALL
USER_CHARGES
****
Generated from the CSD

@<TRIPOS>ATOM
     1 Fe1     11.9703   9.8207  11.5422   Fe        1 RES1   0.0000
     2 O1      10.4655   9.6270  12.7234   O.3       1 RES1   0.0000
     3 O2      10.5166   8.4389  13.5645   O.3       1 RES1   0.0000
     4 O3      12.5422   8.2127  12.5751   O.co2     1 RES1  -1.0000
     5 O4      11.7655   6.7162  14.0738   O.co2     1 RES1   0.0000
     6 O5      13.7395   9.8201  10.6069   O.co2     1 RES1   0.0000
     7 O6      14.9925   8.9484   8.9982   O.co2     1 RES1   0.0000
     8 O7      11.0491  11.2989  10.5748   O.co2     1 RES1   0.0000
     9 O8      10.8665  13.4997  10.2980   O.co2     1 RES1   0.0000
    10 N1      11.5702   8.5317   9.8362   N.ar      1 RES1   0.0000
    11 N2      12.6816  11.5998  12.6470   N.ar      1 RES1   0.0000
    12 C1      11.6806   7.7222  13.4024   C.2       1 RES1   0.0000
    13 C2      13.9182   9.0736   9.5930   C.2       1 RES1   0.0000
    14 C3      12.6995   8.2991   9.1358   C.ar      1 RES1   0.0000
    15 C4      12.7482   7.4083   8.0745   C.ar      1 RES1   0.0000
    16 C5      11.5852   6.7217   7.7564   C.ar      1 RES1   0.0000
    17 C6      10.4307   6.9647   8.4476   C.ar      1 RES1   0.0000
    18 C7      10.4334   7.8878   9.4982   C.ar      1 RES1   0.0000
    19 C8       9.1837   8.1950  10.2521   C.3       1 RES1   0.0000
    20 C9      11.2562  12.5137  10.9128   C.2       1 RES1   0.0000
    21 C10     12.0724  12.7116  12.1653   C.ar      1 RES1   0.0000
    22 C11     12.1987  13.9597  12.7724   C.ar      1 RES1   0.0000
    23 C12     12.9533  14.0475  13.9315   C.ar      1 RES1   0.0000
    24 C13     13.5908  12.9220  14.4117   C.ar      1 RES1   0.0000
    25 C14     13.4686  11.7016  13.7312   C.ar      1 RES1   0.0000
    26 C15     14.2214  10.4968  14.1839   C.3       1 RES1   0.0000
    27 H1      13.5496   7.2719   7.5836   H         1 RES1   0.0000
    28 H2      11.5899   6.0811   7.0545   H         1 RES1   0.0000
    29 H3       9.6301   6.5083   8.2167   H         1 RES1   0.0000
    30 H4       8.9839   9.1203  10.1711   H         1 RES1   0.0000
    31 H5       8.4666   7.6831   9.8958   H         1 RES1   0.0000
    32 H6       9.3057   7.9764  11.1682   H         1 RES1   0.0000
    33 H7      11.7797  14.7283  12.4023   H         1 RES1   0.0000
    34 H8      13.0301  14.8743  14.3903   H         1 RES1   0.0000
    35 H9      14.1132  12.9736  15.2039   H         1 RES1   0.0000
    36 H10     13.6084   9.8001  14.3919   H         1 RES1   0.0000
    37 H11     14.8031  10.2082  13.4911   H         1 RES1   0.0000
    38 H12     14.7307  10.7131  14.9561   H         1 RES1   0.0000
    39 P1      16.7484  16.0305  12.6008   P.3       2 RES2   1.0000
    40 C16     17.4402  16.0366  14.2588   C.ar      2 RES2   0.0000
    41 C17     18.6916  16.5969  14.5111   C.ar      2 RES2   0.0000
    42 C18     19.2594  16.4604  15.7682   C.ar      2 RES2   0.0000
    43 C19     18.5754  15.7929  16.7729   C.ar      2 RES2   0.0000
    44 C20     17.3244  15.2446  16.5328   C.ar      2 RES2   0.0000
    45 C21     16.7566  15.3494  15.2681   C.ar      2 RES2   0.0000
    46 C22     16.5883  14.2956  12.1423   C.ar      2 RES2   0.0000
    47 C23     17.5490  13.3910  12.5996   C.ar      2 RES2   0.0000
    48 C24     17.4619  12.0501  12.2616   C.ar      2 RES2   0.0000
    49 C25     16.4123  11.6234  11.4587   C.ar      2 RES2   0.0000
    50 C26     15.4666  12.5181  10.9954   C.ar      2 RES2   0.0000
    51 C27     15.5369  13.8588  11.3287   C.ar      2 RES2   0.0000
    52 C28     17.8327  16.8958  11.4710   C.ar      2 RES2   0.0000
    53 C29     17.9714  18.2917  11.6117   C.ar      2 RES2   0.0000
    54 C30     18.7905  18.9755  10.7583   C.ar      2 RES2   0.0000
    55 C31     19.4674  18.3010   9.7414   C.ar      2 RES2   0.0000
    56 C32     19.3332  16.9462   9.6007   C.ar      2 RES2   0.0000
    57 C33     18.5267  16.2223  10.4693   C.ar      2 RES2   0.0000
    58 C34     15.1492  16.8541  12.5262   C.ar      2 RES2   0.0000
    59 C35     14.4485  17.2197  13.6624   C.ar      2 RES2   0.0000
    60 C36     13.1994  17.8337  13.5263   C.ar      2 RES2   0.0000
    61 C37     12.6820  18.0664  12.2754   C.ar      2 RES2   0.0000
    62 C38     13.3912  17.7192  11.1345   C.ar      2 RES2   0.0000
    63 C39     14.6297  17.1200  11.2508   C.ar      2 RES2   0.0000
    64 H13     19.1505  17.0674  13.8260   H         2 RES2   0.0000
    65 H14     20.1197  16.8266  15.9425   H         2 RES2   0.0000
    66 H15     18.9677  15.7090  17.6339   H         2 RES2   0.0000
    67 H16     16.8573  14.7993  17.2302   H         2 RES2   0.0000
    68 H17     15.9096  14.9578  15.0892   H         2 RES2   0.0000
    69 H18     18.2649  13.6961  13.1440   H         2 RES2   0.0000
    70 H19     18.1122  11.4312  12.5736   H         2 RES2   0.0000
    71 H20     16.3437  10.7046  11.2263   H         2 RES2   0.0000
    72 H21     14.7591  12.2081  10.4402   H         2 RES2   0.0000
    73 H22     14.8841  14.4722  11.0122   H         2 RES2   0.0000
    74 H23     17.4991  18.7525  12.2952   H         2 RES2   0.0000
    75 H24     18.8989  19.9133  10.8577   H         2 RES2   0.0000
    76 H25     20.0232  18.7854   9.1434   H         2 RES2   0.0000
    77 H26     19.7962  16.4969   8.9033   H         2 RES2   0.0000
    78 H27     18.4486  15.2788  10.3806   H         2 RES2   0.0000
    79 H28     14.8108  17.0540  14.5249   H         2 RES2   0.0000
    80 H29     12.7092  18.0912  14.2986   H         2 RES2   0.0000
    81 H30     11.8258  18.4685  12.1897   H         2 RES2   0.0000
    82 H31     13.0261  17.8944  10.2766   H         2 RES2   0.0000
    83 H32     15.1254  16.8889  10.4739   H         2 RES2   0.0000
    84 O9       6.1285   5.0058   6.5422   O.3       3 RES3   0.0000
    85 O10      1.5039   3.4553   6.2287   O.3       4 RES4   0.0000
    86 O11      7.0950   7.4877   7.1630   O.3       5 RES5   0.0000
    87 O12      8.5264   3.9510   7.6126   O.3       6 RES6   0.0000
@<TRIPOS>BOND
     1     1     2    1
     2     2     3    1
     3     3    12    1
     4     4     1    1
     5     5    12    2
     6     6     1    1
     7     7    13    2
     8     8     1    1
     9     9    20    2
    10    10     1    1
    11    11     1    1
    12    12     4    1
    13    13     6    1
    14    14    10   ar
    15    15    14   ar
    16    16    15   ar
    17    17    16   ar
    18    18    10   ar
    19    19    18    1
    20    20     8    1
    21    21    11   ar
    22    22    21   ar
    23    23    22   ar
    24    24    23   ar
    25    25    11   ar
    26    26    25    1
    27    27    15    1
    28    28    16    1
    29    29    17    1
    30    30    19    1
    31    31    19    1
    32    32    19    1
    33    33    22    1
    34    34    23    1
    35    35    24    1
    36    36    26    1
    37    37    26    1
    38    38    26    1
    39    13    14    1
    40    17    18   ar
    41    20    21    1
    42    24    25   ar
    43    39    40    1
    44    40    41   ar
    45    41    42   ar
    46    42    43   ar
    47    43    44   ar
    48    44    45   ar
    49    45    40   ar
    50    46    39    1
    51    47    46   ar
    52    48    47   ar
    53    49    48   ar
    54    50    49   ar
    55    51    46   ar
    56    52    39    1
    57    53    52   ar
    58    54    53   ar
    59    55    54   ar
    60    56    55   ar
    61    57    52   ar
    62    58    39    1
    63    59    58   ar
    64    60    59   ar
    65    61    60   ar
    66    62    61   ar
    67    63    58   ar
    68    64    41    1
    69    65    42    1
    70    66    43    1
    71    67    44    1
    72    68    45    1
    73    69    47    1
    74    70    48    1
    75    71    49    1
    76    72    50    1
    77    73    51    1
    78    74    53    1
    79    75    54    1
    80    76    55    1
    81    77    56    1
    82    78    57    1
    83    79    59    1
    84    80    60    1
    85    81    61    1
    86    82    62    1
    87    83    63    1
    88    50    51   ar
    89    56    57   ar
    90    62    63   ar
@<TRIPOS>SUBSTRUCTURE
     1 RES1        1 GROUP             0 ****  ****    0  
     2 RES2       39 GROUP             0 ****  ****    0  
     3 RES3       84 GROUP             0 ****  ****    0  
     4 RES4       85 GROUP             0 ****  ****    0  
     5 RES5       86 GROUP             0 ****  ****    0  
     6 RES6       87 GROUP             0 ****  ****    0  
@<TRIPOS>CRYSIN
    9.4280   14.0280   16.1020   72.1000   87.5300   71.1300     2     1
