@<TRIPOS>MOLECULE
CUFYAF
    91    96     4     0     0
SMALL
USER_CHARGES
****
Generated from the CSD

@<TRIPOS>ATOM
     1 Fe1      7.1449  -0.6223  10.3286   Fe        1 RES1   0.0000
     2 O1       9.1615  -0.5560  10.2624   O.co2     1 RES1   0.0000
     3 O2       7.8751   0.8516   9.2277   O.co2     1 RES1  -1.0000
     4 O3      10.0942   1.1327   9.0722   O.co2     1 RES1   0.0000
     5 O4       7.0718  -2.0983  11.6308   O.co2     1 RES1   0.0000
     6 O5       7.0483  -2.6593  13.7952   O.co2     1 RES1   0.0000
     7 O6       5.2692  -0.1381   9.8201   O.co2     1 RES1   0.0000
     8 O7       3.7069  -0.2813   8.2174   O.co2     1 RES1   0.0000
     9 N1       6.9111   0.4700  12.1730   N.ar      1 RES1   0.0000
    10 N2       6.7202  -2.0576   8.7498   N.ar      1 RES1   0.0000
    11 C1       9.1197   0.5159   9.4965   C.2       1 RES1   0.0000
    12 C2       7.0745  -1.8287  12.9006   C.2       1 RES1   0.0000
    13 C3       7.0543  -0.3617  13.2304   C.ar      1 RES1   0.0000
    14 C4       7.1236   0.0925  14.5295   C.ar      1 RES1   0.0000
    15 H1       7.2384  -0.5141  15.2520   H         1 RES1   0.0000
    16 C5       7.0184   1.4603  14.7590   C.ar      1 RES1   0.0000
    17 H2       7.0801   1.8076  15.6406   H         1 RES1   0.0000
    18 C6       6.8257   2.3024  13.6849   C.ar      1 RES1   0.0000
    19 H3       6.7322   3.2359  13.8301   H         1 RES1   0.0000
    20 C7       6.7672   1.7963  12.3889   C.ar      1 RES1   0.0000
    21 C8       6.5216   2.6926  11.2205   C.3       1 RES1   0.0000
    22 H4       7.3423   2.7689  10.6894   H         1 RES1   0.0000
    23 H5       6.2544   3.5793  11.5392   H         1 RES1   0.0000
    24 H6       5.8070   2.3159  10.6647   H         1 RES1   0.0000
    25 C9       4.7601  -0.6347   8.7457   C.2       1 RES1   0.0000
    26 C10      5.5507  -1.7648   8.1330   C.ar      1 RES1   0.0000
    27 C11      5.0802  -2.4696   7.0446   C.ar      1 RES1   0.0000
    28 H7       4.2595  -2.2345   6.6277   H         1 RES1   0.0000
    29 C12      5.8394  -3.5318   6.5784   C.ar      1 RES1   0.0000
    30 H8       5.5510  -4.0367   5.8271   H         1 RES1   0.0000
    31 C13      7.0196  -3.8451   7.2193   C.ar      1 RES1   0.0000
    32 H9       7.5433  -4.5761   6.9123   H         1 RES1   0.0000
    33 C14      7.4512  -3.0997   8.3113   C.ar      1 RES1   0.0000
    34 C15      8.7198  -3.4426   9.0416   C.3       1 RES1   0.0000
    35 H10      9.3573  -2.7029   8.9541   H         1 RES1   0.0000
    36 H11      9.1088  -4.2561   8.6571   H         1 RES1   0.0000
    37 H12      8.5206  -3.5932   9.9901   H         1 RES1   0.0000
    38 P1       4.0005   1.8778   3.5093   P.3       2 RES2   1.0000
    39 C16      2.5707   2.4890   4.4305   C.ar      2 RES2   0.0000
    40 C17      1.9346   1.6302   5.3339   C.ar      2 RES2   0.0000
    41 H13      2.2014   0.7207   5.3960   H         2 RES2   0.0000
    42 C18      0.9148   2.1104   6.1361   C.ar      2 RES2   0.0000
    43 H14      0.4978   1.5359   6.7686   H         2 RES2   0.0000
    44 C19      0.5013   3.4233   6.0180   C.ar      2 RES2   0.0000
    45 H15     -0.2066   3.7456   6.5633   H         2 RES2   0.0000
    46 C20      1.1129   4.2725   5.1116   C.ar      2 RES2   0.0000
    47 H16      0.8172   5.1719   5.0306   H         2 RES2   0.0000
    48 C21      2.1571   3.8141   4.3198   C.ar      2 RES2   0.0000
    49 H17      2.5864   4.3996   3.7073   H         2 RES2   0.0000
    50 C22      4.3058   2.8233   2.0209   C.ar      2 RES2   0.0000
    51 C23      4.7408   4.1529   2.1194   C.ar      2 RES2   0.0000
    52 H18      4.8331   4.5674   2.9697   H         2 RES2   0.0000
    53 C24      5.0365   4.8549   0.9619   C.ar      2 RES2   0.0000
    54 H19      5.3405   5.7534   1.0182   H         2 RES2   0.0000
    55 C25      4.8894   4.2489  -0.2867   C.ar      2 RES2   0.0000
    56 H20      5.0973   4.7347  -1.0770   H         2 RES2   0.0000
    57 C26      4.4426   2.9496  -0.3761   C.ar      2 RES2   0.0000
    58 H21      4.3247   2.5492  -1.2289   H         2 RES2   0.0000
    59 C27      4.1632   2.2233   0.7750   C.ar      2 RES2   0.0000
    60 H22      3.8761   1.3196   0.7103   H         2 RES2   0.0000
    61 C28      3.6756   0.1566   3.1336   C.ar      2 RES2   0.0000
    62 C29      2.4681  -0.1881   2.5345   C.ar      2 RES2   0.0000
    63 H23      1.8443   0.4888   2.2963   H         2 RES2   0.0000
    64 C30      2.1760  -1.5199   2.2854   C.ar      2 RES2   0.0000
    65 H24      1.3518  -1.7600   1.8803   H         2 RES2   0.0000
    66 C31      3.0978  -2.5006   2.6307   C.ar      2 RES2   0.0000
    67 H25      2.8967  -3.4144   2.4701   H         2 RES2   0.0000
    68 C32      4.3072  -2.1546   3.2056   C.ar      2 RES2   0.0000
    69 H26      4.9369  -2.8307   3.4281   H         2 RES2   0.0000
    70 C33      4.6007  -0.8260   3.4577   C.ar      2 RES2   0.0000
    71 H27      5.4318  -0.5882   3.8510   H         2 RES2   0.0000
    72 C34      5.4396   1.9882   4.5869   C.ar      2 RES2   0.0000
    73 C35      6.6749   2.4220   4.1114   C.ar      2 RES2   0.0000
    74 H28      6.7771   2.6565   3.1968   H         2 RES2   0.0000
    75 C36      7.7559   2.5106   4.9778   C.ar      2 RES2   0.0000
    76 H29      8.5970   2.8130   4.6543   H         2 RES2   0.0000
    77 C37      7.6159   2.1598   6.3140   C.ar      2 RES2   0.0000
    78 H30      8.3551   2.2298   6.9068   H         2 RES2   0.0000
    79 C38      6.3920   1.7068   6.7768   C.ar      2 RES2   0.0000
    80 H31      6.2995   1.4524   7.6869   H         2 RES2   0.0000
    81 C39      5.3031   1.6203   5.9301   C.ar      2 RES2   0.0000
    82 H32      4.4674   1.3121   6.2582   H         2 RES2   0.0000
    83 N3       7.1046   0.5343   1.3220   N.1       3 RES3   0.0000
    84 C40      8.2445   0.5847   1.5341   C.1       3 RES3   0.0000
    85 C41      9.6510   0.6063   1.8831   C.3       3 RES3   0.0000
    86 H33      9.7783   1.1396   2.6960   H         3 RES3   0.0000
    87 H34     10.1639   1.0028   1.1482   H         3 RES3   0.0000
    88 H35      9.9625  -0.3085   2.0418   H         3 RES3   0.0000
    89 O8       1.8104   0.6663  10.1282   O.3       4 RES4   0.0000
    90 H36      2.3044   0.5113   9.5111   H         4 RES4   0.0000
    91 H37      1.0789   0.6756   9.7574   H         4 RES4   0.0000
@<TRIPOS>BOND
     1     1     2    1
     2     2    11    1
     3     3     1    1
     4     4    11    2
     5     5     1    1
     6     6    12    2
     7     7     1    1
     8     8    25    2
     9     9     1    1
    10    10     1    1
    11    11     3    1
    12    12     5    1
    13    13     9   ar
    14    14    13   ar
    15    15    14    1
    16    16    14   ar
    17    17    16    1
    18    18    16   ar
    19    19    18    1
    20    20     9   ar
    21    21    20    1
    22    22    21    1
    23    23    21    1
    24    24    21    1
    25    25     7    1
    26    26    10   ar
    27    27    26   ar
    28    28    27    1
    29    29    27   ar
    30    30    29    1
    31    31    29   ar
    32    32    31    1
    33    33    10   ar
    34    34    33    1
    35    35    34    1
    36    36    34    1
    37    37    34    1
    38    12    13    1
    39    18    20   ar
    40    25    26    1
    41    31    33   ar
    42    38    39    1
    43    39    40   ar
    44    40    41    1
    45    42    40   ar
    46    43    42    1
    47    44    42   ar
    48    45    44    1
    49    46    44   ar
    50    47    46    1
    51    48    39   ar
    52    49    48    1
    53    50    38    1
    54    51    50   ar
    55    52    51    1
    56    53    51   ar
    57    54    53    1
    58    55    53   ar
    59    56    55    1
    60    57    55   ar
    61    58    57    1
    62    59    50   ar
    63    60    59    1
    64    61    38    1
    65    62    61   ar
    66    63    62    1
    67    64    62   ar
    68    65    64    1
    69    66    64   ar
    70    67    66    1
    71    68    66   ar
    72    69    68    1
    73    70    61   ar
    74    71    70    1
    75    72    38    1
    76    73    72   ar
    77    74    73    1
    78    75    73   ar
    79    76    75    1
    80    77    75   ar
    81    78    77    1
    82    79    77   ar
    83    80    79    1
    84    81    72   ar
    85    82    81    1
    86    46    48   ar
    87    57    59   ar
    88    68    70   ar
    89    79    81   ar
    90    83    84    3
    91    84    85    1
    92    85    86    1
    93    87    85    1
    94    88    85    1
    95    89    90    1
    96    91    89    1
@<TRIPOS>SUBSTRUCTURE
     1 RES1        1 GROUP             0 ****  ****    0  
     2 RES2       38 GROUP             0 ****  ****    0  
     3 RES3       83 GROUP             0 ****  ****    0  
     4 RES4       89 GROUP             0 ****  ****    0  
@<TRIPOS>CRYSIN
   10.7620   12.7200   15.2800  106.1840  107.9850   97.2430     2     1
