@<TRIPOS>MOLECULE
CUHMIE
   134   143     2     0     0
SMALL
NO_CHARGES
****
Generated from the CSD

@<TRIPOS>ATOM
     1 Fe1      1.6138   9.2758   6.7352   Fe        1 RES1   0.0000
     2 S1       2.2053   7.3084   5.7310   S.3       1 RES1   0.0000
     3 S2       2.7858   9.1989   8.6559   S.3       1 RES1   0.0000
     4 S3       0.4272   9.7457   4.8433   S.3       1 RES1   0.0000
     5 S4       0.0589   8.0474   7.9118   S.3       1 RES1   0.0000
     6 P1       3.4548   9.9997   5.7972   P.3       1 RES1   0.0000
     7 P2       0.5830  11.0576   7.5768   P.3       1 RES1   0.0000
     8 Si1      2.1800   5.3755   2.9340   Si        1 RES1   0.0000
     9 Si2      5.0719   9.1701  11.0976   Si        1 RES1   0.0000
    10 Si3     -2.2002  10.1583   2.7878   Si        1 RES1   0.0000
    11 Si4     -1.1003   6.7190  10.8099   Si        1 RES1   0.0000
    12 C1       3.7630   9.0177   4.3056   C.ar      1 RES1   0.0000
    13 C2       4.5771   9.4064   3.2539   C.ar      1 RES1   0.0000
    14 H1       5.0079  10.2526   3.2726   H         1 RES1   0.0000
    15 C3       4.7596   8.5553   2.1727   C.ar      1 RES1   0.0000
    16 H2       5.3489   8.7952   1.4674   H         1 RES1   0.0000
    17 C4       4.0705   7.3486   2.1327   C.ar      1 RES1   0.0000
    18 H3       4.1735   6.7908   1.3706   H         1 RES1   0.0000
    19 C5       3.2298   6.9203   3.1699   C.ar      1 RES1   0.0000
    20 C6       3.1192   7.7696   4.2859   C.ar      1 RES1   0.0000
    21 C7       2.5372   4.0734   4.2124   C.3       1 RES1   0.0000
    22 H4       1.9568   3.2982   4.0604   H         1 RES1   0.0000
    23 H5       2.3679   4.4376   5.1062   H         1 RES1   0.0000
    24 H6       3.4750   3.7971   4.1444   H         1 RES1   0.0000
    25 C8       0.3844   5.8604   2.9589   C.3       1 RES1   0.0000
    26 H7      -0.1688   5.0771   2.7604   H         1 RES1   0.0000
    27 H8       0.2240   6.5535   2.2841   H         1 RES1   0.0000
    28 H9       0.1524   6.2089   3.8452   H         1 RES1   0.0000
    29 C9       2.5634   4.6649   1.2487   C.3       1 RES1   0.0000
    30 H10      3.5234   4.4785   1.1833   H         1 RES1   0.0000
    31 H11      2.3079   5.3095   0.5563   H         1 RES1   0.0000
    32 H12      2.0601   3.8333   1.1225   H         1 RES1   0.0000
    33 C10      4.8359   9.6600   6.9273   C.ar      1 RES1   0.0000
    34 C11      6.1732   9.7757   6.5610   C.ar      1 RES1   0.0000
    35 H13      6.4086   9.9608   5.6594   H         1 RES1   0.0000
    36 C12      7.1570   9.6211   7.5222   C.ar      1 RES1   0.0000
    37 H14      8.0736   9.6768   7.2772   H         1 RES1   0.0000
    38 C13      6.8057   9.3831   8.8439   C.ar      1 RES1   0.0000
    39 H15      7.4949   9.2896   9.4907   H         1 RES1   0.0000
    40 C14      5.4738   9.2760   9.2597   C.ar      1 RES1   0.0000
    41 C15      4.4807   9.3840   8.2449   C.ar      1 RES1   0.0000
    42 C16      4.1443   7.6493  11.5861   C.3       1 RES1   0.0000
    43 H16      4.6849   6.8568  11.3835   H         1 RES1   0.0000
    44 H17      3.3016   7.6051  11.0872   H         1 RES1   0.0000
    45 H18      3.9534   7.6765  12.5471   H         1 RES1   0.0000
    46 C17      4.0966  10.6692  11.6263   C.3       1 RES1   0.0000
    47 H19      3.1412  10.5039  11.4870   H         1 RES1   0.0000
    48 H20      4.3749  11.4445  11.0941   H         1 RES1   0.0000
    49 H21      4.2625  10.8492  12.5754   H         1 RES1   0.0000
    50 C18      6.6750   9.1841  12.0270   C.3       1 RES1   0.0000
    51 H22      6.4963   9.1151  12.9882   H         1 RES1   0.0000
    52 H23      7.1525  10.0198  11.8428   H         1 RES1   0.0000
    53 H24      7.2248   8.4243  11.7419   H         1 RES1   0.0000
    54 C19      3.7264  11.7349   5.3177   C.ar      1 RES1   0.0000
    55 C20      3.0753  12.2467   4.2305   C.ar      1 RES1   0.0000
    56 H25      2.4930  11.6946   3.7226   H         1 RES1   0.0000
    57 C21      3.2680  13.6039   3.8593   C.ar      1 RES1   0.0000
    58 H26      2.8280  13.9654   3.0991   H         1 RES1   0.0000
    59 C22      4.0995  14.3749   4.6190   C.ar      1 RES1   0.0000
    60 H27      4.2266  15.2853   4.3764   H         1 RES1   0.0000
    61 C23      4.7557  13.8881   5.7170   C.ar      1 RES1   0.0000
    62 H28      5.3282  14.4522   6.2241   H         1 RES1   0.0000
    63 C24      4.5749  12.5611   6.0798   C.ar      1 RES1   0.0000
    64 H29      5.0221  12.2105   6.8411   H         1 RES1   0.0000
    65 C25     -0.7797  11.5519   6.5010   C.ar      1 RES1   0.0000
    66 C26     -1.7612  12.4798   6.8633   C.ar      1 RES1   0.0000
    67 H30     -1.7056  12.9304   7.6979   H         1 RES1   0.0000
    68 C27     -2.8110  12.7393   6.0069   C.ar      1 RES1   0.0000
    69 H31     -3.4764  13.3760   6.2405   H         1 RES1   0.0000
    70 C28     -2.8831  12.0573   4.7971   C.ar      1 RES1   0.0000
    71 H32     -3.6174  12.2372   4.2218   H         1 RES1   0.0000
    72 C29     -1.9348  11.1247   4.3851   C.ar      1 RES1   0.0000
    73 C30     -0.8407  10.8819   5.2677   C.ar      1 RES1   0.0000
    74 C31     -2.5702   8.3865   3.2344   C.3       1 RES1   0.0000
    75 H33     -2.7566   7.8764   2.4190   H         1 RES1   0.0000
    76 H34     -3.3522   8.3555   3.8249   H         1 RES1   0.0000
    77 H35     -1.7979   7.9976   3.6945   H         1 RES1   0.0000
    78 C32     -3.7056  10.8433   1.9203   C.3       1 RES1   0.0000
    79 H36     -3.5309  11.7677   1.6437   H         1 RES1   0.0000
    80 H37     -4.4717  10.8252   2.5313   H         1 RES1   0.0000
    81 H38     -3.9043  10.2985   1.1306   H         1 RES1   0.0000
    82 C33     -0.7669  10.3157   1.6161   C.3       1 RES1   0.0000
    83 H39      0.0012   9.8212   1.9706   H         1 RES1   0.0000
    84 H40     -0.5279  11.2620   1.5176   H         1 RES1   0.0000
    85 H41     -1.0167   9.9500   0.7424   H         1 RES1   0.0000
    86 C34     -0.2366  10.5065   9.1038   C.ar      1 RES1   0.0000
    87 C35     -0.6326  11.3736  10.1207   C.ar      1 RES1   0.0000
    88 H42     -0.5020  12.3100  10.0281   H         1 RES1   0.0000
    89 C36     -1.2198  10.8583  11.2732   C.ar      1 RES1   0.0000
    90 H43     -1.5036  11.4445  11.9648   H         1 RES1   0.0000
    91 C37     -1.3903   9.4957  11.4102   C.ar      1 RES1   0.0000
    92 H44     -1.7691   9.1634  12.2159   H         1 RES1   0.0000
    93 C38     -1.0287   8.5807  10.4100   C.ar      1 RES1   0.0000
    94 C39     -0.4763   9.1330   9.2435   C.ar      1 RES1   0.0000
    95 C40      0.6426   6.1074  11.0195   C.3       1 RES1   0.0000
    96 H45      1.1351   6.2283  10.1808   H         1 RES1   0.0000
    97 H46      0.6293   5.1559  11.2556   H         1 RES1   0.0000
    98 H47      1.0838   6.6141  11.7330   H         1 RES1   0.0000
    99 C41     -1.9947   6.5000  12.4271   C.3       1 RES1   0.0000
   100 H48     -2.8942   6.8823  12.3575   H         1 RES1   0.0000
   101 H49     -1.4995   6.9566  13.1388   H         1 RES1   0.0000
   102 H50     -2.0612   5.5447  12.6367   H         1 RES1   0.0000
   103 C42     -2.0260   5.7112   9.5596   C.3       1 RES1   0.0000
   104 H51     -2.2034   4.8196   9.9252   H         1 RES1   0.0000
   105 H52     -1.4888   5.6290   8.7440   H         1 RES1   0.0000
   106 H53     -2.8751   6.1527   9.3482   H         1 RES1   0.0000
   107 C43      1.4325  12.5990   8.0153   C.ar      1 RES1   0.0000
   108 C44      1.3899  13.6936   7.1640   C.ar      1 RES1   0.0000
   109 H54      0.8779  13.6522   6.3644   H         1 RES1   0.0000
   110 C45      2.0929  14.8515   7.4782   C.ar      1 RES1   0.0000
   111 H55      2.0541  15.5995   6.8940   H         1 RES1   0.0000
   112 C46      2.8457  14.9225   8.6296   C.ar      1 RES1   0.0000
   113 H56      3.3178  15.7191   8.8413   H         1 RES1   0.0000
   114 C47      2.9117  13.8348   9.4739   C.ar      1 RES1   0.0000
   115 H57      3.4378  13.8795  10.2637   H         1 RES1   0.0000
   116 C48      2.2100  12.6750   9.1719   C.ar      1 RES1   0.0000
   117 H58      2.2597  11.9281   9.7568   H         1 RES1   0.0000
   118 C49     -1.4302   7.8394   6.9414   C.3       1 RES1   0.0000
   119 H59     -2.1646   7.5585   7.5264   H         1 RES1   0.0000
   120 H60     -1.2797   7.1551   6.2555   H         1 RES1   0.0000
   121 H61     -1.6610   8.6882   6.5109   H         1 RES1   0.0000
   122 O1       3.5660  13.7229  -0.2702   O.3       2 RES2   0.0000
   123 C50      4.7408  12.9448   0.1621   C.3       2 RES2   0.0000
   124 H62      5.5381  13.1499  -0.3878   H         2 RES2   0.0000
   125 H63      4.9501  13.0964   1.1175   H         2 RES2   0.0000
   126 C51      4.2508  11.5859  -0.0783   C.3       2 RES2   0.0000
   127 H64      4.4243  11.3105  -1.0128   H         2 RES2   0.0000
   128 H65      4.6909  10.9421   0.5317   H         2 RES2   0.0000
   129 C52      2.8199  11.6463   0.1837   C.3       2 RES2   0.0000
   130 H66      2.6290  11.3923   1.1209   H         2 RES2   0.0000
   131 H67      2.3324  11.0294  -0.4176   H         2 RES2   0.0000
   132 C53      2.3883  13.1101  -0.0783   C.3       2 RES2   0.0000
   133 H68      1.8131  13.1770  -0.8812   H         2 RES2   0.0000
   134 H69      1.9073  13.4878   0.6998   H         2 RES2   0.0000
@<TRIPOS>BOND
     1     1     2    1
     2     2    20    1
     3     3     1    1
     4     4     1    1
     5     5     1    1
     6     6     1    1
     7     7     1    1
     8     8    19    1
     9     9    40    1
    10    10    72    1
    11    11    93    1
    12    12     6    1
    13    13    12   ar
    14    14    13    1
    15    15    13   ar
    16    16    15    1
    17    17    15   ar
    18    18    17    1
    19    19    17   ar
    20    20    12   ar
    21    21     8    1
    22    22    21    1
    23    23    21    1
    24    24    21    1
    25    25     8    1
    26    26    25    1
    27    27    25    1
    28    28    25    1
    29    29     8    1
    30    30    29    1
    31    31    29    1
    32    32    29    1
    33    33     6    1
    34    34    33   ar
    35    35    34    1
    36    36    34   ar
    37    37    36    1
    38    38    36   ar
    39    39    38    1
    40    40    38   ar
    41    41     3    1
    42    42     9    1
    43    43    42    1
    44    44    42    1
    45    45    42    1
    46    46     9    1
    47    47    46    1
    48    48    46    1
    49    49    46    1
    50    50     9    1
    51    51    50    1
    52    52    50    1
    53    53    50    1
    54    54     6    1
    55    55    54   ar
    56    56    55    1
    57    57    55   ar
    58    58    57    1
    59    59    57   ar
    60    60    59    1
    61    61    59   ar
    62    62    61    1
    63    63    54   ar
    64    64    63    1
    65    65     7    1
    66    66    65   ar
    67    67    66    1
    68    68    66   ar
    69    69    68    1
    70    70    68   ar
    71    71    70    1
    72    72    70   ar
    73    73     4    1
    74    74    10    1
    75    75    74    1
    76    76    74    1
    77    77    74    1
    78    78    10    1
    79    79    78    1
    80    80    78    1
    81    81    78    1
    82    82    10    1
    83    83    82    1
    84    84    82    1
    85    85    82    1
    86    86     7    1
    87    87    86   ar
    88    88    87    1
    89    89    87   ar
    90    90    89    1
    91    91    89   ar
    92    92    91    1
    93    93    91   ar
    94    94     5    1
    95    95    11    1
    96    96    95    1
    97    97    95    1
    98    98    95    1
    99    99    11    1
   100   100    99    1
   101   101    99    1
   102   102    99    1
   103   103    11    1
   104   104   103    1
   105   105   103    1
   106   106   103    1
   107   107     7    1
   108   108   107   ar
   109   109   108    1
   110   110   108   ar
   111   111   110    1
   112   112   110   ar
   113   113   112    1
   114   114   112   ar
   115   115   114    1
   116   116   107   ar
   117   117   116    1
   118   118     5    1
   119   119   118    1
   120   120   118    1
   121   121   118    1
   122    19    20   ar
   123    33    41   ar
   124    40    41   ar
   125    61    63   ar
   126    65    73   ar
   127    72    73   ar
   128    86    94   ar
   129    93    94   ar
   130   114   116   ar
   131   122   123    1
   132   123   124    1
   133   125   123    1
   134   126   123    1
   135   127   126    1
   136   128   126    1
   137   129   126    1
   138   130   129    1
   139   131   129    1
   140   132   122    1
   141   133   132    1
   142   134   132    1
   143   129   132    1
@<TRIPOS>SUBSTRUCTURE
     1 RES1        1 GROUP             0 ****  ****    0  
     2 RES2      122 GROUP             0 ****  ****    0  
@<TRIPOS>CRYSIN
   11.6404   17.7643   27.4234   90.0000   99.8809   90.0000    14     1
