@<TRIPOS>MOLECULE
CUJHOE
   135   138     3     0     0
SMALL
NO_CHARGES
****
Generated from the CSD

@<TRIPOS>ATOM
     1 Fe1      0.2112   3.2074   2.3216   Fe        1 RES1   0.0000
     2 N1      -4.4186  -1.0573   5.1011   N.am      1 RES1   0.0000
     3 C1      -3.5205  -0.6120   4.0423   C.3       1 RES1   0.0000
     4 C2      -2.1396  -1.2177   4.3264   C.2       1 RES1   0.0000
     5 O1      -2.0010  -2.1261   5.1321   O.2       1 RES1   0.0000
     6 C3      -3.5302   0.9072   3.8822   C.3       1 RES1   0.0000
     7 C4      -3.0836   1.6218   5.1493   C.3       1 RES1   0.0000
     8 C5      -2.9623   3.1308   4.9840   C.3       1 RES1   0.0000
     9 N2      -2.0774   3.4772   3.8839   N.3       1 RES1   0.0000
    10 O2      -0.7653   3.1025   4.0561   O.3       1 RES1   0.0000
    11 C6      -2.4049   4.0405   2.7322   C.2       1 RES1   0.0000
    12 O3      -1.4761   4.2111   1.8507   O.3       1 RES1   0.0000
    13 C7      -3.7885   4.4511   2.4825   C.2       1 RES1   0.0000
    14 C8      -4.4699   4.2278   1.3669   C.2       1 RES1   0.0000
    15 C9      -3.9529   3.4310   0.2152   C.3       1 RES1   0.0000
    16 C10     -5.8835   4.7372   1.2430   C.3       1 RES1   0.0000
    17 C11     -6.0432   5.8022   0.1963   C.3       1 RES1   0.0000
    18 O4      -5.2737   6.9493   0.5182   O.3       1 RES1   0.0000
    19 N3      -1.0961  -0.7275   3.6291   N.am      1 RES1   0.0000
    20 C12      0.2324  -1.3075   3.8478   C.3       1 RES1   0.0000
    21 C13      0.8121  -0.9020   5.2078   C.2       1 RES1   0.0000
    22 O5       1.4779  -1.6886   5.8552   O.2       1 RES1   0.0000
    23 C14      1.2531  -0.8841   2.7735   C.3       1 RES1   0.0000
    24 C15      0.9717  -1.3139   1.3360   C.3       1 RES1   0.0000
    25 C16     -0.1256  -0.5453   0.5802   C.3       1 RES1   0.0000
    26 N4       0.0017   0.8956   0.7145   N.3       1 RES1   0.0000
    27 O6      -0.5070   1.3960   1.8972   O.3       1 RES1   0.0000
    28 C17      0.6937   1.7643  -0.0207   C.2       1 RES1   0.0000
    29 O7       0.7896   2.9614   0.3994   O.3       1 RES1   0.0000
    30 C18      1.2638   1.3370  -1.3170   C.2       1 RES1   0.0000
    31 C19      2.2984   1.9413  -1.9041   C.2       1 RES1   0.0000
    32 C20      3.0883   3.0512  -1.2981   C.3       1 RES1   0.0000
    33 C21      2.8393   1.4525  -3.2366   C.3       1 RES1   0.0000
    34 C22      1.9141   0.7019  -4.1559   C.3       1 RES1   0.0000
    35 O8       0.8552   1.4768  -4.6810   O.3       1 RES1   0.0000
    36 N5       0.5964   0.3785   5.6072   N.am      1 RES1   0.0000
    37 C23      1.3038   0.9918   6.7297   C.3       1 RES1   0.0000
    38 C24      0.3919   1.3075   7.9125   C.2       1 RES1   0.0000
    39 O9       0.8019   2.0132   8.8404   O.2       1 RES1   0.0000
    40 C25      2.0464   2.2480   6.2666   C.3       1 RES1   0.0000
    41 C26      3.2561   1.9234   5.3869   C.3       1 RES1   0.0000
    42 C27      3.7159   3.1179   4.5536   C.3       1 RES1   0.0000
    43 N6       2.6312   3.5632   3.6704   N.3       1 RES1   0.0000
    44 O10      1.8899   2.5431   3.1316   O.3       1 RES1   0.0000
    45 C28      2.2951   4.7924   3.3279   C.2       1 RES1   0.0000
    46 O11      1.2635   4.9361   2.5686   O.3       1 RES1   0.0000
    47 C29      3.1321   5.9202   3.7462   C.2       1 RES1   0.0000
    48 C30      3.0635   7.1892   3.3244   C.2       1 RES1   0.0000
    49 C31      2.0427   7.7358   2.3586   C.3       1 RES1   0.0000
    50 C32      4.0711   8.2208   3.7841   C.3       1 RES1   0.0000
    51 C33      4.9864   7.8654   4.9307   C.3       1 RES1   0.0000
    52 O12      4.2026   7.7153   6.1306   O.3       1 RES1   0.0000
    53 N7      -0.8314   0.7865   7.8884   N.am      1 RES1   0.0000
    54 C34     -1.7992   1.0111   8.9489   C.3       1 RES1   0.0000
    55 C35     -2.8827  -0.0488   8.7698   C.2       1 RES1   0.0000
    56 O13     -2.8761  -0.8212   7.8092   O.2       1 RES1   0.0000
    57 C36     -2.3943   2.4328   8.7974   C.3       1 RES1   0.0000
    58 O14     -3.2047   2.7381   9.9112   O.3       1 RES1   0.0000
    59 N8      -3.8392  -0.0372   9.6874   N.am      1 RES1   0.0000
    60 C37     -5.0865  -0.7942   9.4946   C.3       1 RES1   0.0000
    61 C38     -5.6176  -0.5723   8.0795   C.2       1 RES1   0.0000
    62 O15     -5.7489   0.5748   7.6336   O.2       1 RES1   0.0000
    63 C39     -6.0835  -0.2566  10.5190   C.3       1 RES1   0.0000
    64 O16     -7.3559  -0.8507  10.2711   O.3       1 RES1   0.0000
    65 N9      -5.9324  -1.6655   7.3822   N.am      1 RES1   0.0000
    66 C40     -6.6002  -1.5564   6.0910   C.3       1 RES1   0.0000
    67 C41     -5.7457  -1.1548   4.8979   C.2       1 RES1   0.0000
    68 O17     -6.2633  -0.9752   3.8082   O.2       1 RES1   0.0000
    69 H1      -4.0554  -1.2703   5.7846   H         1 RES1   0.0000
    70 H2      -3.8462  -1.0136   3.2710   H         1 RES1   0.0000
    71 H3      -4.4051   1.2189   3.5981   H         1 RES1   0.0000
    72 H4      -2.9866   1.2189   3.1505   H         1 RES1   0.0000
    73 H5      -2.2983   1.3088   5.4058   H         1 RES1   0.0000
    74 H6      -3.6911   1.4499   5.9223   H         1 RES1   0.0000
    75 H7      -3.8120   3.4644   4.7344   H         1 RES1   0.0000
    76 H8      -2.6157   3.5670   5.8707   H         1 RES1   0.0000
    77 H9      -4.1895   4.9528   3.2194   H         1 RES1   0.0000
    78 H10     -3.0493   3.0666   0.4476   H         1 RES1   0.0000
    79 H11     -4.0570   4.0161  -0.6026   H         1 RES1   0.0000
    80 H12     -4.4675   2.5534   0.1205   H         1 RES1   0.0000
    81 H13     -6.0581   5.1067   1.9282   H         1 RES1   0.0000
    82 H14     -6.5502   3.9776   0.9124   H         1 RES1   0.0000
    83 H15     -5.7823   5.4532  -0.7059   H         1 RES1   0.0000
    84 H16     -6.9026   6.0691   0.1205   H         1 RES1   0.0000
    85 H17     -1.0812  -0.0257   3.1677   H         1 RES1   0.0000
    86 H18      0.1614  -2.2711   3.8908   H         1 RES1   0.0000
    87 H19      1.3207   0.0770   2.8406   H         1 RES1   0.0000
    88 H20      2.0825  -1.3601   2.9956   H         1 RES1   0.0000
    89 H21      1.8179  -1.1933   0.9469   H         1 RES1   0.0000
    90 H22      0.7074  -2.3994   1.4117   H         1 RES1   0.0000
    91 H23     -1.0258  -0.8468   0.9297   H         1 RES1   0.0000
    92 H24     -0.1672  -0.8725  -0.3271   H         1 RES1   0.0000
    93 H25      0.8091   0.5774  -1.6872   H         1 RES1   0.0000
    94 H26      4.0682   3.0025  -1.5150   H         1 RES1   0.0000
    95 H27      3.0115   3.1949  -0.3099   H         1 RES1   0.0000
    96 H28      2.8115   3.8621  -1.7388   H         1 RES1   0.0000
    97 H29      3.7289   0.8982  -3.0472   H         1 RES1   0.0000
    98 H30      2.9431   2.3224  -3.6842   H         1 RES1   0.0000
    99 H31      2.4015   0.3849  -5.1304   H         1 RES1   0.0000
   100 H32      1.4381  -0.0770  -3.7359   H         1 RES1   0.0000
   101 H33      1.1685   2.4507  -4.9926   H         1 RES1   0.0000
   102 H34      0.2235   0.8340   5.1304   H         1 RES1   0.0000
   103 H35      1.8551   0.3721   7.0413   H         1 RES1   0.0000
   104 H36      1.4274   2.8228   5.7501   H         1 RES1   0.0000
   105 H37      2.3036   2.7587   7.0758   H         1 RES1   0.0000
   106 H38      2.9957   1.2831   4.8377   H         1 RES1   0.0000
   107 H39      3.9428   1.7450   5.9051   H         1 RES1   0.0000
   108 H40      3.9379   3.8365   5.0271   H         1 RES1   0.0000
   109 H41      4.5516   2.8228   4.0113   H         1 RES1   0.0000
   110 H42      3.7999   5.7740   4.3901   H         1 RES1   0.0000
   111 H43      1.2455   8.1349   2.7890   H         1 RES1   0.0000
   112 H44      1.6943   6.9929   1.6011   H         1 RES1   0.0000
   113 H45      2.1776   8.6096   1.9971   H         1 RES1   0.0000
   114 H46      3.6288   9.0459   3.8736   H         1 RES1   0.0000
   115 H47      4.5510   8.5454   2.9956   H         1 RES1   0.0000
   116 H48      5.5201   7.0057   4.8377   H         1 RES1   0.0000
   117 H49      5.5911   8.5454   5.0271   H         1 RES1   0.0000
   118 H50      4.7618   7.8526   6.8692   H         1 RES1   0.0000
   119 H51     -0.9271   0.1796   7.2479   H         1 RES1   0.0000
   120 H52     -1.3597   0.9110   9.7615   H         1 RES1   0.0000
   121 H53     -1.5919   3.0666   8.6941   H         1 RES1   0.0000
   122 H54     -2.9144   2.6304   7.9366   H         1 RES1   0.0000
   123 H55     -2.9535   3.7082  10.2779   H         1 RES1   0.0000
   124 H56     -3.8647   0.7442  10.2607   H         1 RES1   0.0000
   125 H57     -4.9393  -1.8092   9.6582   H         1 RES1   0.0000
   126 H58     -6.1476   0.7699  10.3985   H         1 RES1   0.0000
   127 H59     -5.7814  -0.5389  11.4658   H         1 RES1   0.0000
   128 H60     -8.0233  -0.1283  10.6395   H         1 RES1   0.0000
   129 H61     -5.8208  -2.4636   7.7816   H         1 RES1   0.0000
   130 H62     -6.9703  -2.3609   5.9051   H         1 RES1   0.0000
   131 H63     -7.2663  -0.9367   6.1289   H         1 RES1   0.0000
   132 O18     -7.1102   1.0111   1.9196   O.3       2 RES2   0.0000
   133 C42     -5.4670   4.4998   7.4735   C.1       3 RES3   0.0000
   134 N10     -4.9368   5.1375   6.6970   N.1       3 RES3   0.0000
   135 C43     -6.1694   3.6876   8.4376   C.3       3 RES3   0.0000
@<TRIPOS>BOND
     1     1    10    1
     2     2     3    1
     3     3     4    1
     4     4     5    2
     5     6     3    1
     6     7     6    1
     7     8     7    1
     8     9     8    1
     9    10     9    1
    10    11     9    1
    11    12     1    1
    12    13    11    1
    13    14    13    2
    14    15    14    1
    15    16    14    1
    16    17    16    1
    17    18    17    1
    18    19     4   am
    19    20    19    1
    20    21    20    1
    21    22    21    2
    22    23    20    1
    23    24    23    1
    24    25    24    1
    25    26    25    1
    26    27     1    1
    27    28    26    1
    28    29     1    1
    29    30    28    1
    30    31    30    2
    31    32    31    1
    32    33    31    1
    33    34    33    1
    34    35    34    1
    35    36    21   am
    36    37    36    1
    37    38    37    1
    38    39    38    2
    39    40    37    1
    40    41    40    1
    41    42    41    1
    42    43    42    1
    43    44     1    1
    44    45    43    1
    45    46     1    1
    46    47    45    1
    47    48    47    2
    48    49    48    1
    49    50    48    1
    50    51    50    1
    51    52    51    1
    52    53    38   am
    53    54    53    1
    54    55    54    1
    55    56    55    2
    56    57    54    1
    57    58    57    1
    58    59    55   am
    59    60    59    1
    60    61    60    1
    61    62    61    2
    62    63    60    1
    63    64    63    1
    64    65    61   am
    65    66    65    1
    66    67     2   am
    67    68    67    2
    68    69     2    1
    69    70     3    1
    70    71     6    1
    71    72     6    1
    72    73     7    1
    73    74     7    1
    74    75     8    1
    75    76     8    1
    76    77    13    1
    77    78    15    1
    78    79    15    1
    79    80    15    1
    80    81    16    1
    81    82    16    1
    82    83    17    1
    83    84    17    1
    84    85    19    1
    85    86    20    1
    86    87    23    1
    87    88    23    1
    88    89    24    1
    89    90    24    1
    90    91    25    1
    91    92    25    1
    92    93    30    1
    93    94    32    1
    94    95    32    1
    95    96    32    1
    96    97    33    1
    97    98    33    1
    98    99    34    1
    99   100    34    1
   100   101    35    1
   101   102    36    1
   102   103    37    1
   103   104    40    1
   104   105    40    1
   105   106    41    1
   106   107    41    1
   107   108    42    1
   108   109    42    1
   109   110    47    1
   110   111    49    1
   111   112    49    1
   112   113    49    1
   113   114    50    1
   114   115    50    1
   115   116    51    1
   116   117    51    1
   117   118    52    1
   118   119    53    1
   119   120    54    1
   120   121    57    1
   121   122    57    1
   122   123    58    1
   123   124    59    1
   124   125    60    1
   125   126    63    1
   126   127    63    1
   127   128    64    1
   128   129    65    1
   129   130    66    1
   130   131    66    1
   131    11    12    1
   132    26    27    1
   133    28    29    1
   134    43    44    1
   135    45    46    1
   136    66    67    1
   137   133   134    3
   138   135   133    1
@<TRIPOS>SUBSTRUCTURE
     1 RES1        1 GROUP             0 ****  ****    0  
     2 RES2      132 GROUP             0 ****  ****    0  
     3 RES3      133 GROUP             0 ****  ****    0  
@<TRIPOS>CRYSIN
   11.1700   12.8310   17.8520   90.0000  105.3400   90.0000     4     1
