@<TRIPOS>MOLECULE
CUQFUP
   152   169     1     0     0
SMALL
NO_CHARGES
****
Generated from the CSD

@<TRIPOS>ATOM
     1 Fe1      8.1670   5.5727  10.7713   Fe        1 RES1   0.0000
     2 Na1      7.1141   6.6866  13.5962   Na        1 RES1   0.0000
     3 Na2      9.6301   7.6703   8.8456   Na        1 RES1   0.0000
     4 Na3      7.4826   2.6275   9.5124   Na        1 RES1   0.0000
     5 O1       7.9877   6.1722   8.8528   O.3       1 RES1   0.0000
     6 O2       9.2606   4.0226  10.0566   O.3       1 RES1   0.0000
     7 O3       8.2968   5.0386  12.6814   O.3       1 RES1   0.0000
     8 O4       6.6059   4.3429  10.6497   O.3       1 RES1   0.0000
     9 O5       7.0682   7.1662  11.4192   O.3       1 RES1   0.0000
    10 O6       9.7814   6.7654  10.9021   O.3       1 RES1   0.0000
    11 C1       8.7052   4.4974   7.3314   C.ar      1 RES1   0.0000
    12 C2       7.7220   5.3102   7.8743   C.ar      1 RES1   0.0000
    13 C3       6.4021   5.2273   7.3626   C.ar      1 RES1   0.0000
    14 H1       5.7429   5.7747   7.7250   H         1 RES1   0.0000
    15 C4       6.0777   4.3813   6.3746   C.ar      1 RES1   0.0000
    16 H2       5.2049   4.3751   6.0516   H         1 RES1   0.0000
    17 C5       7.0215   3.5104   5.8155   C.ar      1 RES1   0.0000
    18 C6       8.3612   3.5664   6.3000   C.ar      1 RES1   0.0000
    19 C7       9.2816   2.6748   5.7205   C.ar      1 RES1   0.0000
    20 H3      10.1544   2.6520   6.0407   H         1 RES1   0.0000
    21 C8       8.9273   1.8350   4.6972   C.ar      1 RES1   0.0000
    22 H4       9.5710   1.2856   4.3131   H         1 RES1   0.0000
    23 C9       7.6191   1.7936   4.2208   C.ar      1 RES1   0.0000
    24 H5       7.3842   1.2151   3.5300   H         1 RES1   0.0000
    25 C10      6.6956   2.6064   4.7840   C.ar      1 RES1   0.0000
    26 H6       5.8180   2.5691   4.4800   H         1 RES1   0.0000
    27 C11     10.0941   4.5762   7.9069   C.ar      1 RES1   0.0000
    28 C12     10.2830   4.3046   9.2342   C.ar      1 RES1   0.0000
    29 C13     11.5951   4.3253   9.7987   C.ar      1 RES1   0.0000
    30 H7      11.7208   4.1263  10.6985   H         1 RES1   0.0000
    31 C14     12.6553   4.6322   9.0170   C.ar      1 RES1   0.0000
    32 H8      13.5079   4.5990   9.3862   H         1 RES1   0.0000
    33 C15     12.5166   4.9971   7.6721   C.ar      1 RES1   0.0000
    34 C16     11.2092   4.9764   7.0953   C.ar      1 RES1   0.0000
    35 C17     11.0873   5.3932   5.7585   C.ar      1 RES1   0.0000
    36 H9      10.2454   5.4098   5.3635   H         1 RES1   0.0000
    37 C18     12.1760   5.7747   5.0256   C.ar      1 RES1   0.0000
    38 H10     12.0683   6.0318   4.1380   H         1 RES1   0.0000
    39 C19     13.4573   5.7809   5.6037   C.ar      1 RES1   0.0000
    40 H11     14.1950   6.0463   5.1043   H         1 RES1   0.0000
    41 C20     13.6077   5.4035   6.8727   C.ar      1 RES1   0.0000
    42 H12     14.4602   5.4056   7.2446   H         1 RES1   0.0000
    43 C21      6.9911   3.0978  13.1537   C.ar      1 RES1   0.0000
    44 C22      8.2070   3.7510  13.0573   C.ar      1 RES1   0.0000
    45 C23      9.4111   3.0626  13.4088   C.ar      1 RES1   0.0000
    46 H13     10.2237   3.5042  13.3192   H         1 RES1   0.0000
    47 C24      9.4071   1.8122  13.8580   C.ar      1 RES1   0.0000
    48 H14     10.2076   1.4121  14.1091   H         1 RES1   0.0000
    49 C25      8.1956   1.0824  13.9585   C.ar      1 RES1   0.0000
    50 C26      6.9899   1.7272  13.5771   C.ar      1 RES1   0.0000
    51 C27      5.8098   0.9351  13.6327   C.ar      1 RES1   0.0000
    52 H15      5.0055   1.3042  13.3464   H         1 RES1   0.0000
    53 C28      5.8227  -0.3359  14.0887   C.ar      1 RES1   0.0000
    54 H16      5.0294  -0.8211  14.1172   H         1 RES1   0.0000
    55 C29      6.9903  -0.9248  14.5122   C.ar      1 RES1   0.0000
    56 H17      6.9767  -1.7832  14.8678   H         1 RES1   0.0000
    57 C30      8.1463  -0.2571  14.4104   C.ar      1 RES1   0.0000
    58 H18      8.9380  -0.6843  14.6452   H         1 RES1   0.0000
    59 C31      5.7437   3.8380  12.8184   C.ar      1 RES1   0.0000
    60 C32      5.6383   4.4414  11.5685   C.ar      1 RES1   0.0000
    61 C33      4.4670   5.1672  11.2238   C.ar      1 RES1   0.0000
    62 H19      4.4159   5.5860  10.3945   H         1 RES1   0.0000
    63 C34      3.4189   5.2584  12.0829   C.ar      1 RES1   0.0000
    64 H20      2.6470   5.7063  11.8209   H         1 RES1   0.0000
    65 C35      3.4911   4.6903  13.3545   C.ar      1 RES1   0.0000
    66 C36      4.6545   3.9956  13.7562   C.ar      1 RES1   0.0000
    67 C37      4.6991   3.4731  15.0523   C.ar      1 RES1   0.0000
    68 H21      5.4749   3.0543  15.3482   H         1 RES1   0.0000
    69 C38      3.6172   3.5664  15.9006   C.ar      1 RES1   0.0000
    70 H22      3.6656   3.2015  16.7542   H         1 RES1   0.0000
    71 C39      2.4631   4.2009  15.4880   C.ar      1 RES1   0.0000
    72 H23      1.7252   4.2382  16.0539   H         1 RES1   0.0000
    73 C40      2.4058   4.7628  14.2665   C.ar      1 RES1   0.0000
    74 H24      1.6325   5.2149  14.0141   H         1 RES1   0.0000
    75 C41      8.3317   9.1462  11.0229   C.ar      1 RES1   0.0000
    76 C42      7.2437   8.3334  10.7637   C.ar      1 RES1   0.0000
    77 C43      6.3078   8.6942   9.7702   C.ar      1 RES1   0.0000
    78 H25      5.5585   8.1634   9.6237   H         1 RES1   0.0000
    79 C44      6.4963   9.8139   9.0265   C.ar      1 RES1   0.0000
    80 H26      5.8547  10.0503   8.3954   H         1 RES1   0.0000
    81 C45      7.6203  10.6163   9.1799   C.ar      1 RES1   0.0000
    82 C46      8.5499  10.2825  10.2045   C.ar      1 RES1   0.0000
    83 C47      9.7216  11.1223  10.3497   C.ar      1 RES1   0.0000
    84 H27     10.3432  10.9502  11.0202   H         1 RES1   0.0000
    85 C48      9.9056  12.1756   9.4893   C.ar      1 RES1   0.0000
    86 H28     10.6659  12.7002   9.5870   H         1 RES1   0.0000
    87 C49      9.0285  12.4845   8.4999   C.ar      1 RES1   0.0000
    88 H29      9.1954  13.2061   7.9367   H         1 RES1   0.0000
    89 C50      7.9001  11.7339   8.3398   C.ar      1 RES1   0.0000
    90 H30      7.3001  11.9579   7.6653   H         1 RES1   0.0000
    91 C51      9.2829   8.7357  12.1073   C.ar      1 RES1   0.0000
    92 C52      9.9525   7.5289  11.9729   C.ar      1 RES1   0.0000
    93 C53     10.8622   7.1308  12.9745   C.ar      1 RES1   0.0000
    94 H31     11.3353   6.3366  12.8686   H         1 RES1   0.0000
    95 C54     11.0599   7.8710  14.0765   C.ar      1 RES1   0.0000
    96 H32     11.6615   7.5724  14.7198   H         1 RES1   0.0000
    97 C55     10.3819   9.0964  14.2923   C.ar      1 RES1   0.0000
    98 C56      9.4838   9.5319  13.2785   C.ar      1 RES1   0.0000
    99 C57      8.8057  10.7739  13.5011   C.ar      1 RES1   0.0000
   100 H33      8.2154  11.0912  12.8564   H         1 RES1   0.0000
   101 C58      9.0062  11.4976  14.6343   C.ar      1 RES1   0.0000
   102 H34      8.5440  12.2959  14.7592   H         1 RES1   0.0000
   103 C59      9.9072  11.0518  15.6169   C.ar      1 RES1   0.0000
   104 H35     10.0592  11.5618  16.3796   H         1 RES1   0.0000
   105 C60     10.5481   9.8802  15.4459   C.ar      1 RES1   0.0000
   106 H36     11.1198   9.5796  16.1136   H         1 RES1   0.0000
   107 O7      10.9660   8.7564   7.4413   O.3       1 RES1   0.0000
   108 C61     12.3235   8.8932   7.7589   C.3       1 RES1   0.0000
   109 H37     12.5937   9.8118   7.6083   H         1 RES1   0.0000
   110 H38     12.8466   8.3292   7.1686   H         1 RES1   0.0000
   111 C62     12.6043   8.5325   9.1392   C.3       1 RES1   0.0000
   112 H39     13.5258   8.7170   9.3373   H         1 RES1   0.0000
   113 H40     12.4308   7.5973   9.2681   H         1 RES1   0.0000
   114 H41     12.0428   9.0446   9.7255   H         1 RES1   0.0000
   115 C63     10.6142   9.2229   6.1602   C.3       1 RES1   0.0000
   116 H42     11.1785   8.8103   5.4870   H         1 RES1   0.0000
   117 H43     10.7329  10.1850   6.1113   H         1 RES1   0.0000
   118 C64      9.2211   8.8808   5.9240   C.3       1 RES1   0.0000
   119 H44      8.9146   9.3183   5.1274   H         1 RES1   0.0000
   120 H45      8.6905   9.1669   6.6705   H         1 RES1   0.0000
   121 H46      9.1394   7.9291   5.8168   H         1 RES1   0.0000
   122 O8       5.9400   1.0492   8.9763   O.3       1 RES1   0.0000
   123 C65      5.9070   0.0394   8.3249   C.3       1 RES1   0.0000
   124 H47      5.2580   0.1493   7.6123   H         1 RES1   0.0000
   125 H48      5.6019  -0.6863   8.8908   H         1 RES1   0.0000
   126 C66      7.1489  -0.3193   7.7562   C.3       1 RES1   0.0000
   127 H49      7.0762  -1.1860   7.3491   H         1 RES1   0.0000
   128 H50      7.8200  -0.3442   8.4429   H         1 RES1   0.0000
   129 H51      7.3960   0.3276   7.0912   H         1 RES1   0.0000
   130 C67      4.5506   1.2690   9.8001   C.3       1 RES1   0.0000
   131 H52      4.0410   0.4458   9.8544   H         1 RES1   0.0000
   132 H53      4.7238   1.5924  10.6985   H         1 RES1   0.0000
   133 C68      3.9473   2.1253   9.1242   C.3       1 RES1   0.0000
   134 H54      3.4560   2.7080   9.7092   H         1 RES1   0.0000
   135 H55      3.3415   1.6899   8.5216   H         1 RES1   0.0000
   136 H56      4.5831   2.6416   8.6207   H         1 RES1   0.0000
   137 O9       6.8971   6.6746  15.8449   O.3       1 RES1   0.0000
   138 C69      7.8162   5.8410  16.6456   C.3       1 RES1   0.0000
   139 H57      8.0353   6.3262  17.4559   H         1 RES1   0.0000
   140 H58      7.3412   5.0365  16.9103   H         1 RES1   0.0000
   141 C70      8.8639   5.5051  16.1055   C.3       1 RES1   0.0000
   142 H59      8.6827   4.8292  15.4486   H         1 RES1   0.0000
   143 H60      9.4664   5.1547  16.7664   H         1 RES1   0.0000
   144 H61      9.2627   6.2661  15.6793   H         1 RES1   0.0000
   145 C71      5.7561   6.9504  16.5846   C.3       1 RES1   0.0000
   146 H62      5.4732   6.1459  17.0514   H         1 RES1   0.0000
   147 H63      5.9587   7.6243  17.2509   H         1 RES1   0.0000
   148 C72      4.7008   7.4024  15.7974   C.3       1 RES1   0.0000
   149 H64      4.8830   8.2981  15.5056   H         1 RES1   0.0000
   150 H65      3.8892   7.3900  16.3091   H         1 RES1   0.0000
   151 H66      4.6054   6.8301  15.0320   H         1 RES1   0.0000
   152 O10      8.8053   1.1466  10.5927   O.3       1 RES1   0.0000
@<TRIPOS>BOND
     1     1     5    1
     2     2     7    1
     3     3     5    1
     4     4     6    1
     5     5    12    1
     6     6     1    1
     7     7     1    1
     8     8     1    1
     9     9     1    1
    10    10     1    1
    11    11    12   ar
    12    12    13   ar
    13    13    14    1
    14    15    13   ar
    15    16    15    1
    16    17    15   ar
    17    18    11   ar
    18    19    18   ar
    19    20    19    1
    20    21    19   ar
    21    22    21    1
    22    23    21   ar
    23    24    23    1
    24    25    17   ar
    25    26    25    1
    26    27    11    1
    27    28     6    1
    28    29    28   ar
    29    30    29    1
    30    31    29   ar
    31    32    31    1
    32    33    31   ar
    33    34    27   ar
    34    35    34   ar
    35    36    35    1
    36    37    35   ar
    37    38    37    1
    38    39    37   ar
    39    40    39    1
    40    41    33   ar
    41    42    41    1
    42    43    44   ar
    43    44     7    1
    44    45    44   ar
    45    46    45    1
    46    47    45   ar
    47    48    47    1
    48    49    47   ar
    49    50    43   ar
    50    51    50   ar
    51    52    51    1
    52    53    51   ar
    53    54    53    1
    54    55    53   ar
    55    56    55    1
    56    57    49   ar
    57    58    57    1
    58    59    43    1
    59    60     8    1
    60    61    60   ar
    61    62    61    1
    62    63    61   ar
    63    64    63    1
    64    65    63   ar
    65    66    59   ar
    66    67    66   ar
    67    68    67    1
    68    69    67   ar
    69    70    69    1
    70    71    69   ar
    71    72    71    1
    72    73    65   ar
    73    74    73    1
    74    75    76   ar
    75    76     9    1
    76    77    76   ar
    77    78    77    1
    78    79    77   ar
    79    80    79    1
    80    81    79   ar
    81    82    75   ar
    82    83    82   ar
    83    84    83    1
    84    85    83   ar
    85    86    85    1
    86    87    85   ar
    87    88    87    1
    88    89    81   ar
    89    90    89    1
    90    91    75    1
    91    92    10    1
    92    93    92   ar
    93    94    93    1
    94    95    93   ar
    95    96    95    1
    96    97    95   ar
    97    98    91   ar
    98    99    98   ar
    99   100    99    1
   100   101    99   ar
   101   102   101    1
   102   103   101   ar
   103   104   103    1
   104   105    97   ar
   105   106   105    1
   106   107     3    1
   107   108   107    1
   108   109   108    1
   109   110   108    1
   110   111   108    1
   111   112   111    1
   112   113   111    1
   113   114   111    1
   114   115   107    1
   115   116   115    1
   116   117   115    1
   117   118   115    1
   118   119   118    1
   119   120   118    1
   120   121   118    1
   121   122     4    1
   122   123   122    1
   123   124   123    1
   124   125   123    1
   125   126   123    1
   126   127   126    1
   127   128   126    1
   128   129   126    1
   129   130   122    1
   130   131   130    1
   131   132   130    1
   132   133   130    1
   133   134   133    1
   134   135   133    1
   135   136   133    1
   136   137     2    1
   137   138   137    1
   138   139   138    1
   139   140   138    1
   140   141   138    1
   141   142   141    1
   142   143   141    1
   143   144   141    1
   144   145   137    1
   145   146   145    1
   146   147   145    1
   147   148   145    1
   148   149   148    1
   149   150   148    1
   150   151   148    1
   151   152     4    1
   152     2     9    1
   153     3    10    1
   154     4     8    1
   155    17    18   ar
   156    23    25   ar
   157    27    28   ar
   158    33    34   ar
   159    39    41   ar
   160    49    50   ar
   161    55    57   ar
   162    59    60   ar
   163    65    66   ar
   164    71    73   ar
   165    81    82   ar
   166    87    89   ar
   167    91    92   ar
   168    97    98   ar
   169   103   105   ar
@<TRIPOS>SUBSTRUCTURE
     1 RES1        1 GROUP             0 ****  ****    0  
@<TRIPOS>CRYSIN
   11.3256   20.7350   13.5741   90.0000   91.0860   90.0000     4     1
