@<TRIPOS>MOLECULE
CUQGAW
   184   207     1     0     0
SMALL
NO_CHARGES
****
Generated from the CSD

@<TRIPOS>ATOM
     1 Fe1      0.0000   0.0000   0.0000   Fe        1 RES1   0.0000
     2 Li1     -2.9943   0.0000   0.0000   Li        1 RES1   0.0000
     3 O1      -1.5351  -0.8037  -1.0107   O.3       1 RES1   0.0000
     4 O2      -4.5175  -0.1896  -1.2246   O.3       1 RES1   0.0000
     5 C1      -4.5593   0.2748  -2.5649   C.3       1 RES1   0.0000
     6 H1      -3.6654   0.3574  -2.9313   H         1 RES1   0.0000
     7 H2      -5.0032   1.1366  -2.6189   H         1 RES1   0.0000
     8 C2      -5.3644  -0.8076  -3.3054   C.3       1 RES1   0.0000
     9 H3      -6.0087  -0.3986  -3.9033   H         1 RES1   0.0000
    10 H4      -4.7715  -1.3675  -3.8300   H         1 RES1   0.0000
    11 C3      -6.0862  -1.6501  -2.2390   C.3       1 RES1   0.0000
    12 H5      -5.8173  -2.5803  -2.2872   H         1 RES1   0.0000
    13 H6      -7.0501  -1.5933  -2.3431   H         1 RES1   0.0000
    14 C4      -5.6348  -1.0102  -0.9122   C.3       1 RES1   0.0000
    15 H7      -6.3499  -0.4786  -0.5323   H         1 RES1   0.0000
    16 H8      -5.3831  -1.6965  -0.2738   H         1 RES1   0.0000
    17 C5      -1.5061  -2.0178  -1.5235   C.ar      1 RES1   0.0000
    18 C6      -1.6737  -3.1544  -0.7348   C.ar      1 RES1   0.0000
    19 C7      -1.5627  -4.4355  -1.3615   C.ar      1 RES1   0.0000
    20 C8      -1.5635  -5.6314  -0.6422   C.ar      1 RES1   0.0000
    21 H9      -1.6156  -5.6133   0.2854   H         1 RES1   0.0000
    22 C9      -1.4860  -6.8519  -1.3075   C.ar      1 RES1   0.0000
    23 H10     -1.4964  -7.6337  -0.8042   H         1 RES1   0.0000
    24 C10     -1.3966  -6.9525  -2.6999   C.ar      1 RES1   0.0000
    25 H11     -1.3497  -7.7795  -3.1222   H         1 RES1   0.0000
    26 C11     -1.3787  -5.8327  -3.3884   C.ar      1 RES1   0.0000
    27 H12     -1.3258  -5.8830  -4.3140   H         1 RES1   0.0000
    28 C12     -1.4391  -4.5516  -2.7809   C.ar      1 RES1   0.0000
    29 C13     -1.3564  -3.3427  -3.5600   C.ar      1 RES1   0.0000
    30 H13     -1.2975  -3.3905  -4.4876   H         1 RES1   0.0000
    31 C14     -1.3638  -2.1274  -2.9390   C.ar      1 RES1   0.0000
    32 H14     -1.2752  -1.3546  -3.4481   H         1 RES1   0.0000
    33 O1F     -1.5351   0.8037   1.0107   O.3       1 RES1   0.0000
    34 O1B      1.4636  -0.9276  -1.0107   O.3       1 RES1   0.0000
    35 Li1B     1.4972  -2.5932   0.0000   Li        1 RES1   0.0000
    36 O1J      0.0715  -1.7314   1.0107   O.3       1 RES1   0.0000
    37 O1D      0.0715   1.7314  -1.0107   O.3       1 RES1   0.0000
    38 Li1D     1.4972   2.5932   0.0000   Li        1 RES1   0.0000
    39 O1H      1.4636   0.9276   1.0107   O.3       1 RES1   0.0000
    40 C5H      2.5005   0.2954   1.5235   C.ar      1 RES1   0.0000
    41 C6H      3.5686  -0.1277   0.7348   C.ar      1 RES1   0.0000
    42 C6B      3.5686   0.1277  -0.7348   C.ar      1 RES1   0.0000
    43 C5B      2.5005  -0.2954  -1.5235   C.ar      1 RES1   0.0000
    44 C14B     2.5243  -0.1174  -2.9390   C.ar      1 RES1   0.0000
    45 C13B     3.5731   0.4967  -3.5600   C.ar      1 RES1   0.0000
    46 C12B     4.6613   1.0295  -2.7809   C.ar      1 RES1   0.0000
    47 C7B      4.6226   0.8644  -1.3615   C.ar      1 RES1   0.0000
    48 C8B      5.6587   1.4617  -0.6422   C.ar      1 RES1   0.0000
    49 H9B      5.6691   1.4075   0.2854   H         1 RES1   0.0000
    50 C9B      6.6769   2.1390  -1.3075   C.ar      1 RES1   0.0000
    51 H10B     7.3592   2.5209  -0.8042   H         1 RES1   0.0000
    52 C10B     6.7193   2.2668  -2.6999   C.ar      1 RES1   0.0000
    53 H11B     7.4121   2.7209  -3.1222   H         1 RES1   0.0000
    54 C11B     5.7406   1.7223  -3.3884   C.ar      1 RES1   0.0000
    55 H12B     5.7577   1.7933  -4.3140   H         1 RES1   0.0000
    56 H13B     3.5850   0.5715  -4.4876   H         1 RES1   0.0000
    57 H14B     1.8107  -0.4270  -3.4481   H         1 RES1   0.0000
    58 C7H      4.6226  -0.8644   1.3615   C.ar      1 RES1   0.0000
    59 C8H      5.6587  -1.4617   0.6422   C.ar      1 RES1   0.0000
    60 H9H      5.6691  -1.4075  -0.2854   H         1 RES1   0.0000
    61 C9H      6.6769  -2.1390   1.3075   C.ar      1 RES1   0.0000
    62 H10H     7.3592  -2.5209   0.8042   H         1 RES1   0.0000
    63 C10H     6.7193  -2.2668   2.6999   C.ar      1 RES1   0.0000
    64 H11H     7.4121  -2.7209   3.1222   H         1 RES1   0.0000
    65 C11H     5.7406  -1.7223   3.3884   C.ar      1 RES1   0.0000
    66 H12H     5.7577  -1.7933   4.3140   H         1 RES1   0.0000
    67 C12H     4.6613  -1.0295   2.7809   C.ar      1 RES1   0.0000
    68 C13H     3.5731  -0.4967   3.5600   C.ar      1 RES1   0.0000
    69 H13H     3.5850  -0.5715   4.4876   H         1 RES1   0.0000
    70 C14H     2.5243   0.1174   2.9390   C.ar      1 RES1   0.0000
    71 H14H     1.8107   0.4270   3.4481   H         1 RES1   0.0000
    72 O2D      2.0945   4.0071  -1.2246   O.3       1 RES1   0.0000
    73 C1D      2.5176   3.8110  -2.5649   C.3       1 RES1   0.0000
    74 H1D      2.1422   2.9957  -2.9313   H         1 RES1   0.0000
    75 H2D      3.4859   3.7646  -2.6189   H         1 RES1   0.0000
    76 C2D      1.9828   5.0496  -3.3054   C.3       1 RES1   0.0000
    77 H3D      2.6591   5.4031  -3.9033   H         1 RES1   0.0000
    78 H4D      1.2015   4.8160  -3.8300   H         1 RES1   0.0000
    79 C3D      1.6141   6.0958  -2.2390   C.3       1 RES1   0.0000
    80 H5D      0.6741   6.3281  -2.2872   H         1 RES1   0.0000
    81 H6D      2.1452   6.9022  -2.3431   H         1 RES1   0.0000
    82 C4D      1.9426   5.3850  -0.9122   C.3       1 RES1   0.0000
    83 H7D      2.7604   5.7385  -0.5323   H         1 RES1   0.0000
    84 H8D      1.2223   5.5101  -0.2738   H         1 RES1   0.0000
    85 O2H      2.4230   3.8175   1.2246   O.3       1 RES1   0.0000
    86 C1H      2.0416   4.0858   2.5649   C.3       1 RES1   0.0000
    87 H1H      1.5232   3.3530   2.9313   H         1 RES1   0.0000
    88 H2H      1.5173   4.9012   2.6189   H         1 RES1   0.0000
    89 C2H      3.3816   4.2419   3.3054   C.3       1 RES1   0.0000
    90 H3H      3.3496   5.0044   3.9033   H         1 RES1   0.0000
    91 H4H      3.5701   3.4485   3.8300   H         1 RES1   0.0000
    92 C3H      4.4721   4.4458   2.2390   C.3       1 RES1   0.0000
    93 H5H      5.1432   3.7478   2.2872   H         1 RES1   0.0000
    94 H6H      4.9049   5.3089   2.3431   H         1 RES1   0.0000
    95 C4H      3.6922   4.3748   0.9122   C.3       1 RES1   0.0000
    96 H7H      3.5895   5.2598   0.5323   H         1 RES1   0.0000
    97 H8H      4.1608   3.8136   0.2738   H         1 RES1   0.0000
    98 C5D     -0.9944   2.3132  -1.5235   C.ar      1 RES1   0.0000
    99 C6D     -1.8949   3.0266  -0.7348   C.ar      1 RES1   0.0000
   100 C6F     -1.6737   3.1544   0.7348   C.ar      1 RES1   0.0000
   101 C5F     -1.5061   2.0178   1.5235   C.ar      1 RES1   0.0000
   102 C14F    -1.3638   2.1274   2.9390   C.ar      1 RES1   0.0000
   103 C13F    -1.3564   3.3427   3.5600   C.ar      1 RES1   0.0000
   104 C12F    -1.4391   4.5516   2.7809   C.ar      1 RES1   0.0000
   105 C7F     -1.5627   4.4355   1.3615   C.ar      1 RES1   0.0000
   106 C8F     -1.5635   5.6314   0.6422   C.ar      1 RES1   0.0000
   107 H9F     -1.6156   5.6133  -0.2854   H         1 RES1   0.0000
   108 C9F     -1.4860   6.8519   1.3075   C.ar      1 RES1   0.0000
   109 H10F    -1.4964   7.6337   0.8042   H         1 RES1   0.0000
   110 C10F    -1.3966   6.9525   2.6999   C.ar      1 RES1   0.0000
   111 H11F    -1.3497   7.7795   3.1222   H         1 RES1   0.0000
   112 C11F    -1.3787   5.8327   3.3884   C.ar      1 RES1   0.0000
   113 H12F    -1.3258   5.8830   4.3140   H         1 RES1   0.0000
   114 H13F    -1.2975   3.3905   4.4876   H         1 RES1   0.0000
   115 H14F    -1.2752   1.3546   3.4481   H         1 RES1   0.0000
   116 C7D     -3.0599   3.5711  -1.3615   C.ar      1 RES1   0.0000
   117 C8D     -4.0952   4.1697  -0.6422   C.ar      1 RES1   0.0000
   118 H9D     -4.0535   4.2058   0.2854   H         1 RES1   0.0000
   119 C9D     -5.1909   4.7128  -1.3075   C.ar      1 RES1   0.0000
   120 H10D    -5.8628   5.1128  -0.8042   H         1 RES1   0.0000
   121 C10D    -5.3227   4.6857  -2.6999   C.ar      1 RES1   0.0000
   122 H11D    -6.0624   5.0586  -3.1222   H         1 RES1   0.0000
   123 C11D    -4.3619   4.1103  -3.3884   C.ar      1 RES1   0.0000
   124 H12D    -4.4319   4.0897  -4.3140   H         1 RES1   0.0000
   125 C12D    -3.2222   3.5220  -2.7809   C.ar      1 RES1   0.0000
   126 C13D    -2.2167   2.8460  -3.5600   C.ar      1 RES1   0.0000
   127 H13D    -2.2874   2.8189  -4.4876   H         1 RES1   0.0000
   128 C14D    -1.1605   2.2448  -2.9390   C.ar      1 RES1   0.0000
   129 H14D    -0.5356   1.7817  -3.4481   H         1 RES1   0.0000
   130 C5J     -0.9944  -2.3132   1.5235   C.ar      1 RES1   0.0000
   131 C6J     -1.8949  -3.0266   0.7348   C.ar      1 RES1   0.0000
   132 C7J     -3.0599  -3.5711   1.3615   C.ar      1 RES1   0.0000
   133 C8J     -4.0952  -4.1697   0.6422   C.ar      1 RES1   0.0000
   134 H9J     -4.0535  -4.2058  -0.2854   H         1 RES1   0.0000
   135 C9J     -5.1909  -4.7128   1.3075   C.ar      1 RES1   0.0000
   136 H10J    -5.8628  -5.1128   0.8042   H         1 RES1   0.0000
   137 C10J    -5.3227  -4.6857   2.6999   C.ar      1 RES1   0.0000
   138 H11J    -6.0624  -5.0586   3.1222   H         1 RES1   0.0000
   139 C11J    -4.3619  -4.1103   3.3884   C.ar      1 RES1   0.0000
   140 H12J    -4.4319  -4.0897   4.3140   H         1 RES1   0.0000
   141 C12J    -3.2222  -3.5220   2.7809   C.ar      1 RES1   0.0000
   142 C13J    -2.2167  -2.8460   3.5600   C.ar      1 RES1   0.0000
   143 H13J    -2.2874  -2.8189   4.4876   H         1 RES1   0.0000
   144 C14J    -1.1605  -2.2448   2.9390   C.ar      1 RES1   0.0000
   145 H14J    -0.5356  -1.7817   3.4481   H         1 RES1   0.0000
   146 O2B      2.4230  -3.8175  -1.2246   O.3       1 RES1   0.0000
   147 C1B      2.0416  -4.0858  -2.5649   C.3       1 RES1   0.0000
   148 H1B      1.5232  -3.3530  -2.9313   H         1 RES1   0.0000
   149 H2B      1.5173  -4.9012  -2.6189   H         1 RES1   0.0000
   150 C2B      3.3816  -4.2419  -3.3054   C.3       1 RES1   0.0000
   151 H3B      3.3496  -5.0044  -3.9033   H         1 RES1   0.0000
   152 H4B      3.5701  -3.4485  -3.8300   H         1 RES1   0.0000
   153 C3B      4.4721  -4.4458  -2.2390   C.3       1 RES1   0.0000
   154 H5B      5.1432  -3.7478  -2.2872   H         1 RES1   0.0000
   155 H6B      4.9049  -5.3089  -2.3431   H         1 RES1   0.0000
   156 C4B      3.6922  -4.3748  -0.9122   C.3       1 RES1   0.0000
   157 H7B      3.5895  -5.2598  -0.5323   H         1 RES1   0.0000
   158 H8B      4.1608  -3.8136  -0.2738   H         1 RES1   0.0000
   159 O2J      2.0945  -4.0071   1.2246   O.3       1 RES1   0.0000
   160 C1J      2.5176  -3.8110   2.5649   C.3       1 RES1   0.0000
   161 H1J      2.1422  -2.9957   2.9313   H         1 RES1   0.0000
   162 H2J      3.4859  -3.7646   2.6189   H         1 RES1   0.0000
   163 C2J      1.9828  -5.0496   3.3054   C.3       1 RES1   0.0000
   164 H3J      2.6591  -5.4031   3.9033   H         1 RES1   0.0000
   165 H4J      1.2015  -4.8160   3.8300   H         1 RES1   0.0000
   166 C3J      1.6141  -6.0958   2.2390   C.3       1 RES1   0.0000
   167 H5J      0.6741  -6.3281   2.2872   H         1 RES1   0.0000
   168 H6J      2.1452  -6.9022   2.3431   H         1 RES1   0.0000
   169 C4J      1.9426  -5.3850   0.9122   C.3       1 RES1   0.0000
   170 H7J      2.7604  -5.7385   0.5323   H         1 RES1   0.0000
   171 H8J      1.2223  -5.5101   0.2738   H         1 RES1   0.0000
   172 O2F     -4.5175   0.1896   1.2246   O.3       1 RES1   0.0000
   173 C1F     -4.5593  -0.2748   2.5649   C.3       1 RES1   0.0000
   174 H1F     -3.6654  -0.3574   2.9313   H         1 RES1   0.0000
   175 H2F     -5.0032  -1.1366   2.6189   H         1 RES1   0.0000
   176 C2F     -5.3644   0.8076   3.3054   C.3       1 RES1   0.0000
   177 H3F     -6.0087   0.3986   3.9033   H         1 RES1   0.0000
   178 H4F     -4.7715   1.3675   3.8300   H         1 RES1   0.0000
   179 C3F     -6.0862   1.6501   2.2390   C.3       1 RES1   0.0000
   180 H5F     -5.8173   2.5803   2.2872   H         1 RES1   0.0000
   181 H6F     -7.0501   1.5933   2.3431   H         1 RES1   0.0000
   182 C4F     -5.6348   1.0102   0.9122   C.3       1 RES1   0.0000
   183 H7F     -6.3499   0.4786   0.5323   H         1 RES1   0.0000
   184 H8F     -5.3831   1.6965   0.2738   H         1 RES1   0.0000
@<TRIPOS>BOND
     1     1     3    1
     2     2     3    1
     3     3    17    1
     4     4     2    1
     5     5     4    1
     6     6     5    1
     7     7     5    1
     8     8     5    1
     9     9     8    1
    10    10     8    1
    11    11     8    1
    12    12    11    1
    13    13    11    1
    14    14     4    1
    15    15    14    1
    16    16    14    1
    17    17    18   ar
    18    18    19   ar
    19    19    20   ar
    20    20    21    1
    21    22    20   ar
    22    23    22    1
    23    24    22   ar
    24    25    24    1
    25    26    24   ar
    26    27    26    1
    27    28    19   ar
    28    29    28   ar
    29    30    29    1
    30    31    17   ar
    31    32    31    1
    32    33     1    1
    33    34     1    1
    34    35    34    1
    35    36     1    1
    36    37     1    1
    37    38    37    1
    38    39     1    1
    39    40    39    1
    40    41    40   ar
    41    42    41    1
    42    43    34    1
    43    44    43   ar
    44    45    44   ar
    45    46    45   ar
    46    47    42   ar
    47    48    47   ar
    48    49    48    1
    49    50    48   ar
    50    51    50    1
    51    52    50   ar
    52    53    52    1
    53    54    46   ar
    54    55    54    1
    55    56    45    1
    56    57    44    1
    57    58    41   ar
    58    59    58   ar
    59    60    59    1
    60    61    59   ar
    61    62    61    1
    62    63    61   ar
    63    64    63    1
    64    65    63   ar
    65    66    65    1
    66    67    58   ar
    67    68    67   ar
    68    69    68    1
    69    70    40   ar
    70    71    70    1
    71    72    38    1
    72    73    72    1
    73    74    73    1
    74    75    73    1
    75    76    73    1
    76    77    76    1
    77    78    76    1
    78    79    76    1
    79    80    79    1
    80    81    79    1
    81    82    72    1
    82    83    82    1
    83    84    82    1
    84    85    38    1
    85    86    85    1
    86    87    86    1
    87    88    86    1
    88    89    86    1
    89    90    89    1
    90    91    89    1
    91    92    89    1
    92    93    92    1
    93    94    92    1
    94    95    85    1
    95    96    95    1
    96    97    95    1
    97    98    37    1
    98    99    98   ar
    99   100    99    1
   100   101    33    1
   101   102   101   ar
   102   103   102   ar
   103   104   103   ar
   104   105   100   ar
   105   106   105   ar
   106   107   106    1
   107   108   106   ar
   108   109   108    1
   109   110   108   ar
   110   111   110    1
   111   112   104   ar
   112   113   112    1
   113   114   103    1
   114   115   102    1
   115   116    99   ar
   116   117   116   ar
   117   118   117    1
   118   119   117   ar
   119   120   119    1
   120   121   119   ar
   121   122   121    1
   122   123   121   ar
   123   124   123    1
   124   125   116   ar
   125   126   125   ar
   126   127   126    1
   127   128    98   ar
   128   129   128    1
   129   130    36    1
   130   131    18    1
   131   132   131   ar
   132   133   132   ar
   133   134   133    1
   134   135   133   ar
   135   136   135    1
   136   137   135   ar
   137   138   137    1
   138   139   137   ar
   139   140   139    1
   140   141   132   ar
   141   142   141   ar
   142   143   142    1
   143   144   130   ar
   144   145   144    1
   145   146    35    1
   146   147   146    1
   147   148   147    1
   148   149   147    1
   149   150   147    1
   150   151   150    1
   151   152   150    1
   152   153   150    1
   153   154   153    1
   154   155   153    1
   155   156   146    1
   156   157   156    1
   157   158   156    1
   158   159    35    1
   159   160   159    1
   160   161   160    1
   161   162   160    1
   162   163   160    1
   163   164   163    1
   164   165   163    1
   165   166   163    1
   166   167   166    1
   167   168   166    1
   168   169   159    1
   169   170   169    1
   170   171   169    1
   171   172     2    1
   172   173   172    1
   173   174   173    1
   174   175   173    1
   175   176   173    1
   176   177   176    1
   177   178   176    1
   178   179   176    1
   179   180   179    1
   180   181   179    1
   181   182   172    1
   182   183   182    1
   183   184   182    1
   184     2    33    1
   185    11    14    1
   186    26    28   ar
   187    29    31   ar
   188    35    36    1
   189    38    39    1
   190    42    43   ar
   191    46    47   ar
   192    52    54   ar
   193    65    67   ar
   194    68    70   ar
   195    79    82    1
   196    92    95    1
   197   100   101   ar
   198   104   105   ar
   199   110   112   ar
   200   123   125   ar
   201   126   128   ar
   202   130   131   ar
   203   139   141   ar
   204   142   144   ar
   205   153   156    1
   206   166   169    1
   207   179   182    1
@<TRIPOS>SUBSTRUCTURE
     1 RES1        1 GROUP             0 ****  ****    0  
@<TRIPOS>CRYSIN
   14.8971   14.8971   19.2849   90.0000   90.0000  120.0000   182     1
