@<TRIPOS>MOLECULE
CURPUA
    81    88     2     0     0
SMALL
NO_CHARGES
****
Generated from the CSD

@<TRIPOS>ATOM
     1 Fe1      4.6805   6.9634   4.9932   Fe        1 RES1   0.0000
     2 P1       5.9639   9.1014   3.0009   P.3       1 RES1   0.0000
     3 P2       3.0997   8.8078   7.0752   P.3       1 RES1   0.0000
     4 S1       3.9613   8.3619   0.6299   S.3       1 RES1   0.0000
     5 S2       4.8418   7.7552   9.5558   S.3       1 RES1   0.0000
     6 S3       1.1395   3.7271   5.4972   S.2       1 RES1   0.0000
     7 S4       8.7342   4.4337   4.3783   S.2       1 RES1   0.0000
     8 N1       3.9943   7.3022   2.9288   N.2       1 RES1   0.0000
     9 N2       5.1595   7.1361   7.1363   N.2       1 RES1   0.0000
    10 N3       3.2690   5.4726   5.2652   N.2       1 RES1   0.0000
    11 N4       6.2704   5.6527   4.6494   N.2       1 RES1   0.0000
    12 O1       6.0209   8.5890   4.4018   O.2       1 RES1   0.0000
    13 O2       3.2696   8.5282   5.6131   O.2       1 RES1   0.0000
    14 C1       2.3854   4.7473   5.3279   C.1       1 RES1   0.0000
    15 C2       7.3042   5.1380   4.5538   C.1       1 RES1   0.0000
    16 C3       4.5798   8.2334   2.2189   C.2       1 RES1   0.0000
    17 C4       2.8306   7.1244   0.9669   C.2       1 RES1   0.0000
    18 H1       2.1926   6.7781   0.3385   H         1 RES1   0.0000
    19 C5       2.9952   6.6869   2.2174   C.2       1 RES1   0.0000
    20 H2       2.4429   6.0083   2.6122   H         1 RES1   0.0000
    21 C6       7.4327   8.6990   2.0465   C.ar      1 RES1   0.0000
    22 C7       7.5392   9.0710   0.6942   C.ar      1 RES1   0.0000
    23 H3       6.8296   9.5787   0.2899   H         1 RES1   0.0000
    24 C8       8.6620   8.6616   0.0016   C.ar      1 RES1   0.0000
    25 H4       8.7646   8.9143  -0.9183   H         1 RES1   0.0000
    26 C9       9.6510   7.9667   0.5688   C.ar      1 RES1   0.0000
    27 H5      10.3890   7.6672   0.0329   H         1 RES1   0.0000
    28 C10      9.5381   7.5923   1.8945   C.ar      1 RES1   0.0000
    29 H6      10.2725   7.1174   2.2910   H         1 RES1   0.0000
    30 C11      8.4321   7.9831   2.6264   C.ar      1 RES1   0.0000
    31 H7       8.3579   7.7397   3.5525   H         1 RES1   0.0000
    32 C12      5.6463  10.8468   2.8708   C.ar      1 RES1   0.0000
    33 C13      6.6809  11.7313   2.6546   C.ar      1 RES1   0.0000
    34 H8       7.5727  11.3967   2.5417   H         1 RES1   0.0000
    35 C14      6.4370  13.0836   2.6593   C.ar      1 RES1   0.0000
    36 H9       7.1233  13.7200   2.4540   H         1 RES1   0.0000
    37 C15      5.1814  13.5492   2.9288   C.ar      1 RES1   0.0000
    38 H10      5.0221  14.4944   2.9476   H         1 RES1   0.0000
    39 C16      4.1658  12.6929   3.1419   C.ar      1 RES1   0.0000
    40 H11      3.2820  13.0368   3.2923   H         1 RES1   0.0000
    41 C17      4.3882  11.3499   3.1247   C.ar      1 RES1   0.0000
    42 H12      3.6878  10.7228   3.3237   H         1 RES1   0.0000
    43 C18      4.4181   7.8871   7.9057   C.2       1 RES1   0.0000
    44 C19      6.0702   6.6494   9.1719   C.2       1 RES1   0.0000
    45 H13      6.6612   6.2447   9.8112   H         1 RES1   0.0000
    46 C20      6.0971   6.4295   7.8399   C.2       1 RES1   0.0000
    47 H14      6.7140   5.8282   7.4168   H         1 RES1   0.0000
    48 C21      1.5303   8.1913   7.7318   C.ar      1 RES1   0.0000
    49 C22      1.0981   8.4463   9.0230   C.ar      1 RES1   0.0000
    50 H15      1.6780   8.9260   9.6185   H         1 RES1   0.0000
    51 C23     -0.0995   7.9901   9.4524   C.ar      1 RES1   0.0000
    52 H16     -0.4076   8.1749  10.3424   H         1 RES1   0.0000
    53 C24     -0.9015   7.3186   8.6156   C.ar      1 RES1   0.0000
    54 H17     -1.7661   7.0191   8.9055   H         1 RES1   0.0000
    55 C25     -0.5214   7.0285   7.3259   C.ar      1 RES1   0.0000
    56 H18     -1.0951   6.5067   6.7586   H         1 RES1   0.0000
    57 C26      0.7034   7.4590   6.8824   C.ar      1 RES1   0.0000
    58 H19      0.9832   7.2694   5.9845   H         1 RES1   0.0000
    59 C27      3.1770  10.5403   7.4795   C.ar      1 RES1   0.0000
    60 C28      2.6558  11.4341   6.5659   C.ar      1 RES1   0.0000
    61 H20      2.3346  11.1019   5.7244   H         1 RES1   0.0000
    62 C29      2.6033  12.7701   6.8903   C.ar      1 RES1   0.0000
    63 H21      2.2579  13.4018   6.2556   H         1 RES1   0.0000
    64 C30      3.0631  13.2216   8.1078   C.ar      1 RES1   0.0000
    65 H22      2.9838  14.1505   8.3304   H         1 RES1   0.0000
    66 C31      3.6120  12.3747   8.9775   C.ar      1 RES1   0.0000
    67 H23      3.9560  12.7163   9.8065   H         1 RES1   0.0000
    68 C32      3.6704  11.0270   8.6892   C.ar      1 RES1   0.0000
    69 H24      4.0595  10.4070   9.3129   H         1 RES1   0.0000
    70 C33     10.1918  -0.1568  11.6807   C.ar      2 RES2   0.0000
    71 H25      9.8546  -1.0154  11.9439   H         2 RES2   0.0000
    72 C34      9.8851   0.7276  12.9233   C.ar      2 RES2   0.0000
    73 H26      9.4062   0.7908  13.7539   H         2 RES2   0.0000
    74 C35     11.5512   0.5498   9.5636   C.ar      2 RES2   0.0000
    75 H27     11.9351   0.5007   8.6861   H         2 RES2   0.0000
    76 C36     10.7733  -0.3697  10.4145   C.ar      2 RES2   0.0000
    77 H28     10.6219  -1.2260  10.0087   H         2 RES2   0.0000
    78 C37     11.4460   1.6027  10.6590   C.ar      2 RES2   0.0000
    79 H29     12.0034   2.3678  10.5038   H         2 RES2   0.0000
    80 C38     10.8135   1.6261  11.7982   C.ar      2 RES2   0.0000
    81 H30     10.9114   2.4988  12.1900   H         2 RES2   0.0000
@<TRIPOS>BOND
     1     1     8    1
     2     2    12    2
     3     3    13    2
     4     4    16    1
     5     5    43    1
     6     6    14    2
     7     7    15    2
     8     8    16    2
     9     9     1    1
    10    10     1    1
    11    11     1    1
    12    12     1    1
    13    13     1    1
    14    14    10    2
    15    15    11    2
    16    16     2    1
    17    17     4    1
    18    18    17    1
    19    19     8    1
    20    20    19    1
    21    21     2    1
    22    22    21   ar
    23    23    22    1
    24    24    22   ar
    25    25    24    1
    26    26    24   ar
    27    27    26    1
    28    28    26   ar
    29    29    28    1
    30    30    21   ar
    31    31    30    1
    32    32     2    1
    33    33    32   ar
    34    34    33    1
    35    35    33   ar
    36    36    35    1
    37    37    35   ar
    38    38    37    1
    39    39    37   ar
    40    40    39    1
    41    41    32   ar
    42    42    41    1
    43    43     3    1
    44    44     5    1
    45    45    44    1
    46    46     9    1
    47    47    46    1
    48    48     3    1
    49    49    48   ar
    50    50    49    1
    51    51    49   ar
    52    52    51    1
    53    53    51   ar
    54    54    53    1
    55    55    53   ar
    56    56    55    1
    57    57    48   ar
    58    58    57    1
    59    59     3    1
    60    60    59   ar
    61    61    60    1
    62    62    60   ar
    63    63    62    1
    64    64    62   ar
    65    65    64    1
    66    66    64   ar
    67    67    66    1
    68    68    59   ar
    69    69    68    1
    70     9    43    2
    71    17    19    2
    72    28    30   ar
    73    39    41   ar
    74    44    46    2
    75    55    57   ar
    76    66    68   ar
    77    70    71    1
    78    72    70   ar
    79    73    72    1
    80    74    75    1
    81    76    70   ar
    82    77    76    1
    83    78    74   ar
    84    79    78    1
    85    80    72   ar
    86    81    80    1
    87    74    76   ar
    88    78    80   ar
@<TRIPOS>SUBSTRUCTURE
     1 RES1        1 GROUP             0 ****  ****    0  
     2 RES2       70 GROUP             0 ****  ****    0  
@<TRIPOS>CRYSIN
   11.0740   23.3970   15.6920   90.0000   93.0100   90.0000    14     1
