@<TRIPOS>MOLECULE
CUSWUK
   105   114     1     0     0
SMALL
NO_CHARGES
****
Generated from the CSD

@<TRIPOS>ATOM
     1 Fe1      0.0000   0.0000   0.0000   Fe        1 RES1   0.0000
     2 N1      -0.7914   0.7486  -1.5775   N.2       1 RES1   0.0000
     3 N2      -0.3393   3.0992  -1.2439   N.2       1 RES1   0.0000
     4 N3       0.5502   1.7479   0.5607   N.2       1 RES1   0.0000
     5 N4       1.6848   1.2406   2.6398   N.2       1 RES1   0.0000
     6 N5      -1.7590   0.2666   0.9693   N.2       1 RES1   0.0000
     7 N6      -3.3577   1.1388   2.2047   N.pl3     1 RES1   0.0000
     8 C1      -1.4687   0.0685  -2.5690   C.2       1 RES1   0.0000
     9 C2      -1.9688   1.0133  -3.5679   C.2       1 RES1   0.0000
    10 C3      -1.5845   2.2418  -3.1719   C.2       1 RES1   0.0000
    11 C4      -0.8427   2.0693  -1.9228   C.2       1 RES1   0.0000
    12 C5       0.2963   2.9362  -0.0845   C.2       1 RES1   0.0000
    13 C6       0.8257   4.0510   0.6927   C.2       1 RES1   0.0000
    14 C7       1.4119   3.5254   1.7866   C.2       1 RES1   0.0000
    15 C8       1.2315   2.0803   1.7127   C.2       1 RES1   0.0000
    16 C9      -2.7301   0.6015  -4.8001   C.3       1 RES1   0.0000
    17 H1      -3.2210  -0.2133  -4.6090   H         1 RES1   0.0000
    18 H2      -3.3764   1.2923  -5.0155   H         1 RES1   0.0000
    19 C10     -1.8497   0.3707  -5.9923   C.3       1 RES1   0.0000
    20 H3      -2.3911   0.1404  -6.7504   H         1 RES1   0.0000
    21 H4      -1.2390  -0.3458  -5.8043   H         1 RES1   0.0000
    22 H5      -1.3549   1.1714  -6.1844   H         1 RES1   0.0000
    23 C11     -1.8455   3.5710  -3.8086   C.3       1 RES1   0.0000
    24 H6      -2.6812   3.5209  -4.2975   H         1 RES1   0.0000
    25 H7      -1.9545   4.2340  -3.1086   H         1 RES1   0.0000
    26 C12     -0.7791   4.0285  -4.7357   C.3       1 RES1   0.0000
    27 H8      -0.6816   3.3943  -5.4495   H         1 RES1   0.0000
    28 H9       0.0502   4.1021  -4.2574   H         1 RES1   0.0000
    29 H10     -1.0166   4.8854  -5.0979   H         1 RES1   0.0000
    30 C13      0.6939   5.4851   0.2766   C.3       1 RES1   0.0000
    31 H11      1.4022   5.9982   0.6969   H         1 RES1   0.0000
    32 H12      0.8171   5.5441  -0.6832   H         1 RES1   0.0000
    33 C14     -0.6172   6.0956   0.6314   C.3       1 RES1   0.0000
    34 H13     -1.3249   5.5928   0.2228   H         1 RES1   0.0000
    35 H14     -0.6433   7.0014   0.3168   H         1 RES1   0.0000
    36 H15     -0.7272   6.0859   1.5860   H         1 RES1   0.0000
    37 C15      2.1192   4.2248   2.9111   C.3       1 RES1   0.0000
    38 H16      2.7747   3.6182   3.2902   H         1 RES1   0.0000
    39 H17      2.6007   4.9850   2.5490   H         1 RES1   0.0000
    40 C16      1.2304   4.7011   3.9977   C.3       1 RES1   0.0000
    41 H18      0.6244   5.3592   3.6503   H         1 RES1   0.0000
    42 H19      1.7595   5.0910   4.6977   H         1 RES1   0.0000
    43 H20      0.7299   3.9605   4.3503   H         1 RES1   0.0000
    44 C17     -2.0762   1.2265   1.7982   C.2       1 RES1   0.0000
    45 H21     -1.4869   1.8912   2.0738   H         1 RES1   0.0000
    46 C18     -3.8844   0.0675   1.6134   C.2       1 RES1   0.0000
    47 H22     -4.7529  -0.2517   1.7063   H         1 RES1   0.0000
    48 C19     -2.9016  -0.4634   0.8500   C.2       1 RES1   0.0000
    49 H23     -2.9932  -1.2214   0.3189   H         1 RES1   0.0000
    50 C20     -4.0609   2.0694   3.0832   C.3       1 RES1   0.0000
    51 H24     -3.7214   1.9847   3.9765   H         1 RES1   0.0000
    52 H25     -4.9994   1.8673   3.0780   H         1 RES1   0.0000
    53 H26     -3.9245   2.9679   2.7728   H         1 RES1   0.0000
    54 N1A      0.7914  -0.7486   1.5775   N.2       1 RES1   0.0000
    55 N2A      0.3393  -3.0992   1.2439   N.2       1 RES1   0.0000
    56 N3A     -0.5502  -1.7479  -0.5607   N.2       1 RES1   0.0000
    57 N4A     -1.6848  -1.2406  -2.6398   N.2       1 RES1   0.0000
    58 C1A      1.4687  -0.0685   2.5690   C.2       1 RES1   0.0000
    59 C2A      1.9688  -1.0133   3.5679   C.2       1 RES1   0.0000
    60 C3A      1.5845  -2.2418   3.1719   C.2       1 RES1   0.0000
    61 C4A      0.8427  -2.0693   1.9228   C.2       1 RES1   0.0000
    62 C5A     -0.2963  -2.9362   0.0845   C.2       1 RES1   0.0000
    63 C6A     -0.8257  -4.0510  -0.6927   C.2       1 RES1   0.0000
    64 C7A     -1.4119  -3.5254  -1.7866   C.2       1 RES1   0.0000
    65 C8A     -1.2315  -2.0803  -1.7127   C.2       1 RES1   0.0000
    66 C9A      2.7301  -0.6015   4.8001   C.3       1 RES1   0.0000
    67 H1A      3.2210   0.2133   4.6090   H         1 RES1   0.0000
    68 H2A      3.3764  -1.2923   5.0155   H         1 RES1   0.0000
    69 C10A     1.8497  -0.3707   5.9923   C.3       1 RES1   0.0000
    70 H3A      2.3911  -0.1404   6.7504   H         1 RES1   0.0000
    71 H4A      1.2390   0.3458   5.8043   H         1 RES1   0.0000
    72 H5A      1.3549  -1.1714   6.1844   H         1 RES1   0.0000
    73 C11A     1.8455  -3.5710   3.8086   C.3       1 RES1   0.0000
    74 H6A      2.6812  -3.5209   4.2975   H         1 RES1   0.0000
    75 H7A      1.9545  -4.2340   3.1086   H         1 RES1   0.0000
    76 C12A     0.7791  -4.0285   4.7357   C.3       1 RES1   0.0000
    77 H8A      0.6816  -3.3943   5.4495   H         1 RES1   0.0000
    78 H9A     -0.0502  -4.1021   4.2574   H         1 RES1   0.0000
    79 H10A     1.0166  -4.8854   5.0979   H         1 RES1   0.0000
    80 C13A    -0.6939  -5.4851  -0.2766   C.3       1 RES1   0.0000
    81 H11A    -1.4022  -5.9982  -0.6969   H         1 RES1   0.0000
    82 H12A    -0.8171  -5.5441   0.6832   H         1 RES1   0.0000
    83 C14A     0.6172  -6.0956  -0.6314   C.3       1 RES1   0.0000
    84 H13A     1.3249  -5.5928  -0.2228   H         1 RES1   0.0000
    85 H14A     0.6433  -7.0014  -0.3168   H         1 RES1   0.0000
    86 H15A     0.7272  -6.0859  -1.5860   H         1 RES1   0.0000
    87 C15A    -2.1192  -4.2248  -2.9111   C.3       1 RES1   0.0000
    88 H16A    -2.7747  -3.6182  -3.2902   H         1 RES1   0.0000
    89 H17A    -2.6007  -4.9850  -2.5490   H         1 RES1   0.0000
    90 C16A    -1.2304  -4.7011  -3.9977   C.3       1 RES1   0.0000
    91 H18A    -0.6244  -5.3592  -3.6503   H         1 RES1   0.0000
    92 H19A    -1.7595  -5.0910  -4.6977   H         1 RES1   0.0000
    93 H20A    -0.7299  -3.9605  -4.3503   H         1 RES1   0.0000
    94 N5A      1.7590  -0.2666  -0.9693   N.2       1 RES1   0.0000
    95 N6A      3.3577  -1.1388  -2.2047   N.pl3     1 RES1   0.0000
    96 C17A     2.0762  -1.2265  -1.7982   C.2       1 RES1   0.0000
    97 H21A     1.4869  -1.8912  -2.0738   H         1 RES1   0.0000
    98 C18A     3.8844  -0.0675  -1.6134   C.2       1 RES1   0.0000
    99 H22A     4.7529   0.2517  -1.7063   H         1 RES1   0.0000
   100 C19A     2.9016   0.4634  -0.8500   C.2       1 RES1   0.0000
   101 H23A     2.9932   1.2214  -0.3189   H         1 RES1   0.0000
   102 C20A     4.0609  -2.0694  -3.0832   C.3       1 RES1   0.0000
   103 H24A     3.7214  -1.9847  -3.9765   H         1 RES1   0.0000
   104 H25A     4.9994  -1.8673  -3.0780   H         1 RES1   0.0000
   105 H26A     3.9245  -2.9679  -2.7728   H         1 RES1   0.0000
@<TRIPOS>BOND
     1     1     2    1
     2     2     8    1
     3     3    11    1
     4     4     1    1
     5     5    15    2
     6     6     1    1
     7     7    44    1
     8     8     9    1
     9     9    10    2
    10    10    11    1
    11    11     2    2
    12    12     3    2
    13    13    12    1
    14    14    13    2
    15    15     4    1
    16    16     9    1
    17    17    16    1
    18    18    16    1
    19    19    16    1
    20    20    19    1
    21    21    19    1
    22    22    19    1
    23    23    10    1
    24    24    23    1
    25    25    23    1
    26    26    23    1
    27    27    26    1
    28    28    26    1
    29    29    26    1
    30    30    13    1
    31    31    30    1
    32    32    30    1
    33    33    30    1
    34    34    33    1
    35    35    33    1
    36    36    33    1
    37    37    14    1
    38    38    37    1
    39    39    37    1
    40    40    37    1
    41    41    40    1
    42    42    40    1
    43    43    40    1
    44    44     6    2
    45    45    44    1
    46    46     7    1
    47    47    46    1
    48    48     6    1
    49    49    48    1
    50    50     7    1
    51    51    50    1
    52    52    50    1
    53    53    50    1
    54    54     1    1
    55    55    61    2
    56    56     1    1
    57    57     8    2
    58    58     5    1
    59    59    58    1
    60    60    59    2
    61    61    54    1
    62    62    55    1
    63    63    62    2
    64    64    63    1
    65    65    56    1
    66    66    59    1
    67    67    66    1
    68    68    66    1
    69    69    66    1
    70    70    69    1
    71    71    69    1
    72    72    69    1
    73    73    60    1
    74    74    73    1
    75    75    73    1
    76    76    73    1
    77    77    76    1
    78    78    76    1
    79    79    76    1
    80    80    63    1
    81    81    80    1
    82    82    80    1
    83    83    80    1
    84    84    83    1
    85    85    83    1
    86    86    83    1
    87    87    64    1
    88    88    87    1
    89    89    87    1
    90    90    87    1
    91    91    90    1
    92    92    90    1
    93    93    90    1
    94    94     1    1
    95    95    96    1
    96    96    94    2
    97    97    96    1
    98    98    95    1
    99    99    98    1
   100   100    94    1
   101   101   100    1
   102   102    95    1
   103   103   102    1
   104   104   102    1
   105   105   102    1
   106     4    12    1
   107    14    15    1
   108    46    48    2
   109    54    58    2
   110    56    62    1
   111    57    65    1
   112    60    61    1
   113    64    65    2
   114    98   100    2
@<TRIPOS>SUBSTRUCTURE
     1 RES1        1 GROUP             0 ****  ****    0  
@<TRIPOS>CRYSIN
    9.5440   10.5100   10.7110   98.1800   91.0900  115.5300     2     1
