@<TRIPOS>MOLECULE
CUVXAV
   110   116     1     0     0
SMALL
NO_CHARGES
****
Generated from the CSD

@<TRIPOS>ATOM
     1 Fe1     10.5555   4.6925   7.3887   Fe        1 RES1   0.0000
     2 H1      10.2325   4.5460   5.9512   H         1 RES1   0.0000
     3 H2      11.0692   4.7534   8.8707   H         1 RES1   0.0000
     4 H3      11.9064   3.8200   7.2666   H         1 RES1   0.0000
     5 P1       9.2331   2.9521   7.6741   P.3       1 RES1   0.0000
     6 P2      11.3149   6.6767   6.8515   P.3       1 RES1   0.0000
     7 O1      12.1739   2.8105   9.2268   O.3       1 RES1   0.0000
     8 O2      13.3076   4.7897   8.8130   O.3       1 RES1   0.0000
     9 N1       7.6873   5.0368   7.2506   N.pl3     1 RES1   0.0000
    10 N2       8.7129   6.8483   6.8672   N.pl3     1 RES1   0.0000
    11 C1       9.0614   2.1140   9.3584   C.3       1 RES1   0.0000
    12 H4       9.9330   1.6575   9.5375   H         1 RES1   0.0000
    13 C2       7.9886   1.0544   9.4755   C.3       1 RES1   0.0000
    14 H5       8.0922   0.5781  10.3250   H         1 RES1   0.0000
    15 H6       8.0728   0.4211   8.7325   H         1 RES1   0.0000
    16 H7       7.1060   1.4794   9.4440   H         1 RES1   0.0000
    17 C3       8.8961   3.1614  10.4331   C.3       1 RES1   0.0000
    18 H8       7.9982   3.5495  10.3763   H         1 RES1   0.0000
    19 H9       9.5653   3.8667  10.3087   H         1 RES1   0.0000
    20 H10      9.0181   2.7478  11.3135   H         1 RES1   0.0000
    21 C4       9.2985   1.5003   6.5319   C.3       1 RES1   0.0000
    22 H11      8.5547   0.8780   6.7767   H         1 RES1   0.0000
    23 C5       9.1183   1.8996   5.0706   C.3       1 RES1   0.0000
    24 H12      8.2582   2.3540   4.9590   H         1 RES1   0.0000
    25 H13      9.1394   1.0968   4.5074   H         1 RES1   0.0000
    26 H14      9.8441   2.5025   4.8048   H         1 RES1   0.0000
    27 C6      10.6323   0.7640   6.7613   C.3       1 RES1   0.0000
    28 H15     11.3771   1.3759   6.5853   H         1 RES1   0.0000
    29 H16     10.6899  -0.0042   6.1560   H         1 RES1   0.0000
    30 H17     10.6773   0.4529   7.6896   H         1 RES1   0.0000
    31 C7       7.5462   3.6454   7.3837   C.2       1 RES1   0.0000
    32 C8       6.2906   3.1770   7.1736   C.2       1 RES1   0.0000
    33 H18      6.1392   2.2413   7.2375   H         1 RES1   0.0000
    34 C9       5.1759   4.0343   6.8592   C.2       1 RES1   0.0000
    35 C10      5.3924   5.3739   6.6667   C.2       1 RES1   0.0000
    36 H19      4.6646   5.9408   6.4412   H         1 RES1   0.0000
    37 C11      6.6897   5.9184   6.8030   C.2       1 RES1   0.0000
    38 C12      7.3656   7.1128   6.5624   C.2       1 RES1   0.0000
    39 C13      7.0926   8.3659   5.9625   C.2       1 RES1   0.0000
    40 H20      6.1896   8.6126   5.8059   H         1 RES1   0.0000
    41 C14      8.0931   9.2354   5.5999   C.2       1 RES1   0.0000
    42 C15      9.4453   8.8050   5.8710   C.2       1 RES1   0.0000
    43 H21     10.1526   9.3830   5.6098   H         1 RES1   0.0000
    44 C16      9.7781   7.6348   6.4726   C.2       1 RES1   0.0000
    45 C17      8.9383   5.5917   7.2586   C.3       1 RES1   0.0000
    46 C18     12.3336   6.9468   5.3288   C.3       1 RES1   0.0000
    47 H22     12.4439   7.9321   5.1993   H         1 RES1   0.0000
    48 C19     11.6632   6.3868   4.1081   C.3       1 RES1   0.0000
    49 H23     11.5688   5.4163   4.2035   H         1 RES1   0.0000
    50 H24     12.2070   6.5862   3.3173   H         1 RES1   0.0000
    51 H25     10.7775   6.7933   4.0063   H         1 RES1   0.0000
    52 C20     13.7507   6.3229   5.5663   C.3       1 RES1   0.0000
    53 H26     14.1285   6.6785   6.3974   H         1 RES1   0.0000
    54 H27     14.3377   6.5532   4.8157   H         1 RES1   0.0000
    55 H28     13.6717   5.3490   5.6327   H         1 RES1   0.0000
    56 C21     12.1564   7.7765   8.1280   C.3       1 RES1   0.0000
    57 H29     12.9867   7.3061   8.4275   H         1 RES1   0.0000
    58 C22     12.5630   9.1628   7.6564   C.3       1 RES1   0.0000
    59 H30     13.2538   9.0817   6.9650   H         1 RES1   0.0000
    60 H31     12.9175   9.6744   8.4130   H         1 RES1   0.0000
    61 H32     11.7826   9.6237   7.2857   H         1 RES1   0.0000
    62 C23     11.2352   7.9079   9.3552   C.3       1 RES1   0.0000
    63 H33     10.5264   8.5569   9.1639   H         1 RES1   0.0000
    64 H34     11.7577   8.2117  10.1260   H         1 RES1   0.0000
    65 H35     10.8332   7.0361   9.5566   H         1 RES1   0.0000
    66 C24      3.7816   3.3844   6.7693   C.3       1 RES1   0.0000
    67 C25      3.7747   2.2782   5.7186   C.3       1 RES1   0.0000
    68 H36      2.9676   1.7323   5.8243   H         1 RES1   0.0000
    69 H37      4.5678   1.7143   5.8338   H         1 RES1   0.0000
    70 H38      3.7844   2.6771   4.8237   H         1 RES1   0.0000
    71 C26      2.7074   4.4284   6.4020   C.3       1 RES1   0.0000
    72 H39      2.9009   4.7980   5.5157   H         1 RES1   0.0000
    73 H40      2.7125   5.1493   7.0656   H         1 RES1   0.0000
    74 H41      1.8259   3.9997   6.3922   H         1 RES1   0.0000
    75 C27      3.4635   2.7881   8.1248   C.3       1 RES1   0.0000
    76 H42      2.5977   2.3302   8.0859   H         1 RES1   0.0000
    77 H43      3.4266   3.5007   8.7958   H         1 RES1   0.0000
    78 H44      4.1617   2.1444   8.3699   H         1 RES1   0.0000
    79 C28      7.8428  10.5387   4.8685   C.3       1 RES1   0.0000
    80 C29      8.4821  10.4246   3.4729   C.3       1 RES1   0.0000
    81 H45      9.4575  10.3809   3.5630   H         1 RES1   0.0000
    82 H46      8.2391  11.2081   2.9366   H         1 RES1   0.0000
    83 H47      8.1586   9.6125   3.0304   H         1 RES1   0.0000
    84 C30      8.5421  11.6760   5.6272   C.3       1 RES1   0.0000
    85 H48      8.2167  11.7012   6.5512   H         1 RES1   0.0000
    86 H49      8.3473  12.5299   5.1884   H         1 RES1   0.0000
    87 H50      9.5102  11.5214   5.6262   H         1 RES1   0.0000
    88 C31      6.3477  10.8187   4.7097   C.3       1 RES1   0.0000
    89 H51      5.9123  10.0419   4.3008   H         1 RES1   0.0000
    90 H52      6.2214  11.6036   4.1377   H         1 RES1   0.0000
    91 H53      5.9521  10.9887   5.5905   H         1 RES1   0.0000
    92 C32     13.4703   2.6342   9.7594   C.3       1 RES1   0.0000
    93 C33     14.3051   1.9048   8.7280   C.3       1 RES1   0.0000
    94 H54     15.1930   1.7197   9.0982   H         1 RES1   0.0000
    95 H55     14.3948   2.4632   7.9272   H         1 RES1   0.0000
    96 H56     13.8666   1.0616   8.4908   H         1 RES1   0.0000
    97 C34     13.4134   1.8322  11.0523   C.3       1 RES1   0.0000
    98 H57     13.1229   0.9168  10.8572   H         1 RES1   0.0000
    99 H58     12.7780   2.2518  11.6697   H         1 RES1   0.0000
   100 H59     14.3028   1.8114  11.4644   H         1 RES1   0.0000
   101 C35     13.9349   4.1415   9.9278   C.3       1 RES1   0.0000
   102 C36     15.4358   4.4301   9.9134   C.3       1 RES1   0.0000
   103 H60     15.8615   3.9868  10.6768   H         1 RES1   0.0000
   104 H61     15.5831   5.3967   9.9725   H         1 RES1   0.0000
   105 H62     15.8253   4.0904   9.0802   H         1 RES1   0.0000
   106 C37     13.3771   4.7793  11.2111   C.3       1 RES1   0.0000
   107 H63     12.4244   4.5648  11.2960   H         1 RES1   0.0000
   108 H64     13.4898   5.7520  11.1678   H         1 RES1   0.0000
   109 H65     13.8610   4.4287  11.9878   H         1 RES1   0.0000
   110 B1      12.0881   4.0568   8.5242   B         1 RES1   0.0000
@<TRIPOS>BOND
     1     1     2    1
     2     3     1    1
     3     4     1    1
     4     5     1    1
     5     6     1    1
     6     7    92    1
     7     8   101    1
     8     9    31    1
     9    10    38    1
    10    11     5    1
    11    12    11    1
    12    13    11    1
    13    14    13    1
    14    15    13    1
    15    16    13    1
    16    17    11    1
    17    18    17    1
    18    19    17    1
    19    20    17    1
    20    21     5    1
    21    22    21    1
    22    23    21    1
    23    24    23    1
    24    25    23    1
    25    26    23    1
    26    27    21    1
    27    28    27    1
    28    29    27    1
    29    30    27    1
    30    31     5    1
    31    32    31    2
    32    33    32    1
    33    34    32    1
    34    35    34    2
    35    36    35    1
    36    37     9    1
    37    38    37    2
    38    39    38    1
    39    40    39    1
    40    41    39    2
    41    42    41    1
    42    43    42    1
    43    44     6    1
    44    45     1    1
    45    46     6    1
    46    47    46    1
    47    48    46    1
    48    49    48    1
    49    50    48    1
    50    51    48    1
    51    52    46    1
    52    53    52    1
    53    54    52    1
    54    55    52    1
    55    56     6    1
    56    57    56    1
    57    58    56    1
    58    59    58    1
    59    60    58    1
    60    61    58    1
    61    62    56    1
    62    63    62    1
    63    64    62    1
    64    65    62    1
    65    66    34    1
    66    67    66    1
    67    68    67    1
    68    69    67    1
    69    70    67    1
    70    71    66    1
    71    72    71    1
    72    73    71    1
    73    74    71    1
    74    75    66    1
    75    76    75    1
    76    77    75    1
    77    78    75    1
    78    79    41    1
    79    80    79    1
    80    81    80    1
    81    82    80    1
    82    83    80    1
    83    84    79    1
    84    85    84    1
    85    86    84    1
    86    87    84    1
    87    88    79    1
    88    89    88    1
    89    90    88    1
    90    91    88    1
    91    92    93    1
    92    93    94    1
    93    95    93    1
    94    96    93    1
    95    97    92    1
    96    98    97    1
    97    99    97    1
    98   100    97    1
    99   101    92    1
   100   102   101    1
   101   103   102    1
   102   104   102    1
   103   105   102    1
   104   106   101    1
   105   107   106    1
   106   108   106    1
   107   109   106    1
   108   110     3    1
   109     4   110    1
   110     7   110    1
   111     8   110    1
   112     9    45    1
   113    10    44    1
   114    10    45    1
   115    35    37    1
   116    42    44    2
@<TRIPOS>SUBSTRUCTURE
     1 RES1        1 GROUP             0 ****  ****    0  
@<TRIPOS>CRYSIN
   14.9700   17.2850   16.0690   90.0000   93.3780   90.0000   231     1
