@<TRIPOS>MOLECULE
CUXRET
    75    82     3     0     0
SMALL
USER_CHARGES
****
Generated from the CSD

@<TRIPOS>ATOM
     1 Fe1      6.7571  -1.3340  13.1681   Fe        1 RES1   2.0000
     2 N1       5.7236  -2.7369  12.2360   N.ar      1 RES1   0.0000
     3 N2       8.1901  -2.2629  12.3587   N.ar      1 RES1   0.0000
     4 N3       8.2979  -0.1050  13.7064   N.3       1 RES1   0.0000
     5 H1       8.1291   0.2687  14.5419   H         1 RES1   0.0000
     6 N4       6.3436   0.1250  11.7987   N.3       1 RES1   0.0000
     7 H2       6.6120  -0.1388  10.9479   H         1 RES1   0.0000
     8 N5       5.2544  -0.5357  13.9879   N.ar      1 RES1   0.0000
     9 N6       6.7991  -2.2892  14.8842   N.ar      1 RES1   0.0000
    10 C1       4.4073  -2.9960  12.3196   C.ar      1 RES1   0.0000
    11 H3       3.8685  -2.4364  12.8659   H         1 RES1   0.0000
    12 C2       3.8017  -4.0431  11.6445   C.ar      1 RES1   0.0000
    13 H4       2.8698  -4.2025  11.7412   H         1 RES1   0.0000
    14 C3       4.5677  -4.8530  10.8272   C.ar      1 RES1   0.0000
    15 H5       4.1706  -5.5715  10.3482   H         1 RES1   0.0000
    16 C4       5.9217  -4.5998  10.7185   C.ar      1 RES1   0.0000
    17 H6       6.4661  -5.1341  10.1509   H         1 RES1   0.0000
    18 C5       6.4785  -3.5571  11.4460   C.ar      1 RES1   0.0000
    19 C6       7.9121  -3.2812  11.5125   C.ar      1 RES1   0.0000
    20 C7       8.9350  -3.9956  10.9030   C.ar      1 RES1   0.0000
    21 H7       8.7408  -4.7086  10.3054   H         1 RES1   0.0000
    22 C8      10.2475  -3.6440  11.1862   C.ar      1 RES1   0.0000
    23 H8      10.9637  -4.0995  10.7579   H         1 RES1   0.0000
    24 C9      10.5168  -2.6257  12.0965   C.ar      1 RES1   0.0000
    25 H9      11.4118  -2.3916  12.3129   H         1 RES1   0.0000
    26 C10      9.4521  -1.9638  12.6780   C.ar      1 RES1   0.0000
    27 C11      9.5426  -0.9226  13.7561   C.3       1 RES1   0.0000
    28 H10      9.6308  -1.3556  14.6425   H         1 RES1   0.0000
    29 H11     10.3345  -0.3478  13.6090   H         1 RES1   0.0000
    30 C12      8.4443   0.9710  12.6892   C.3       1 RES1   0.0000
    31 H12      8.9488   0.5987  11.9106   H         1 RES1   0.0000
    32 C13      9.2079   2.1871  13.2179   C.3       1 RES1   0.0000
    33 H13      8.7584   2.5320  14.0298   H         1 RES1   0.0000
    34 H14     10.1275   1.9169  13.4674   H         1 RES1   0.0000
    35 C14      9.2686   3.2880  12.1600   C.3       1 RES1   0.0000
    36 H15      9.7063   4.0891  12.5438   H         1 RES1   0.0000
    37 H16      9.8129   2.9783  11.3929   H         1 RES1   0.0000
    38 C15      7.8756   3.6551  11.6764   C.3       1 RES1   0.0000
    39 H17      7.9429   4.3399  10.9646   H         1 RES1   0.0000
    40 H18      7.3571   4.0413  12.4265   H         1 RES1   0.0000
    41 C16      7.1492   2.4282  11.1356   C.3       1 RES1   0.0000
    42 H19      6.2373   2.6812  10.8436   H         1 RES1   0.0000
    43 H20      7.6365   2.0707  10.3520   H         1 RES1   0.0000
    44 C17      7.0638   1.3609  12.2153   C.3       1 RES1   0.0000
    45 H21      6.5726   1.7527  12.9944   H         1 RES1   0.0000
    46 C18      4.8791   0.3626  11.8324   C.3       1 RES1   0.0000
    47 H22      4.4107  -0.3060  11.2719   H         1 RES1   0.0000
    48 H23      4.6705   1.2660  11.4823   H         1 RES1   0.0000
    49 C19      4.4348   0.2444  13.2628   C.ar      1 RES1   0.0000
    50 C20      3.2792   0.7654  13.8246   C.ar      1 RES1   0.0000
    51 H24      2.7083   1.3302  13.3166   H         1 RES1   0.0000
    52 C21      2.9674   0.4497  15.1417   C.ar      1 RES1   0.0000
    53 H25      2.1857   0.8092  15.5438   H         1 RES1   0.0000
    54 C22      3.7982  -0.3911  15.8704   C.ar      1 RES1   0.0000
    55 H26      3.5870  -0.6255  16.7672   H         1 RES1   0.0000
    56 C23      4.9448  -0.8814  15.2585   C.ar      1 RES1   0.0000
    57 C24      5.8739  -1.8806  15.7836   C.ar      1 RES1   0.0000
    58 C25      5.7895  -2.4275  17.0574   C.ar      1 RES1   0.0000
    59 H27      5.1435  -2.1095  17.6779   H         1 RES1   0.0000
    60 C26      6.6585  -3.4408  17.4084   C.ar      1 RES1   0.0000
    61 H28      6.6078  -3.8427  18.2682   H         1 RES1   0.0000
    62 C27      7.6038  -3.8618  16.4928   C.ar      1 RES1   0.0000
    63 H29      8.2171  -4.5519  16.7170   H         1 RES1   0.0000
    64 C28      7.6457  -3.2672  15.2477   C.ar      1 RES1   0.0000
    65 H30      8.2989  -3.5606  14.6239   H         1 RES1   0.0000
    66 B1       6.2932  -0.3037   7.9790   B         2 RES2  -1.0000
    67 F1       6.2467   0.9837   8.3091   F         2 RES2   0.0000
    68 F2       5.2407  -0.6549   7.1831   F         2 RES2   0.0000
    69 F3       7.4099  -0.5076   7.2067   F         2 RES2   0.0000
    70 F4       6.3864  -1.1036   9.0838   F         2 RES2   0.0000
    71 B2       3.7401  -0.1100  19.6168   B         3 RES3  -1.0000
    72 F5       2.9230   1.0013  19.5551   F         3 RES3   0.0000
    73 F6       3.9327  -0.4847  20.9399   F         3 RES3   0.0000
    74 F7       3.1454  -1.1688  18.9470   F         3 RES3   0.0000
    75 F8       4.9641   0.1889  19.0470   F         3 RES3   0.0000
@<TRIPOS>BOND
     1     1     2    1
     2     2    10   ar
     3     3     1    1
     4     4     1    1
     5     5     4    1
     6     6     1    1
     7     7     6    1
     8     8     1    1
     9     9     1    1
    10    10    11    1
    11    12    10   ar
    12    13    12    1
    13    14    12   ar
    14    15    14    1
    15    16    14   ar
    16    17    16    1
    17    18     2   ar
    18    19     3   ar
    19    20    19   ar
    20    21    20    1
    21    22    20   ar
    22    23    22    1
    23    24    22   ar
    24    25    24    1
    25    26     3   ar
    26    27     4    1
    27    28    27    1
    28    29    27    1
    29    30     4    1
    30    31    30    1
    31    32    30    1
    32    33    32    1
    33    34    32    1
    34    35    32    1
    35    36    35    1
    36    37    35    1
    37    38    35    1
    38    39    38    1
    39    40    38    1
    40    41    38    1
    41    42    41    1
    42    43    41    1
    43    44     6    1
    44    45    44    1
    45    46     6    1
    46    47    46    1
    47    48    46    1
    48    49     8   ar
    49    50    49   ar
    50    51    50    1
    51    52    50   ar
    52    53    52    1
    53    54    52   ar
    54    55    54    1
    55    56     8   ar
    56    57     9   ar
    57    58    57   ar
    58    59    58    1
    59    60    58   ar
    60    61    60    1
    61    62    60   ar
    62    63    62    1
    63    64     9   ar
    64    65    64    1
    65    16    18   ar
    66    18    19    1
    67    24    26   ar
    68    26    27    1
    69    30    44    1
    70    41    44    1
    71    46    49    1
    72    54    56   ar
    73    56    57    1
    74    62    64   ar
    75    66    67    1
    76    68    66    1
    77    69    66    1
    78    70    66    1
    79    71    72    1
    80    73    71    1
    81    74    71    1
    82    75    71    1
@<TRIPOS>SUBSTRUCTURE
     1 RES1        1 GROUP             0 ****  ****    0  
     2 RES2       66 GROUP             0 ****  ****    0  
     3 RES3       71 GROUP             0 ****  ****    0  
@<TRIPOS>CRYSIN
   10.3490   14.9290   18.6220   90.0000   90.0000   90.0000    19     1
