@<TRIPOS>MOLECULE
CUXREV
    88    96     3     0     0
SMALL
USER_CHARGES
****
Generated from the CSD

@<TRIPOS>ATOM
     1 Fe1      4.3059  10.3302  26.5484   Fe        1 RES1   1.0000
     2 S1       3.7432  12.4566  27.1663   S.3       1 RES1   0.0000
     3 S2       3.5037   9.6250  28.5970   S.3       1 RES1   0.0000
     4 S3       2.4977   9.2782  25.6114   S.3       1 RES1   0.0000
     5 O1       4.4793  13.3450  24.4551   O.3       1 RES1   0.0000
     6 H1       5.3101  13.4686  24.4554   H         1 RES1   0.0000
     7 N1       5.9469  10.7121  27.4692   N.ar      1 RES1   0.0000
     8 N2       5.1106   8.6081  26.3295   N.ar      1 RES1   0.0000
     9 N3       5.8052  11.0178  22.5880   N.ar      1 RES1   1.0000
    10 C1       4.8753  10.9251  24.7203   C.2       1 RES1   0.0000
    11 C2       4.1863  12.0496  23.8965   C.3       1 RES1   0.0000
    12 C3       4.8368  11.9596  22.5461   C.ar      1 RES1   0.0000
    13 C4       5.8495  10.4214  23.9388   C.2       1 RES1   0.0000
    14 C5       4.6114  12.6636  21.3913   C.ar      1 RES1   0.0000
    15 H2       3.9490  13.3444  21.3602   H         1 RES1   0.0000
    16 C6       5.3702  12.3632  20.2698   C.ar      1 RES1   0.0000
    17 H3       5.2202  12.8280  19.4550   H         1 RES1   0.0000
    18 C7       6.3458  11.3849  20.3386   C.ar      1 RES1   0.0000
    19 H4       6.8706  11.1829  19.5728   H         1 RES1   0.0000
    20 C8       6.5569  10.7018  21.5163   C.ar      1 RES1   0.0000
    21 H5       7.2201  10.0234  21.5716   H         1 RES1   0.0000
    22 C9       2.6872  11.9561  23.7573   C.3       1 RES1   0.0000
    23 H6       2.4524  11.1201  23.3032   H         1 RES1   0.0000
    24 H7       2.3598  12.7162  23.2319   H         1 RES1   0.0000
    25 H8       2.2747  11.9721  24.6462   H         1 RES1   0.0000
    26 C10      7.0305   9.5349  24.1471   C.ar      1 RES1   0.0000
    27 C11      8.1530  10.0432  24.7934   C.ar      1 RES1   0.0000
    28 H9       8.1262  10.9077  25.1877   H         1 RES1   0.0000
    29 C12      9.3155   9.2798  24.8598   C.ar      1 RES1   0.0000
    30 H10     10.0810   9.6200  25.3073   H         1 RES1   0.0000
    31 C13      9.3554   8.0307  24.2758   C.ar      1 RES1   0.0000
    32 H11     10.1521   7.5144  24.3171   H         1 RES1   0.0000
    33 C14      8.2557   7.5311  23.6398   C.ar      1 RES1   0.0000
    34 H12      8.2919   6.6700  23.2422   H         1 RES1   0.0000
    35 C15      7.0918   8.2701  23.5695   C.ar      1 RES1   0.0000
    36 H13      6.3301   7.9150  23.1260   H         1 RES1   0.0000
    37 C16      6.3030  11.8698  28.0345   C.ar      1 RES1   0.0000
    38 C17      7.4413  11.9404  28.8513   C.ar      1 RES1   0.0000
    39 H14      7.6831  12.7687  29.2493   H         1 RES1   0.0000
    40 C18      8.2143  10.8224  29.0835   C.ar      1 RES1   0.0000
    41 H15      8.9836  10.8803  29.6380   H         1 RES1   0.0000
    42 C19      7.8563   9.5977  28.4941   C.ar      1 RES1   0.0000
    43 C20      8.5410   8.3295  28.6299   C.ar      1 RES1   0.0000
    44 H16      9.3233   8.2814  29.1678   H         1 RES1   0.0000
    45 C21      8.0974   7.2132  28.0112   C.ar      1 RES1   0.0000
    46 H17      8.5766   6.4017  28.1276   H         1 RES1   0.0000
    47 C22      6.9221   7.2149  27.1826   C.ar      1 RES1   0.0000
    48 C23      6.3658   6.1335  26.4714   C.ar      1 RES1   0.0000
    49 H18      6.7680   5.2751  26.5216   H         1 RES1   0.0000
    50 C24      5.2418   6.3205  25.7071   C.ar      1 RES1   0.0000
    51 H19      4.8823   5.5925  25.2135   H         1 RES1   0.0000
    52 C25      4.6228   7.5748  25.6482   C.ar      1 RES1   0.0000
    53 C26      6.2531   8.4406  27.0545   C.ar      1 RES1   0.0000
    54 C27      6.7138   9.6051  27.6968   C.ar      1 RES1   0.0000
    55 C28      5.4059  13.0249  27.6863   C.3       1 RES1   0.0000
    56 H20      5.8158  13.5488  26.9534   H         1 RES1   0.0000
    57 H21      5.3164  13.6189  28.4733   H         1 RES1   0.0000
    58 C29      2.8869  12.3143  28.7655   C.3       1 RES1   0.0000
    59 H22      3.0375  13.1431  29.2844   H         1 RES1   0.0000
    60 H23      1.9133  12.2347  28.6010   H         1 RES1   0.0000
    61 C30      3.3405  11.1281  29.5951   C.3       1 RES1   0.0000
    62 H24      2.6863  10.9671  30.3205   H         1 RES1   0.0000
    63 H25      4.2133  11.3370  30.0131   H         1 RES1   0.0000
    64 C31      1.7715   9.2064  28.2549   C.3       1 RES1   0.0000
    65 H26      1.3798   8.7107  29.0169   H         1 RES1   0.0000
    66 H27      1.2408  10.0303  28.1093   H         1 RES1   0.0000
    67 C32      1.7615   8.3504  27.0102   C.3       1 RES1   0.0000
    68 H28      0.8318   8.0936  26.7880   H         1 RES1   0.0000
    69 H29      2.2805   7.5221  27.1710   H         1 RES1   0.0000
    70 C33      3.4061   7.8997  24.8272   C.3       1 RES1   0.0000
    71 H30      2.8209   7.1034  24.7655   H         1 RES1   0.0000
    72 H31      3.6792   8.1554  23.9106   H         1 RES1   0.0000
    73 S4       8.1188  14.8505  24.7825   S.o2      2 RES2   0.0000
    74 F1       9.5351  13.4288  26.4198   F         2 RES2   0.0000
    75 F2       8.2300  14.7738  27.3955   F         2 RES2   0.0000
    76 F3       9.9816  15.4867  26.4663   F         2 RES2   0.0000
    77 O2       7.1959  13.7537  24.8214   O.3       2 RES2  -1.0000
    78 O3       9.1072  14.7301  23.7697   O.2       2 RES2   0.0000
    79 O4       7.5254  16.1051  24.9063   O.2       2 RES2   0.0000
    80 C34      9.0160  14.6272  26.3401   C.3       2 RES2   0.0000
    81 S5       5.9420  11.7262  16.2330   S.o2      3 RES3   0.0000
    82 F4       4.2562   9.7847  15.9111   F         3 RES3   0.0000
    83 F5       5.7810   9.3785  17.3648   F         3 RES3   0.0000
    84 F6       4.1484  10.6662  17.8316   F         3 RES3   0.0000
    85 O5       6.7424  12.1013  17.3651   O.3       3 RES3  -1.0000
    86 O6       4.9380  12.6794  15.8736   O.2       3 RES3   0.0000
    87 O7       6.6939  11.1655  15.1462   O.2       3 RES3   0.0000
    88 C35      4.9965  10.3140  16.8686   C.3       3 RES3   0.0000
@<TRIPOS>BOND
     1     1     2    1
     2     2    55    1
     3     3     1    1
     4     4     1    1
     5     5     6    1
     6     7     1    1
     7     8     1    1
     8     9    12   ar
     9    10     1    1
    10    11     5    1
    11    12    11    1
    12    13     9    1
    13    14    12   ar
    14    15    14    1
    15    16    14   ar
    16    17    16    1
    17    18    16   ar
    18    19    18    1
    19    20     9   ar
    20    21    20    1
    21    22    11    1
    22    23    22    1
    23    24    22    1
    24    25    22    1
    25    26    13    1
    26    27    26   ar
    27    28    27    1
    28    29    27   ar
    29    30    29    1
    30    31    29   ar
    31    32    31    1
    32    33    31   ar
    33    34    33    1
    34    35    26   ar
    35    36    35    1
    36    37     7   ar
    37    38    37   ar
    38    39    38    1
    39    40    38   ar
    40    41    40    1
    41    42    40   ar
    42    43    42   ar
    43    44    43    1
    44    45    43   ar
    45    46    45    1
    46    47    45   ar
    47    48    47   ar
    48    49    48    1
    49    50    48   ar
    50    51    50    1
    51    52     8   ar
    52    53     8   ar
    53    54     7   ar
    54    55    37    1
    55    56    55    1
    56    57    55    1
    57    58     2    1
    58    59    58    1
    59    60    58    1
    60    61     3    1
    61    62    61    1
    62    63    61    1
    63    64     3    1
    64    65    64    1
    65    66    64    1
    66    67     4    1
    67    68    67    1
    68    69    67    1
    69    70     4    1
    70    71    70    1
    71    72    70    1
    72    10    11    1
    73    10    13    2
    74    18    20   ar
    75    33    35   ar
    76    42    54   ar
    77    47    53   ar
    78    50    52   ar
    79    52    70    1
    80    53    54   ar
    81    58    61    1
    82    64    67    1
    83    73    77    1
    84    74    80    1
    85    75    80    1
    86    76    80    1
    87    78    73    2
    88    79    73    2
    89    80    73    1
    90    81    85    1
    91    82    88    1
    92    83    88    1
    93    84    88    1
    94    86    81    2
    95    87    81    2
    96    88    81    1
@<TRIPOS>SUBSTRUCTURE
     1 RES1        1 GROUP             0 ****  ****    0  
     2 RES2       73 GROUP             0 ****  ****    0  
     3 RES3       81 GROUP             0 ****  ****    0  
@<TRIPOS>CRYSIN
   14.2635   17.4695   30.1975   90.0000   90.0000   90.0000    61     1
