@<TRIPOS>MOLECULE
DABQEC
    45    52     2     0     0
SMALL
USER_CHARGES
****
Generated from the CSD

@<TRIPOS>ATOM
     1 Fe1      1.0332   2.1478   6.8052   Fe        1 RES1   1.0000
     2 O1       1.0531   1.5398   5.0170   O.3       1 RES1   0.0000
     3 O2       0.9180   2.7306   8.6015   O.3       1 RES1   0.0000
     4 N1      -0.2192   0.7489   7.1680   N.2       1 RES1   0.0000
     5 N2       2.4064   0.8480   7.4789   N.2       1 RES1   0.0000
     6 N3       2.4575   3.5035   6.3927   N.2       1 RES1   0.0000
     7 N4      -0.1751   3.5648   6.3424   N.2       1 RES1   0.0000
     8 C1      -0.1144   1.3771   4.3980   C.ar      1 RES1   0.0000
     9 C2      -0.1897   1.6623   3.0260   C.ar      1 RES1   0.0000
    10 C3      -1.3629   1.5982   2.3475   C.ar      1 RES1   0.0000
    11 C4      -2.5452   1.2151   2.9897   C.ar      1 RES1   0.0000
    12 C5      -2.4956   0.8625   4.3310   C.ar      1 RES1   0.0000
    13 C6      -1.2975   0.9527   5.0514   C.ar      1 RES1   0.0000
    14 C7      -1.2141   0.4012   6.4150   C.2       1 RES1   0.0000
    15 C8      -2.2368  -0.5707   6.8814   C.ar      1 RES1   0.0000
    16 C9      -2.4960  -1.7498   6.2103   C.ar      1 RES1   0.0000
    17 C10     -3.4311  -2.6354   6.6961   C.ar      1 RES1   0.0000
    18 C11     -4.1100  -2.3557   7.8466   C.ar      1 RES1   0.0000
    19 C12     -3.8890  -1.1606   8.5224   C.ar      1 RES1   0.0000
    20 C13     -2.9378  -0.2818   8.0542   C.ar      1 RES1   0.0000
    21 C14      0.2959  -0.1534   8.2217   C.3       1 RES1   0.0000
    22 C15      1.7147  -0.4389   7.7638   C.3       1 RES1   0.0000
    23 C16      3.5993   0.6858   6.6719   C.3       1 RES1   0.0000
    24 C17      4.3710   1.9824   6.4979   C.3       1 RES1   0.0000
    25 C18      3.6179   3.0381   5.7895   C.2       1 RES1   0.0000
    26 C19      1.8203   4.7113   5.7877   C.3       1 RES1   0.0000
    27 C20      0.4088   4.4106   5.2804   C.3       1 RES1   0.0000
    28 C21     -1.1862   3.9581   7.0517   C.2       1 RES1   0.0000
    29 C22     -2.1437   4.9757   6.5351   C.ar      1 RES1   0.0000
    30 C23     -2.8339   4.7143   5.3753   C.ar      1 RES1   0.0000
    31 C24     -3.7709   5.6144   4.8932   C.ar      1 RES1   0.0000
    32 C25     -4.0031   6.7755   5.5848   C.ar      1 RES1   0.0000
    33 C26     -3.2912   7.0524   6.7390   C.ar      1 RES1   0.0000
    34 C27     -2.3825   6.1501   7.2165   C.ar      1 RES1   0.0000
    35 C28     -1.3815   3.4045   8.3986   C.ar      1 RES1   0.0000
    36 C29     -2.6312   3.4911   9.0231   C.ar      1 RES1   0.0000
    37 C30     -2.8087   3.0754  10.3188   C.ar      1 RES1   0.0000
    38 C31     -1.7175   2.6069  11.0169   C.ar      1 RES1   0.0000
    39 C32     -0.4931   2.5062  10.4472   C.ar      1 RES1   0.0000
    40 C33     -0.2868   2.8830   9.1181   C.ar      1 RES1   0.0000
    41 Cl1      4.0146   3.8721   1.8923   Cl        2 RES2   0.0000
    42 O3       4.4168   4.0459   0.5399   O.3       2 RES2  -1.0000
    43 O4       4.0486   5.1289   2.3903   O.2       2 RES2   0.0000
    44 O5       2.7531   3.3978   1.9081   O.2       2 RES2   0.0000
    45 O6       4.9194   3.0824   2.5262   O.2       2 RES2   0.0000
@<TRIPOS>BOND
     1     1     2    1
     2     2     8    1
     3     3     1    1
     4     4     1    1
     5     5     1    1
     6     6     1    1
     7     7     1    1
     8     8     9   ar
     9     9    10   ar
    10    10    11   ar
    11    11    12   ar
    12    12    13   ar
    13    13     8   ar
    14    14     4    2
    15    15    14    1
    16    16    15   ar
    17    17    16   ar
    18    18    17   ar
    19    19    18   ar
    20    20    15   ar
    21    21     4    1
    22    22     5    1
    23    23     5    1
    24    24    23    1
    25    25     6    1
    26    26     6    1
    27    27     7    1
    28    28     7    2
    29    29    28    1
    30    30    29   ar
    31    31    30   ar
    32    32    31   ar
    33    33    32   ar
    34    34    29   ar
    35    35    28    1
    36    36    35   ar
    37    37    36   ar
    38    38    37   ar
    39    39    38   ar
    40    40     3    1
    41    13    14    1
    42    19    20   ar
    43    21    22    1
    44    24    25    1
    45    26    27    1
    46    33    34   ar
    47    35    40   ar
    48    39    40   ar
    49    41    42    1
    50    43    41    2
    51    44    41    2
    52    45    41    2
@<TRIPOS>SUBSTRUCTURE
     1 RES1        1 GROUP             0 ****  ****    0  
     2 RES2       41 GROUP             0 ****  ****    0  
@<TRIPOS>CRYSIN
   10.2410   17.3730    9.6920  105.9500   91.6100   93.8300     2     1
