@<TRIPOS>MOLECULE
DABQIG
    44    51     2     0     0
SMALL
USER_CHARGES
****
Generated from the CSD

@<TRIPOS>ATOM
     1 Fe1      2.7221   6.0010  10.2222   Fe        1 RES1   1.0000
     2 O5       4.4236   5.1994  10.4201   O.3       1 RES1   0.0000
     3 O6       2.7825   6.6397   8.4702   O.3       1 RES1   0.0000
     4 N1       2.0094   4.0548   9.7256   N.2       1 RES1   0.0000
     5 N2       0.5831   6.2708  10.3187   N.2       1 RES1   0.0000
     6 N3       2.4293   5.9836  12.3530   N.2       1 RES1   0.0000
     7 N4       3.3094   7.9687  10.7850   N.2       1 RES1   0.0000
     8 C1       4.9095   3.9942  10.2021   C.ar      1 RES1   0.0000
     9 C2       6.3196   3.8323  10.3559   C.ar      1 RES1   0.0000
    10 C3       6.9130   2.6102  10.1903   C.ar      1 RES1   0.0000
    11 C4       6.1491   1.4952   9.8676   C.ar      1 RES1   0.0000
    12 C5       4.7808   1.6543   9.7189   C.ar      1 RES1   0.0000
    13 C6       4.1385   2.8792   9.8777   C.ar      1 RES1   0.0000
    14 C7       2.6756   2.9270   9.6952   C.2       1 RES1   0.0000
    15 C8       1.9699   1.6275   9.4908   C.ar      1 RES1   0.0000
    16 C9       1.3579   1.0559  10.5654   C.ar      1 RES1   0.0000
    17 C10      0.7049  -0.1844  10.3745   C.ar      1 RES1   0.0000
    18 C11      0.6747  -0.7758   9.1359   C.ar      1 RES1   0.0000
    19 C12      1.2828  -0.1788   8.1069   C.ar      1 RES1   0.0000
    20 C13      1.9329   1.0052   8.2810   C.ar      1 RES1   0.0000
    21 C14      0.5456   4.0139   9.4688   C.3       1 RES1   0.0000
    22 C15      0.0328   5.4162   9.2728   C.3       1 RES1   0.0000
    23 C16      0.1167   5.9962  11.6958   C.3       1 RES1   0.0000
    24 C17      1.0986   6.5172  12.6977   C.3       1 RES1   0.0000
    25 C18      3.5798   6.7565  12.9191   C.3       1 RES1   0.0000
    26 C19      3.7269   8.0870  12.2077   C.3       1 RES1   0.0000
    27 C20      3.3232   9.0260  10.0500   C.2       1 RES1   0.0000
    28 C21      3.9028  10.3185  10.6043   C.ar      1 RES1   0.0000
    29 C22      5.1553  10.6874  10.2714   C.ar      1 RES1   0.0000
    30 C23      5.7111  11.8503  10.7800   C.ar      1 RES1   0.0000
    31 C24      4.9917  12.6275  11.5809   C.ar      1 RES1   0.0000
    32 C25      3.6777  12.3205  11.9171   C.ar      1 RES1   0.0000
    33 C26      3.1225  11.1492  11.4018   C.ar      1 RES1   0.0000
    34 C27      2.8541   9.0063   8.6865   C.ar      1 RES1   0.0000
    35 C28      2.6310  10.2692   8.0664   C.ar      1 RES1   0.0000
    36 C29      2.1866  10.3495   6.7535   C.ar      1 RES1   0.0000
    37 C30      1.9339   9.1725   6.0540   C.ar      1 RES1   0.0000
    38 C31      2.1601   7.9743   6.6555   C.ar      1 RES1   0.0000
    39 C32      2.5987   7.8519   7.9684   C.ar      1 RES1   0.0000
    40 Cl1     13.3324   2.7454  13.8923   Cl        2 RES2   0.0000
    41 O1      12.3091   2.2639  14.7743   O.3       2 RES2  -1.0000
    42 O2      13.6176   4.0829  14.1796   O.2       2 RES2   0.0000
    43 O3      12.9435   2.6300  12.5609   O.2       2 RES2   0.0000
    44 O4      14.4326   1.9612  14.1120   O.2       2 RES2   0.0000
@<TRIPOS>BOND
     1     1     2    1
     2     2     8    1
     3     3     1    1
     4     4     1    1
     5     5     1    1
     6     6     1    1
     7     7     1    1
     8     8     9   ar
     9     9    10   ar
    10    10    11   ar
    11    11    12   ar
    12    12    13   ar
    13    13     8   ar
    14    14     4    2
    15    15    14    1
    16    16    15   ar
    17    17    16   ar
    18    18    17   ar
    19    19    18   ar
    20    20    15   ar
    21    21     4    1
    22    22     5    1
    23    23     5    1
    24    24     6    1
    25    25     6    1
    26    26     7    1
    27    27     7    2
    28    28    27    1
    29    29    28   ar
    30    30    29   ar
    31    31    30   ar
    32    32    31   ar
    33    33    28   ar
    34    34    27    1
    35    35    34   ar
    36    36    35   ar
    37    37    36   ar
    38    38    37   ar
    39    39     3    1
    40    13    14    1
    41    19    20   ar
    42    21    22    1
    43    23    24    1
    44    25    26    1
    45    32    33   ar
    46    34    39   ar
    47    38    39   ar
    48    40    41    1
    49    42    40    2
    50    43    40    2
    51    44    40    2
@<TRIPOS>SUBSTRUCTURE
     1 RES1        1 GROUP             0 ****  ****    0  
     2 RES2       40 GROUP             0 ****  ****    0  
@<TRIPOS>CRYSIN
   14.5530   14.0790   16.9590   90.0000   94.9200   90.0000    14     1
