@<TRIPOS>MOLECULE
DADDIX
    79    84     1     0     0
SMALL
NO_CHARGES
****
Generated from the CSD

@<TRIPOS>ATOM
     1 C1      11.3667   1.4871   6.7283   C.ar      1 RES1   0.0000
     2 C2      12.1147   1.6907   7.9157   C.ar      1 RES1   0.0000
     3 C3      13.1558   2.5995   7.8776   C.ar      1 RES1   0.0000
     4 H1      13.6480   2.7299   8.6567   H         1 RES1   0.0000
     5 C4      13.5169   3.3346   6.7455   C.ar      1 RES1   0.0000
     6 C5      12.7883   3.1344   5.6102   C.ar      1 RES1   0.0000
     7 H2      13.0111   3.6105   4.8437   H         1 RES1   0.0000
     8 C6      11.7104   2.2302   5.5617   C.ar      1 RES1   0.0000
     9 C7      11.0388   2.0516   4.3058   C.2       1 RES1   0.0000
    10 H3      11.3768   2.5279   3.5823   H         1 RES1   0.0000
    11 C8       9.4492   1.2177   2.7361   C.3       1 RES1   0.0000
    12 H4       9.7030   0.3800   2.3174   H         1 RES1   0.0000
    13 H5       9.7701   1.9482   2.1844   H         1 RES1   0.0000
    14 C9       7.9443   1.2937   2.8813   C.3       1 RES1   0.0000
    15 H6       7.6853   2.1812   3.1747   H         1 RES1   0.0000
    16 H7       7.5203   1.1193   2.0261   H         1 RES1   0.0000
    17 C10      6.0619   0.4591   4.1773   C.3       1 RES1   0.0000
    18 H8       5.5566   0.3788   3.3532   H         1 RES1   0.0000
    19 H9       5.9193   1.3535   4.5254   H         1 RES1   0.0000
    20 C11      5.5292  -0.5485   5.1779   C.3       1 RES1   0.0000
    21 H10      5.7092  -1.4396   4.8387   H         1 RES1   0.0000
    22 H11      4.5652  -0.4466   5.2294   H         1 RES1   0.0000
    23 C12      6.0982  -0.4502   6.5943   C.3       1 RES1   0.0000
    24 H12      6.0147   0.4603   6.9187   H         1 RES1   0.0000
    25 H13      5.5979  -1.0298   7.1898   H         1 RES1   0.0000
    26 C13      7.8413  -1.9529   7.1686   C.2       1 RES1   0.0000
    27 H14      7.2219  -2.3247   7.7540   H         1 RES1   0.0000
    28 C14      9.0797  -2.6622   6.9936   C.ar      1 RES1   0.0000
    29 C15      9.3421  -3.7502   7.8349   C.ar      1 RES1   0.0000
    30 H15      8.7682  -3.9216   8.5456   H         1 RES1   0.0000
    31 C16     10.4220  -4.5685   7.6371   C.ar      1 RES1   0.0000
    32 C17     11.2641  -4.2698   6.5577   C.ar      1 RES1   0.0000
    33 H16     12.0120  -4.8078   6.4319   H         1 RES1   0.0000
    34 C18     11.0591  -3.2273   5.6638   C.ar      1 RES1   0.0000
    35 C19      9.9196  -2.4091   5.8741   C.ar      1 RES1   0.0000
    36 C20     11.7783   0.8817   9.1773   C.3       1 RES1   0.0000
    37 C21     10.3250   1.1549   9.6026   C.3       1 RES1   0.0000
    38 H17      9.7269   0.8025   8.9397   H         1 RES1   0.0000
    39 H18     10.1887   2.1020   9.6858   H         1 RES1   0.0000
    40 H19     10.1532   0.7324  10.4470   H         1 RES1   0.0000
    41 C22     11.9821  -0.6096   8.9188   C.3       1 RES1   0.0000
    42 H20     11.4124  -0.8897   8.1986   H         1 RES1   0.0000
    43 H21     11.7620  -1.1044   9.7110   H         1 RES1   0.0000
    44 H22     12.8984  -0.7715   8.6854   H         1 RES1   0.0000
    45 C23     12.6820   1.2869  10.3621   C.3       1 RES1   0.0000
    46 H23     12.4473   0.7680  11.1359   H         1 RES1   0.0000
    47 H24     12.5605   2.2191  10.5531   H         1 RES1   0.0000
    48 H25     13.5996   1.1227  10.1338   H         1 RES1   0.0000
    49 C24     14.6804   4.3061   6.7947   C.3       1 RES1   0.0000
    50 H26     15.0612   4.3039   7.6765   H         1 RES1   0.0000
    51 H27     14.3698   5.1890   6.5818   H         1 RES1   0.0000
    52 H28     15.3472   4.0387   6.1574   H         1 RES1   0.0000
    53 C25     12.0305  -2.9314   4.5133   C.3       1 RES1   0.0000
    54 C26     11.3136  -3.1065   3.1572   C.3       1 RES1   0.0000
    55 H29     11.0496  -4.0237   3.0501   H         1 RES1   0.0000
    56 H30     11.9094  -2.8608   2.4454   H         1 RES1   0.0000
    57 H31     10.5366  -2.5440   3.1309   H         1 RES1   0.0000
    58 C27     13.2427  -3.8779   4.5286   C.3       1 RES1   0.0000
    59 H32     13.6927  -3.8091   5.3742   H         1 RES1   0.0000
    60 H33     13.8471  -3.6346   3.8231   H         1 RES1   0.0000
    61 H34     12.9455  -4.7814   4.3974   H         1 RES1   0.0000
    62 C28     12.5605  -1.4970   4.6379   C.3       1 RES1   0.0000
    63 H35     11.8405  -0.8771   4.5002   H         1 RES1   0.0000
    64 H36     13.2411  -1.3489   3.9781   H         1 RES1   0.0000
    65 H37     12.9307  -1.3673   5.5140   H         1 RES1   0.0000
    66 C29     10.6797  -5.7756   8.5212   C.3       1 RES1   0.0000
    67 H38     11.4834  -6.2153   8.2357   H         1 RES1   0.0000
    68 H39      9.9399  -6.3852   8.4546   H         1 RES1   0.0000
    69 H40     10.7769  -5.4897   9.4331   H         1 RES1   0.0000
    70 C30      7.5860   2.9486   6.7517   C.1       1 RES1   0.0000
    71 N1      10.0259   1.3083   4.0769   N.2       1 RES1   0.0000
    72 N2       7.5062   0.2871   3.8757   N.3       1 RES1   0.0000
    73 H41      7.5856  -0.5235   3.4677   H         1 RES1   0.0000
    74 N3       7.5095  -0.8465   6.5891   N.2       1 RES1   0.0000
    75 N4       7.9961   2.0417   6.1850   N.2       1 RES1   0.0000
    76 O1      10.3874   0.6128   6.7150   O.3       1 RES1   0.0000
    77 O2       9.6079  -1.4528   5.0101   O.3       1 RES1   0.0000
    78 S1       6.9702   4.2251   7.5325   S.2       1 RES1   0.0000
    79 Fe1      8.9336   0.2783   5.5371   Fe        1 RES1   0.0000
@<TRIPOS>BOND
     1     1     2   ar
     2     2     3   ar
     3     3     4    1
     4     5     3   ar
     5     6     5   ar
     6     7     6    1
     7     8     1   ar
     8     9     8    1
     9    10     9    1
    10    11    12    1
    11    13    11    1
    12    14    11    1
    13    15    14    1
    14    16    14    1
    15    17    18    1
    16    19    17    1
    17    20    17    1
    18    21    20    1
    19    22    20    1
    20    23    20    1
    21    24    23    1
    22    25    23    1
    23    26    27    1
    24    28    26    1
    25    29    28   ar
    26    30    29    1
    27    31    29   ar
    28    32    31   ar
    29    33    32    1
    30    34    32   ar
    31    35    28   ar
    32    36     2    1
    33    37    36    1
    34    38    37    1
    35    39    37    1
    36    40    37    1
    37    41    36    1
    38    42    41    1
    39    43    41    1
    40    44    41    1
    41    45    36    1
    42    46    45    1
    43    47    45    1
    44    48    45    1
    45    49     5    1
    46    50    49    1
    47    51    49    1
    48    52    49    1
    49    53    34    1
    50    54    53    1
    51    55    54    1
    52    56    54    1
    53    57    54    1
    54    58    53    1
    55    59    58    1
    56    60    58    1
    57    61    58    1
    58    62    53    1
    59    63    62    1
    60    64    62    1
    61    65    62    1
    62    66    31    1
    63    67    66    1
    64    68    66    1
    65    69    66    1
    66    70    75    2
    67    71     9    2
    68    72    14    1
    69    73    72    1
    70    74    23    1
    71    75    79    1
    72    76     1    1
    73    77    35    1
    74    78    70    2
    75    79    71    1
    76     6     8   ar
    77    11    71    1
    78    17    72    1
    79    26    74    2
    80    34    35   ar
    81    72    79    1
    82    74    79    1
    83    76    79    1
    84    77    79    1
@<TRIPOS>SUBSTRUCTURE
     1 RES1        1 GROUP             0 ****  ****    0  
@<TRIPOS>CRYSIN
   16.0930   11.4800   17.2220   90.0000  102.0600   90.0000    14     1
