@<TRIPOS>MOLECULE
DAGJOO
   144   146     1     0     0
SMALL
NO_CHARGES
****
Generated from the CSD

@<TRIPOS>ATOM
     1 C1       1.9551   4.9201  16.5390   C.3       1 RES1   0.0000
     2 H1       1.6111   5.5447  15.8384   H         1 RES1   0.0000
     3 C2      13.5445   9.7827  16.8093   C.3       1 RES1   0.0000
     4 H2      13.2594  10.2603  15.9780   H         1 RES1   0.0000
     5 C3      13.1676  12.7924  17.5955   C.3       1 RES1   0.0000
     6 H3      12.8686  13.3471  18.3719   H         1 RES1   0.0000
     7 C4      14.5669  13.2798  17.2138   C.3       1 RES1   0.0000
     8 H4      15.1790  13.1398  17.9684   H         1 RES1   0.0000
     9 H5      14.5329  14.2336  16.9944   H         1 RES1   0.0000
    10 H6      14.8874  12.7770  16.4361   H         1 RES1   0.0000
    11 C5       1.4599   3.4887  16.1297   C.3       1 RES1   0.0000
    12 H7       1.8593   3.2366  15.2710   H         1 RES1   0.0000
    13 H8       0.4835   3.4929  16.0478   H         1 RES1   0.0000
    14 H9       1.7271   2.8431  16.8185   H         1 RES1   0.0000
    15 C6      12.7285   8.5292  16.8518   C.3       1 RES1   0.0000
    16 H10     11.7819   8.7589  16.9671   H         1 RES1   0.0000
    17 H11     13.0217   7.9732  17.6043   H         1 RES1   0.0000
    18 H12     12.8452   8.0348  16.0144   H         1 RES1   0.0000
    19 C7      12.1552  12.9857  16.5090   C.3       1 RES1   0.0000
    20 H13     11.2814  12.6664  16.8154   H         1 RES1   0.0000
    21 H14     12.4270  12.4787  15.7170   H         1 RES1   0.0000
    22 H15     12.0948  13.9367  16.2844   H         1 RES1   0.0000
    23 C8      15.0396   9.4690  16.6149   C.3       1 RES1   0.0000
    24 H16     15.5459  10.3065  16.5757   H         1 RES1   0.0000
    25 H17     15.1628   8.9718  15.7808   H         1 RES1   0.0000
    26 H18     15.3595   8.9284  17.3676   H         1 RES1   0.0000
    27 C9       1.3848   5.3794  17.8137   C.3       1 RES1   0.0000
    28 H19      1.7094   6.2828  18.0109   H         1 RES1   0.0000
    29 H20      1.6584   4.7702  18.5328   H         1 RES1   0.0000
    30 H21      0.4074   5.3892  17.7499   H         1 RES1   0.0000
    31 Si1      3.8580   4.9849  16.4201   Si        1 RES1   0.0000
    32 Si2     13.2228  10.9652  18.2002   Si        1 RES1   0.0000
    33 S1       5.2709  12.6333  19.4697   S.o2      1 RES1   0.0000
    34 O1       5.8421  11.3156  19.6988   O.3       1 RES1   0.0000
    35 O2       6.1523  13.7209  19.7628   O.2       1 RES1   0.0000
    36 O3       3.9228  12.7226  19.9370   O.2       1 RES1   0.0000
    37 F1       6.3644  12.6079  17.1085   F         1 RES1   0.0000
    38 F2       4.4488  11.6149  17.2059   F         1 RES1   0.0000
    39 F3       4.5656  13.7676  17.2435   F         1 RES1   0.0000
    40 C10      5.1556  12.6538  17.6519   C.3       1 RES1   0.0000
    41 C11     13.9631  11.8387  20.7608   C.3       1 RES1   0.0000
    42 H22     13.9982  12.7350  20.3654   H         1 RES1   0.0000
    43 H23     14.5983  11.7855  21.5063   H         1 RES1   0.0000
    44 H24     13.0574  11.6622  21.0906   H         1 RES1   0.0000
    45 C12     14.3035   9.3793  20.2668   C.3       1 RES1   0.0000
    46 H25     14.5480   8.7407  19.5644   H         1 RES1   0.0000
    47 H26     13.4007   9.1791  20.5930   H         1 RES1   0.0000
    48 H27     14.9415   9.3121  21.0087   H         1 RES1   0.0000
    49 C13     14.3343  10.7967  19.6970   C.3       1 RES1   0.0000
    50 H28     15.2716  10.9844  19.4005   H         1 RES1   0.0000
    51 Fe1      6.4774  10.0999  21.2265   Fe        1 RES1   0.0000
    52 S2       7.9098  12.4307  23.4967   S.o2      1 RES1   0.0000
    53 Si3      0.5407  10.1723  25.7432   Si        1 RES1   0.0000
    54 O4       7.1482  11.7769  22.4441   O.3       1 RES1   0.0000
    55 N1       7.2770   8.4710  22.4629   N.3       1 RES1   0.0000
    56 N2       4.9022   9.9243  22.6517   N.2       1 RES1   0.0000
    57 O5       7.2873  13.6146  23.9982   O.2       1 RES1   0.0000
    58 O6       8.4601  11.5306  24.4612   O.2       1 RES1   0.0000
    59 N3       5.8312   8.4103  20.0693   N.2       1 RES1   0.0000
    60 N4       8.4919   9.9830  20.5007   N.2       1 RES1   0.0000
    61 C14      1.8921  10.3079  24.4837   C.1       1 RES1   0.0000
    62 C15     11.4926  10.7141  18.7931   C.1       1 RES1   0.0000
    63 C16      4.3904   6.3472  17.5621   C.1       1 RES1   0.0000
    64 F4      10.1267  13.7798  23.4378   F         1 RES1   0.0000
    65 F5       9.0411  13.7924  21.5876   F         1 RES1   0.0000
    66 C17      3.8076  10.5810  22.6862   C.2       1 RES1   0.0000
    67 H29      3.6588  11.2224  22.0039   H         1 RES1   0.0000
    68 C18      2.7862  10.4199  23.6802   C.1       1 RES1   0.0000
    69 C19      5.1579   8.8934  23.6651   C.3       1 RES1   0.0000
    70 H30      4.7165   8.0474  23.4026   H         1 RES1   0.0000
    71 H31      4.7833   9.1805  24.5344   H         1 RES1   0.0000
    72 C20      6.9047   7.1511  21.8798   C.3       1 RES1   0.0000
    73 H32      6.1038   6.8066  22.3498   H         1 RES1   0.0000
    74 H33      7.6451   6.5111  22.0342   H         1 RES1   0.0000
    75 C21      4.9577   8.3808  19.1287   C.2       1 RES1   0.0000
    76 H34      4.4658   9.1763  18.9666   H         1 RES1   0.0000
    77 C22      8.7428   8.6763  22.5309   C.3       1 RES1   0.0000
    78 H35      9.1719   7.8640  22.9020   H         1 RES1   0.0000
    79 H36      8.9408   9.4312  23.1386   H         1 RES1   0.0000
    80 C23      8.9995  10.7477  19.6090   C.2       1 RES1   0.0000
    81 H37      8.4318  11.3947  19.2094   H         1 RES1   0.0000
    82 C24     10.3576  10.6986  19.1727   C.1       1 RES1   0.0000
    83 C25      4.6628   7.2519  18.3052   C.1       1 RES1   0.0000
    84 C26      9.3223   8.9718  21.1561   C.3       1 RES1   0.0000
    85 H38     10.2503   9.3037  21.2453   H         1 RES1   0.0000
    86 H39      9.3385   8.1441  20.6112   H         1 RES1   0.0000
    87 C27      6.6559   8.6707  23.7983   C.3       1 RES1   0.0000
    88 H40      7.0680   9.4536  24.2401   H         1 RES1   0.0000
    89 H41      6.8227   7.8752  24.3645   H         1 RES1   0.0000
    90 F6      10.1282  12.0413  22.1865   F         1 RES1   0.0000
    91 C28     -0.0630  11.9255  26.0405   C.3       1 RES1   0.0000
    92 H42     -0.8587  11.8667  26.6431   H         1 RES1   0.0000
    93 C29      1.8871   8.0643  27.1064   C.3       1 RES1   0.0000
    94 H43      2.4578   8.0334  26.3124   H         1 RES1   0.0000
    95 H44      1.1364   7.4452  26.9951   H         1 RES1   0.0000
    96 H45      2.4094   7.8066  27.8932   H         1 RES1   0.0000
    97 C30      0.9899  12.7658  26.7569   C.3       1 RES1   0.0000
    98 H46      1.2718  12.3079  27.5746   H         1 RES1   0.0000
    99 H47      0.6085  13.6398  26.9860   H         1 RES1   0.0000
   100 H48      1.7634  12.8919  26.1698   H         1 RES1   0.0000
   101 C31      3.9728   4.5419  13.6186   C.3       1 RES1   0.0000
   102 H49      4.3208   3.6568  13.8541   H         1 RES1   0.0000
   103 H50      4.3572   4.8262  12.7648   H         1 RES1   0.0000
   104 H51      2.9963   4.4985  13.5385   H         1 RES1   0.0000
   105 C32      0.4555   9.5656  28.5234   C.3       1 RES1   0.0000
   106 H52      0.1299  10.4830  28.6275   H         1 RES1   0.0000
   107 H53      0.9680   9.3079  29.3193   H         1 RES1   0.0000
   108 H54     -0.3060   8.9592  28.4151   H         1 RES1   0.0000
   109 C33      3.8070   6.9382  14.3462   C.3       1 RES1   0.0000
   110 H55      4.0550   7.5783  15.0465   H         1 RES1   0.0000
   111 H56      2.8302   6.8976  14.2728   H         1 RES1   0.0000
   112 H57      4.1876   7.2253  13.4900   H         1 RES1   0.0000
   113 C34      4.7398   3.4299  16.9198   C.3       1 RES1   0.0000
   114 H58      4.3630   2.6890  16.3633   H         1 RES1   0.0000
   115 C35     -0.5086  12.6328  24.7771   C.3       1 RES1   0.0000
   116 H59     -1.1855  12.0908  24.3220   H         1 RES1   0.0000
   117 H60      0.2625  12.7588  24.1854   H         1 RES1   0.0000
   118 H61     -0.8888  13.5053  25.0077   H         1 RES1   0.0000
   119 C36      6.2266   3.4943  16.6273   C.3       1 RES1   0.0000
   120 H62      6.3648   3.7226  15.6837   H         1 RES1   0.0000
   121 H63      6.6343   2.6246  16.8185   H         1 RES1   0.0000
   122 H64      6.6415   4.1792  17.1947   H         1 RES1   0.0000
   123 C37      4.4755   3.0700  18.3917   C.3       1 RES1   0.0000
   124 H65      3.5080   3.0293  18.5510   H         1 RES1   0.0000
   125 H66      4.8724   3.7520  18.9727   H         1 RES1   0.0000
   126 H67      4.8762   2.1974  18.5904   H         1 RES1   0.0000
   127 C38      6.6117   7.2183  20.3733   C.3       1 RES1   0.0000
   128 H68      7.4624   7.2407  19.8678   H         1 RES1   0.0000
   129 H69      6.1084   6.4116  20.0954   H         1 RES1   0.0000
   130 C39     -0.7974   9.0278  25.0717   C.3       1 RES1   0.0000
   131 H70     -0.4919   8.0937  25.2535   H         1 RES1   0.0000
   132 C40      1.3531   9.4816  27.2927   C.3       1 RES1   0.0000
   133 H71      2.1466  10.0614  27.4806   H         1 RES1   0.0000
   134 C41      4.3513   5.5475  14.7085   C.3       1 RES1   0.0000
   135 H72      5.3495   5.6175  14.7036   H         1 RES1   0.0000
   136 C42      9.3638  13.0543  22.6237   C.3       1 RES1   0.0000
   137 C43     -1.0032   9.1357  23.5583   C.3       1 RES1   0.0000
   138 H73     -0.1444   9.0166  23.1022   H         1 RES1   0.0000
   139 H74     -1.3695  10.0180  23.3389   H         1 RES1   0.0000
   140 H75     -1.6284   8.4410  23.2630   H         1 RES1   0.0000
   141 C44     -2.1345   9.1987  25.7975   C.3       1 RES1   0.0000
   142 H76     -1.9924   9.1231  26.7645   H         1 RES1   0.0000
   143 H77     -2.7569   8.5026  25.5023   H         1 RES1   0.0000
   144 H78     -2.5080  10.0810  25.5903   H         1 RES1   0.0000
@<TRIPOS>BOND
     1     1     2    1
     2     3     4    1
     3     5     6    1
     4     7     5    1
     5     8     7    1
     6     9     7    1
     7    10     7    1
     8    11     1    1
     9    12    11    1
    10    13    11    1
    11    14    11    1
    12    15     3    1
    13    16    15    1
    14    17    15    1
    15    18    15    1
    16    19     5    1
    17    20    19    1
    18    21    19    1
    19    22    19    1
    20    23     3    1
    21    24    23    1
    22    25    23    1
    23    26    23    1
    24    27     1    1
    25    28    27    1
    26    29    27    1
    27    30    27    1
    28    31     1    1
    29    32     3    1
    30    33    34    1
    31    34    51    1
    32    35    33    2
    33    36    33    2
    34    37    40    1
    35    38    40    1
    36    39    40    1
    37    40    33    1
    38    41    42    1
    39    43    41    1
    40    44    41    1
    41    45    46    1
    42    47    45    1
    43    48    45    1
    44    49    32    1
    45    50    49    1
    46    51    54    1
    47    52    54    1
    48    53    61    1
    49    55    51    1
    50    56    51    1
    51    57    52    2
    52    58    52    2
    53    59    51    1
    54    60    51    1
    55    61    68    3
    56    62    32    1
    57    63    31    1
    58    64   136    1
    59    65   136    1
    60    66    56    2
    61    67    66    1
    62    68    66    1
    63    69    56    1
    64    70    69    1
    65    71    69    1
    66    72    55    1
    67    73    72    1
    68    74    72    1
    69    75    59    2
    70    76    75    1
    71    77    55    1
    72    78    77    1
    73    79    77    1
    74    80    60    2
    75    81    80    1
    76    82    62    3
    77    83    63    3
    78    84    60    1
    79    85    84    1
    80    86    84    1
    81    87    55    1
    82    88    87    1
    83    89    87    1
    84    90   136    1
    85    91    53    1
    86    92    91    1
    87    93    94    1
    88    95    93    1
    89    96    93    1
    90    97    91    1
    91    98    97    1
    92    99    97    1
    93   100    97    1
    94   101   102    1
    95   103   101    1
    96   104   101    1
    97   105   106    1
    98   107   105    1
    99   108   105    1
   100   109   110    1
   101   111   109    1
   102   112   109    1
   103   113    31    1
   104   114   113    1
   105   115    91    1
   106   116   115    1
   107   117   115    1
   108   118   115    1
   109   119   113    1
   110   120   119    1
   111   121   119    1
   112   122   119    1
   113   123   113    1
   114   124   123    1
   115   125   123    1
   116   126   123    1
   117   127    59    1
   118   128   127    1
   119   129   127    1
   120   130    53    1
   121   131   130    1
   122   132    53    1
   123   133   132    1
   124   134    31    1
   125   135   134    1
   126   136    52    1
   127   137   130    1
   128   138   137    1
   129   139   137    1
   130   140   137    1
   131   141   130    1
   132   142   141    1
   133   143   141    1
   134   144   141    1
   135     5    32    1
   136    41    49    1
   137    45    49    1
   138    69    87    1
   139    72   127    1
   140    75    83    1
   141    77    84    1
   142    80    82    1
   143    93   132    1
   144   101   134    1
   145   105   132    1
   146   109   134    1
@<TRIPOS>SUBSTRUCTURE
     1 RES1        1 GROUP             0 ****  ****    0  
@<TRIPOS>CRYSIN
   13.3419   14.0053   30.3824   90.0000   92.9630   90.0000    14     1
