@<TRIPOS>MOLECULE
DAGLOQ
    81    84     1     0     0
SMALL
NO_CHARGES
****
Generated from the CSD

@<TRIPOS>ATOM
     1 C1       7.4555   1.3648   9.4547   C.ar      1 RES1   0.0000
     2 C2       7.2995   1.5350   8.0656   C.ar      1 RES1   0.0000
     3 C3       6.3872   0.7516   7.3512   C.ar      1 RES1   0.0000
     4 C4       5.6227  -0.1787   8.0428   C.ar      1 RES1   0.0000
     5 H1       4.9666  -0.6765   7.5687   H         1 RES1   0.0000
     6 C5       5.7829  -0.4068   9.3960   C.ar      1 RES1   0.0000
     7 C6       6.7295   0.3377  10.1029   C.ar      1 RES1   0.0000
     8 C7       8.1218   2.5582   7.3223   C.3       1 RES1   0.0000
     9 H2       8.6015   2.1206   6.5884   H         1 RES1   0.0000
    10 H3       8.7664   2.9676   7.9362   H         1 RES1   0.0000
    11 H4       7.5309   3.2508   6.9592   H         1 RES1   0.0000
    12 C8       6.2197   0.9055   5.8653   C.3       1 RES1   0.0000
    13 H5       5.4437   0.3861   5.5682   H         1 RES1   0.0000
    14 H6       7.0244   0.5789   5.4105   H         1 RES1   0.0000
    15 H7       6.0829   1.8511   5.6481   H         1 RES1   0.0000
    16 C9       4.9443  -1.4624  10.0863   C.3       1 RES1   0.0000
    17 H8       4.4909  -1.0656  10.8589   H         1 RES1   0.0000
    18 H9       5.5228  -2.1939  10.3865   H         1 RES1   0.0000
    19 H10      4.2766  -1.8104   9.4587   H         1 RES1   0.0000
    20 C10      7.0219  -0.0182  11.5322   C.3       1 RES1   0.0000
    21 H11      7.1622  -0.9855  11.6056   H         1 RES1   0.0000
    22 H12      6.2646   0.2454  12.0958   H         1 RES1   0.0000
    23 H13      7.8286   0.4524  11.8279   H         1 RES1   0.0000
    24 C11     10.8840   1.7380  10.2083   C.3       1 RES1   0.0000
    25 H14     11.4549   1.6298  11.0220   H         1 RES1   0.0000
    26 C12     11.6765   2.5430   9.1836   C.3       1 RES1   0.0000
    27 H15     11.1136   2.7060   8.3858   H         1 RES1   0.0000
    28 H16     11.9208   3.4201   9.5713   H         1 RES1   0.0000
    29 C13     12.9403   1.8016   8.7692   C.3       1 RES1   0.0000
    30 H17     13.4077   2.3181   8.0656   H         1 RES1   0.0000
    31 H18     13.5471   1.7267   9.5477   H         1 RES1   0.0000
    32 C14     12.6187   0.4109   8.2443   C.3       1 RES1   0.0000
    33 H19     12.0899   0.4867   7.4105   H         1 RES1   0.0000
    34 H20     13.4600  -0.0650   8.0318   H         1 RES1   0.0000
    35 C15     11.8307  -0.3877   9.2722   C.3       1 RES1   0.0000
    36 H21     12.3940  -0.5389  10.0722   H         1 RES1   0.0000
    37 H22     11.5948  -1.2705   8.8922   H         1 RES1   0.0000
    38 C16     10.5534   0.3474   9.6825   C.3       1 RES1   0.0000
    39 H23      9.9491   0.4231   8.9016   H         1 RES1   0.0000
    40 H24     10.0843  -0.1700  10.3846   H         1 RES1   0.0000
    41 C17     10.8675   5.1006  12.9016   C.3       1 RES1   0.0000
    42 H25     10.2230   5.7894  12.5700   H         1 RES1   0.0000
    43 C18     10.4724   4.7022  14.3212   C.3       1 RES1   0.0000
    44 H26     11.0469   3.9538  14.6225   H         1 RES1   0.0000
    45 H27      9.5344   4.3856  14.3225   H         1 RES1   0.0000
    46 C19     10.6122   5.8697  15.2954   C.3       1 RES1   0.0000
    47 H28      9.9767   6.5868  15.0473   H         1 RES1   0.0000
    48 H29     10.3920   5.5659  16.2114   H         1 RES1   0.0000
    49 C20     12.0365   6.4174  15.2676   C.3       1 RES1   0.0000
    50 H30     12.1065   7.1896  15.8835   H         1 RES1   0.0000
    51 H31     12.6662   5.7192  15.5776   H         1 RES1   0.0000
    52 C21     12.4130   6.8529  13.8638   C.3       1 RES1   0.0000
    53 H32     13.3486   7.1775  13.8586   H         1 RES1   0.0000
    54 H33     11.8278   7.5997  13.5816   H         1 RES1   0.0000
    55 C22     12.2704   5.6942  12.8802   C.3       1 RES1   0.0000
    56 H34     12.4756   6.0156  11.9663   H         1 RES1   0.0000
    57 H35     12.9271   4.9894  13.1093   H         1 RES1   0.0000
    58 C23      8.2126   4.9550   9.8698   C.1       1 RES1   0.0000
    59 C24      7.5907   2.9939  12.7383   C.1       1 RES1   0.0000
    60 C25      7.7245   5.6166  12.4505   C.1       1 RES1   0.0000
    61 O1       8.4947   5.4726   8.8827   O.2       1 RES1   0.0000
    62 O2       7.5212   2.2832  13.6338   O.2       1 RES1   0.0000
    63 O3       7.6327   6.5334  13.1390   O.2       1 RES1   0.0000
    64 C26      9.7383   3.6087  11.4655   C.2       1 RES1   0.0000
    65 B1       8.3032   2.3824  10.3038   B         1 RES1   0.0000
    66 N1       9.6644   2.4723  10.6050   N.pl3     1 RES1   0.0000
    67 N2      10.8270   3.9470  12.0027   N.2       1 RES1   0.0000
    68 Fe1      7.7791   4.1563  11.4002   Fe        1 RES1   0.0000
    69 C27      5.1729   4.1556   9.1440   C.3       1 RES1   0.0000
    70 H36      4.2012   4.2254   9.0413   H         1 RES1   0.0000
    71 H37      5.4801   3.2994   8.7800   H         1 RES1   0.0000
    72 H38      5.6061   4.8903   8.6604   H         1 RES1   0.0000
    73 C28      4.5349   2.9837  11.6242   C.3       1 RES1   0.0000
    74 H39      3.6011   3.1741  11.3952   H         1 RES1   0.0000
    75 H40      4.6383   2.9826  12.5987   H         1 RES1   0.0000
    76 H41      4.7855   2.1054  11.2684   H         1 RES1   0.0000
    77 C29      4.7816   5.7997  11.4085   C.3       1 RES1   0.0000
    78 H42      3.8454   5.7806  11.1184   H         1 RES1   0.0000
    79 H43      5.2365   6.5620  10.9943   H         1 RES1   0.0000
    80 H44      4.8193   5.8866  12.3838   H         1 RES1   0.0000
    81 P1       5.6041   4.2543  10.9046   P.3       1 RES1   0.0000
@<TRIPOS>BOND
     1     1     2   ar
     2     2     3   ar
     3     3     4   ar
     4     4     5    1
     5     6     4   ar
     6     7     1   ar
     7     8     2    1
     8     9     8    1
     9    10     8    1
    10    11     8    1
    11    12     3    1
    12    13    12    1
    13    14    12    1
    14    15    12    1
    15    16     6    1
    16    17    16    1
    17    18    16    1
    18    19    16    1
    19    20     7    1
    20    21    20    1
    21    22    20    1
    22    23    20    1
    23    24    25    1
    24    26    24    1
    25    27    26    1
    26    28    26    1
    27    29    26    1
    28    30    29    1
    29    31    29    1
    30    32    29    1
    31    33    32    1
    32    34    32    1
    33    35    32    1
    34    36    35    1
    35    37    35    1
    36    38    24    1
    37    39    38    1
    38    40    38    1
    39    41    42    1
    40    43    41    1
    41    44    43    1
    42    45    43    1
    43    46    43    1
    44    47    46    1
    45    48    46    1
    46    49    46    1
    47    50    49    1
    48    51    49    1
    49    52    49    1
    50    53    52    1
    51    54    52    1
    52    55    41    1
    53    56    55    1
    54    57    55    1
    55    58    61    3
    56    59    62    3
    57    60    63    3
    58    64    66    1
    59    65     1    1
    60    66    24    1
    61    67    41    1
    62    68    58    1
    63    69    70    1
    64    71    69    1
    65    72    69    1
    66    73    74    1
    67    75    73    1
    68    76    73    1
    69    77    78    1
    70    79    77    1
    71    80    77    1
    72    81    68    1
    73     6     7   ar
    74    35    38    1
    75    52    55    1
    76    59    68    1
    77    60    68    1
    78    64    67    2
    79    64    68    1
    80    65    66    1
    81    65    68    1
    82    69    81    1
    83    73    81    1
    84    77    81    1
@<TRIPOS>SUBSTRUCTURE
     1 RES1        1 GROUP             0 ****  ****    0  
@<TRIPOS>CRYSIN
   10.8300   10.9882   14.8750   89.1020   75.1340   62.2000     2     1
