@<TRIPOS>MOLECULE
DAGMEH
    82    83     1     0     0
SMALL
NO_CHARGES
****
Generated from the CSD

@<TRIPOS>ATOM
     1 C1       6.8925   4.9638   0.9780   C.3       1 RES1   0.0000
     2 H1       6.3497   5.0355   0.1654   H         1 RES1   0.0000
     3 H2       7.2563   4.0565   1.0489   H         1 RES1   0.0000
     4 H3       7.6294   5.6087   0.9366   H         1 RES1   0.0000
     5 C2       6.0311   5.2585   2.1889   C.3       1 RES1   0.0000
     6 H4       5.2648   4.6161   2.1986   H         1 RES1   0.0000
     7 C3       6.7840   5.1354   3.5056   C.3       1 RES1   0.0000
     8 H5       6.1833   5.3584   4.2472   H         1 RES1   0.0000
     9 H6       7.5455   5.7520   3.5053   H         1 RES1   0.0000
    10 H7       7.1073   4.2165   3.6122   H         1 RES1   0.0000
    11 C4       5.1072   7.6851   2.0985   C.1       1 RES1   0.0000
    12 N1       5.5057   6.6003   2.0792   N.1       1 RES1   0.0000
    13 C5       0.6200   9.9788   4.0400   C.3       1 RES1   0.0000
    14 H8       0.6153  10.7575   4.6673   H         1 RES1   0.0000
    15 C6       0.0758   8.7751   4.7853   C.3       1 RES1   0.0000
    16 H9       0.6554   8.5751   5.5499   H         1 RES1   0.0000
    17 H10      0.0512   8.0021   4.1833   H         1 RES1   0.0000
    18 H11     -0.8299   8.9702   5.1040   H         1 RES1   0.0000
    19 C7      -0.2325  10.3430   2.8341   C.3       1 RES1   0.0000
    20 H12      0.1672  11.1080   2.3702   H         1 RES1   0.0000
    21 H13     -1.1365  10.5775   3.1318   H         1 RES1   0.0000
    22 H14     -0.2783   9.5780   2.2231   H         1 RES1   0.0000
    23 C8       2.7233   7.1232   3.9499   C.ar      1 RES1   0.0000
    24 C9       3.3055   6.7886   5.1910   C.ar      1 RES1   0.0000
    25 C10      3.4322   5.4444   5.5717   C.ar      1 RES1   0.0000
    26 C11      2.9188   4.4612   4.7413   C.ar      1 RES1   0.0000
    27 H15      3.0001   3.5517   5.0036   H         1 RES1   0.0000
    28 C12      2.2889   4.7583   3.5381   C.ar      1 RES1   0.0000
    29 C13      2.2160   6.0958   3.1252   C.ar      1 RES1   0.0000
    30 C14      3.8172   7.8646   6.1211   C.3       1 RES1   0.0000
    31 H16      3.4463   7.7246   7.0175   H         1 RES1   0.0000
    32 H17      3.5405   8.7435   5.7870   H         1 RES1   0.0000
    33 H18      4.7951   7.8234   6.1618   H         1 RES1   0.0000
    34 C15      4.1164   5.0655   6.8680   C.3       1 RES1   0.0000
    35 H19      4.2411   4.0940   6.8999   H         1 RES1   0.0000
    36 H20      3.5626   5.3489   7.6250   H         1 RES1   0.0000
    37 H21      4.9894   5.5085   6.9181   H         1 RES1   0.0000
    38 C16      1.7231   3.6253   2.7067   C.3       1 RES1   0.0000
    39 H22      0.7733   3.7921   2.5306   H         1 RES1   0.0000
    40 H23      1.8212   2.7812   3.1948   H         1 RES1   0.0000
    41 H24      2.2079   3.5697   1.8570   H         1 RES1   0.0000
    42 C17      1.6219   6.4467   1.7802   C.3       1 RES1   0.0000
    43 H25      0.9571   5.7715   1.5305   H         1 RES1   0.0000
    44 H26      2.3324   6.4708   1.1057   H         1 RES1   0.0000
    45 H27      1.1913   7.3255   1.8327   H         1 RES1   0.0000
    46 B1       2.8169   8.6116   3.4302   B         1 RES1   0.0000
    47 B2       2.9473  10.7446   3.0745   B         1 RES1   0.0000
    48 N2       2.0134   9.7648   3.5886   N.3       1 RES1   0.0000
    49 N3       2.9302  12.1623   3.2616   N.3       1 RES1   0.0000
    50 Fe1      4.3800   9.4148   2.2239   Fe        1 RES1   0.0000
    51 C18      2.7173  11.6313   6.2172   C.3       1 RES1   0.0000
    52 H28      2.4909  12.0567   7.0705   H         1 RES1   0.0000
    53 H29      3.6438  11.3137   6.2460   H         1 RES1   0.0000
    54 H30      2.1165  10.8729   6.0608   H         1 RES1   0.0000
    55 C19      0.8128  13.6304   4.8298   C.3       1 RES1   0.0000
    56 H31      0.5896  13.9389   5.7328   H         1 RES1   0.0000
    57 H32      0.1587  12.9592   4.5430   H         1 RES1   0.0000
    58 H33      0.7938  14.3901   4.2110   H         1 RES1   0.0000
    59 C20      3.7504  14.2037   5.3033   C.3       1 RES1   0.0000
    60 H34      3.5408  14.5390   6.1999   H         1 RES1   0.0000
    61 H35      3.6952  14.9393   4.6582   H         1 RES1   0.0000
    62 H36      4.6572  13.8317   5.2975   H         1 RES1   0.0000
    63 C21      3.2660  12.5832   0.2904   C.3       1 RES1   0.0000
    64 H37      3.3467  13.3156  -0.3558   H         1 RES1   0.0000
    65 H38      2.3638  12.2030   0.2418   H         1 RES1   0.0000
    66 H39      3.9248  11.8888   0.0814   H         1 RES1   0.0000
    67 C22      2.6083  14.8450   2.0435   C.3       1 RES1   0.0000
    68 H40      2.8848  15.4069   1.2896   H         1 RES1   0.0000
    69 H41      2.7868  15.3158   2.8844   H         1 RES1   0.0000
    70 H42      1.6501  14.6527   1.9736   H         1 RES1   0.0000
    71 C23      5.3933  13.5799   2.2718   C.3       1 RES1   0.0000
    72 H43      5.7890  13.8980   1.4336   H         1 RES1   0.0000
    73 H44      5.8444  12.7571   2.5545   H         1 RES1   0.0000
    74 H45      5.4999  14.2653   2.9641   H         1 RES1   0.0000
    75 Si1      2.5271  12.8704   4.8347   Si        1 RES1   0.0000
    76 Si2      3.5738  13.2352   2.0108   Si        1 RES1   0.0000
    77 C24      3.0796   9.3620   1.0096   C.1       1 RES1   0.0000
    78 C25      5.1227   9.9330   3.7414   C.1       1 RES1   0.0000
    79 C26      5.5759  10.2533   1.1728   C.1       1 RES1   0.0000
    80 O1       2.2158   9.3591   0.2426   O.2       1 RES1   0.0000
    81 O2       5.6041  10.3373   4.7086   O.2       1 RES1   0.0000
    82 O3       6.3466  10.7727   0.5013   O.2       1 RES1   0.0000
@<TRIPOS>BOND
     1     1     2    1
     2     3     1    1
     3     4     1    1
     4     5     1    1
     5     6     5    1
     6     7     5    1
     7     8     7    1
     8     9     7    1
     9    10     7    1
    10    11    12    3
    11    12     5    1
    12    13    14    1
    13    15    13    1
    14    16    15    1
    15    17    15    1
    16    18    15    1
    17    19    13    1
    18    20    19    1
    19    21    19    1
    20    22    19    1
    21    23    24   ar
    22    24    25   ar
    23    25    26   ar
    24    26    27    1
    25    28    26   ar
    26    29    23   ar
    27    30    24    1
    28    31    30    1
    29    32    30    1
    30    33    30    1
    31    34    25    1
    32    35    34    1
    33    36    34    1
    34    37    34    1
    35    38    28    1
    36    39    38    1
    37    40    38    1
    38    41    38    1
    39    42    29    1
    40    43    42    1
    41    44    42    1
    42    45    42    1
    43    46    23    1
    44    47    48    1
    45    48    13    1
    46    49    47    1
    47    50    11    1
    48    51    52    1
    49    53    51    1
    50    54    51    1
    51    55    56    1
    52    57    55    1
    53    58    55    1
    54    59    60    1
    55    61    59    1
    56    62    59    1
    57    63    64    1
    58    65    63    1
    59    66    63    1
    60    67    68    1
    61    69    67    1
    62    70    67    1
    63    71    72    1
    64    73    71    1
    65    74    71    1
    66    75    49    1
    67    76    49    1
    68    77    50    1
    69    78    50    1
    70    79    50    1
    71    80    77    3
    72    81    78    3
    73    82    79    3
    74    28    29   ar
    75    46    48    1
    76    46    50    1
    77    47    50    1
    78    51    75    1
    79    55    75    1
    80    59    75    1
    81    63    76    1
    82    67    76    1
    83    71    76    1
@<TRIPOS>SUBSTRUCTURE
     1 RES1        1 GROUP             0 ****  ****    0  
@<TRIPOS>CRYSIN
    8.9731   13.5974   13.8948   98.8290   98.4410  102.7760     2     1
