@<TRIPOS>MOLECULE
DAJHED
   119   123     5     0     0
SMALL
USER_CHARGES
****
Generated from the CSD

@<TRIPOS>ATOM
     1 Fe1      4.5382  -0.4468  -0.7883   Fe        1 RES1   2.0000
     2 C1       4.4086   1.6137   1.3615   C.ar      1 RES1   0.0000
     3 H1       3.4719   1.6400   1.2074   H         1 RES1   0.0000
     4 N1       5.1660   0.7513   0.6547   N.ar      1 RES1   0.0000
     5 O1       8.5289  -0.5630  -2.8192   O.3       1 RES1   0.0000
     6 C2       4.9600   2.4648   2.3066   C.ar      1 RES1   0.0000
     7 H2       4.4033   3.0673   2.7851   H         1 RES1   0.0000
     8 N2       6.4562  -0.9132  -0.7889   N.2       1 RES1   0.0000
     9 C3       6.3445   2.4346   2.5589   C.ar      1 RES1   0.0000
    10 H3       6.7392   3.0070   3.2036   H         1 RES1   0.0000
    11 C4       7.1152   1.5327   1.8220   C.ar      1 RES1   0.0000
    12 H4       8.0546   1.4819   1.9522   H         1 RES1   0.0000
    13 C5       6.4814   0.7004   0.8890   C.ar      1 RES1   0.0000
    14 C6       7.1644  -0.2787   0.0440   C.2       1 RES1   0.0000
    15 H5       8.0998  -0.4312   0.1181   H         1 RES1   0.0000
    16 C7       7.0713  -1.9884  -1.6098   C.3       1 RES1   0.0000
    17 H6       6.5199  -2.0769  -2.4387   H         1 RES1   0.0000
    18 C8       8.5170  -1.7436  -2.0523   C.3       1 RES1   0.0000
    19 H7       9.1056  -1.6457  -1.2634   H         1 RES1   0.0000
    20 H8       8.8425  -2.5062  -2.5949   H         1 RES1   0.0000
    21 C9       9.8085  -0.3144  -3.4319   C.3       1 RES1   0.0000
    22 H9       9.7367   0.4538  -4.0365   H         1 RES1   0.0000
    23 H10     10.0862  -1.1053  -3.9384   H         1 RES1   0.0000
    24 H11     10.4715  -0.1224  -2.7351   H         1 RES1   0.0000
    25 C10      6.9983  -3.3290  -0.8730   C.ar      1 RES1   0.0000
    26 C11      7.1923  -3.4552   0.4926   C.ar      1 RES1   0.0000
    27 H12      7.4035  -2.6869   1.0091   H         1 RES1   0.0000
    28 C12      7.0793  -4.7092   1.1293   C.ar      1 RES1   0.0000
    29 H13      7.2228  -4.7845   2.0643   H         1 RES1   0.0000
    30 C13      6.7591  -5.8277   0.3824   C.ar      1 RES1   0.0000
    31 H14      6.6674  -6.6712   0.8069   H         1 RES1   0.0000
    32 C14      6.5757  -5.7147  -0.9751   C.ar      1 RES1   0.0000
    33 H15      6.3671  -6.4886  -1.4837   H         1 RES1   0.0000
    34 C15      6.6887  -4.4927  -1.6118   C.ar      1 RES1   0.0000
    35 H16      6.5585  -4.4362  -2.5509   H         1 RES1   0.0000
    36 O2       5.4078  -3.2179  -4.3769   O.3       1 RES1   0.0000
    37 N3       4.2000  -1.9564   0.4185   N.ar      1 RES1   0.0000
    38 N4       4.0299  -1.8057  -2.1364   N.2       1 RES1   0.0000
    39 C16      4.2930  -1.9827   1.7520   C.ar      1 RES1   0.0000
    40 H17      4.5003  -1.1749   2.2105   H         1 RES1   0.0000
    41 C17      4.1004  -3.1464   2.4988   C.ar      1 RES1   0.0000
    42 H18      4.1854  -3.1370   3.4439   H         1 RES1   0.0000
    43 C18      3.7855  -4.2912   1.8381   C.ar      1 RES1   0.0000
    44 H19      3.6393  -5.0896   2.3306   H         1 RES1   0.0000
    45 C19      3.6739  -4.3119   0.4465   C.ar      1 RES1   0.0000
    46 H20      3.4652  -5.1103  -0.0220   H         1 RES1   0.0000
    47 C20      3.8811  -3.1106  -0.2283   C.ar      1 RES1   0.0000
    48 C21      3.7961  -2.9713  -1.6499   C.2       1 RES1   0.0000
    49 H21      3.5755  -3.7075  -2.2085   H         1 RES1   0.0000
    50 C22      3.8333  -1.5346  -3.6061   C.3       1 RES1   0.0000
    51 H22      4.4777  -0.8228  -3.8844   H         1 RES1   0.0000
    52 C23      4.0658  -2.7717  -4.4951   C.3       1 RES1   0.0000
    53 H23      3.4493  -3.4966  -4.2227   H         1 RES1   0.0000
    54 H24      3.8745  -2.5420  -5.4401   H         1 RES1   0.0000
    55 C24      5.6483  -4.4042  -5.1398   C.3       1 RES1   0.0000
    56 H25      6.6050  -4.6169  -5.1198   H         1 RES1   0.0000
    57 H26      5.3653  -4.2573  -6.0668   H         1 RES1   0.0000
    58 H27      5.1394  -5.1479  -4.7553   H         1 RES1   0.0000
    59 C25      2.4103  -1.0450  -3.9084   C.ar      1 RES1   0.0000
    60 C26      1.3207  -1.6494  -3.4238   C.ar      1 RES1   0.0000
    61 H28      1.4350  -2.3687  -2.8132   H         1 RES1   0.0000
    62 C27      0.0279  -1.2766  -3.7762   C.ar      1 RES1   0.0000
    63 H29     -0.7202  -1.7304  -3.4078   H         1 RES1   0.0000
    64 C28     -0.1528  -0.2448  -4.6612   C.ar      1 RES1   0.0000
    65 H30     -1.0271   0.0056  -4.9375   H         1 RES1   0.0000
    66 C29      0.9607   0.4274  -5.1498   C.ar      1 RES1   0.0000
    67 H31      0.8451   1.1712  -5.7304   H         1 RES1   0.0000
    68 C30      2.2442   0.0245  -4.7914   C.ar      1 RES1   0.0000
    69 H32      3.0029   0.4726  -5.1478   H         1 RES1   0.0000
    70 O3       5.3361   1.1919  -4.9075   O.3       1 RES1   0.0000
    71 N5       2.6654   0.1582  -0.7488   N.ar      1 RES1   0.0000
    72 N6       4.6943   1.0601  -2.0343   N.2       1 RES1   0.0000
    73 C31      1.6343  -0.3408  -0.0681   C.ar      1 RES1   0.0000
    74 H33      1.7884  -1.0601   0.5326   H         1 RES1   0.0000
    75 C32      0.3308   0.1582  -0.2022   C.ar      1 RES1   0.0000
    76 H34     -0.3787  -0.2128   0.3103   H         1 RES1   0.0000
    77 C33      0.0877   1.1768  -1.0712   C.ar      1 RES1   0.0000
    78 H35     -0.7932   1.5120  -1.1913   H         1 RES1   0.0000
    79 C34      1.1546   1.7210  -1.7840   C.ar      1 RES1   0.0000
    80 H36      1.0125   2.4422  -2.3847   H         1 RES1   0.0000
    81 C35      2.4235   1.1994  -1.6038   C.ar      1 RES1   0.0000
    82 C36      3.6087   1.6683  -2.2886   C.2       1 RES1   0.0000
    83 H37      3.5769   2.3970  -2.8973   H         1 RES1   0.0000
    84 C37      5.9725   1.5459  -2.6229   C.3       1 RES1   0.0000
    85 H38      6.5957   0.7645  -2.6730   H         1 RES1   0.0000
    86 C38      5.8795   2.1352  -4.0045   C.3       1 RES1   0.0000
    87 H39      5.3055   2.9430  -3.9825   H         1 RES1   0.0000
    88 H40      6.7817   2.4083  -4.3108   H         1 RES1   0.0000
    89 C39      5.4397   1.6381  -6.2490   C.3       1 RES1   0.0000
    90 H41      4.8258   1.1222  -6.8117   H         1 RES1   0.0000
    91 H42      6.3578   1.5120  -6.5654   H         1 RES1   0.0000
    92 H43      5.2058   2.5871  -6.2951   H         1 RES1   0.0000
    93 C40      6.6329   2.6079  -1.7179   C.ar      1 RES1   0.0000
    94 C41      8.0373   2.5721  -1.5918   C.ar      1 RES1   0.0000
    95 H44      8.5449   1.8848  -2.0083   H         1 RES1   0.0000
    96 C42      8.6671   3.5663  -0.8409   C.ar      1 RES1   0.0000
    97 H45      9.6131   3.5531  -0.7629   H         1 RES1   0.0000
    98 C43      7.9642   4.5642  -0.2102   C.ar      1 RES1   0.0000
    99 H46      8.4107   5.2195   0.3144   H         1 RES1   0.0000
   100 C44      6.5757   4.5906  -0.3604   C.ar      1 RES1   0.0000
   101 H47      6.0722   5.2892   0.0440   H         1 RES1   0.0000
   102 C45      5.9366   3.6284  -1.0792   C.ar      1 RES1   0.0000
   103 H48      4.9893   3.6529  -1.1433   H         1 RES1   0.0000
   104 N7       1.2968   1.7078   2.5348   N.1       2 RES2   0.0000
   105 C46      0.3016   1.5948   3.0735   C.1       2 RES2   0.0000
   106 C47     -0.9553   1.4687   3.8603   C.3       2 RES2   0.0000
   107 O4       9.9294  -3.3422   2.5369   O.3       3 RES3  -1.0000
   108 O5       8.7694  -1.3331   2.8732   O.2       3 RES3   0.0000
   109 O6      10.3532  -1.5195   1.1693   O.2       3 RES3   0.0000
   110 O7      11.0495  -1.5402   3.4098   O.2       3 RES3   0.0000
   111 Cl1     10.0366  -1.9260   2.5244   Cl        3 RES3   0.0000
   112 Cl2      9.5426   4.2215   4.3293   Cl        4 RES4   0.0000
   113 O8       9.8058   3.7979   3.0514   O.3       4 RES4  -1.0000
   114 O9      10.7279   4.2931   5.1418   O.2       4 RES4   0.0000
   115 O10      8.6140   3.3855   4.9736   O.2       4 RES4   0.0000
   116 O11      8.9554   5.5170   4.2247   O.2       4 RES4   0.0000
   117 N8      -1.8416   3.1840  -2.8432   N.1       5 RES5   0.0000
   118 C48     -1.4297   3.5248  -3.8683   C.1       5 RES5   0.0000
   119 C49     -0.9035   3.9334  -5.1598   C.3       5 RES5   0.0000
@<TRIPOS>BOND
     1     1     4    1
     2     2     3    1
     3     4     2   ar
     4     5    18    1
     5     6     2   ar
     6     7     6    1
     7     8     1    1
     8     9     6   ar
     9    10     9    1
    10    11     9   ar
    11    12    11    1
    12    13     4   ar
    13    14     8    2
    14    15    14    1
    15    16     8    1
    16    17    16    1
    17    18    16    1
    18    19    18    1
    19    20    18    1
    20    21     5    1
    21    22    21    1
    22    23    21    1
    23    24    21    1
    24    25    16    1
    25    26    25   ar
    26    27    26    1
    27    28    26   ar
    28    29    28    1
    29    30    28   ar
    30    31    30    1
    31    32    30   ar
    32    33    32    1
    33    34    25   ar
    34    35    34    1
    35    36    52    1
    36    37     1    1
    37    38     1    1
    38    39    37   ar
    39    40    39    1
    40    41    39   ar
    41    42    41    1
    42    43    41   ar
    43    44    43    1
    44    45    43   ar
    45    46    45    1
    46    47    37   ar
    47    48    38    2
    48    49    48    1
    49    50    38    1
    50    51    50    1
    51    52    50    1
    52    53    52    1
    53    54    52    1
    54    55    36    1
    55    56    55    1
    56    57    55    1
    57    58    55    1
    58    59    50    1
    59    60    59   ar
    60    61    60    1
    61    62    60   ar
    62    63    62    1
    63    64    62   ar
    64    65    64    1
    65    66    64   ar
    66    67    66    1
    67    68    59   ar
    68    69    68    1
    69    70    86    1
    70    71     1    1
    71    72     1    1
    72    73    71   ar
    73    74    73    1
    74    75    73   ar
    75    76    75    1
    76    77    75   ar
    77    78    77    1
    78    79    77   ar
    79    80    79    1
    80    81    71   ar
    81    82    72    2
    82    83    82    1
    83    84    72    1
    84    85    84    1
    85    86    84    1
    86    87    86    1
    87    88    86    1
    88    89    70    1
    89    90    89    1
    90    91    89    1
    91    92    89    1
    92    93    84    1
    93    94    93   ar
    94    95    94    1
    95    96    94   ar
    96    97    96    1
    97    98    96   ar
    98    99    98    1
    99   100    98   ar
   100   101   100    1
   101   102    93   ar
   102   103   102    1
   103    11    13   ar
   104    13    14    1
   105    32    34   ar
   106    45    47   ar
   107    47    48    1
   108    66    68   ar
   109    79    81   ar
   110    81    82    1
   111   100   102   ar
   112   104   105    3
   113   105   106    1
   114   107   111    1
   115   108   111    2
   116   109   111    2
   117   110   111    2
   118   112   113    1
   119   114   112    2
   120   115   112    2
   121   116   112    2
   122   117   118    3
   123   118   119    1
@<TRIPOS>SUBSTRUCTURE
     1 RES1        1 GROUP             0 ****  ****    0  
     2 RES2      104 GROUP             0 ****  ****    0  
     3 RES3      107 GROUP             0 ****  ****    0  
     4 RES4      112 GROUP             0 ****  ****    0  
     5 RES5      117 GROUP             0 ****  ****    0  
@<TRIPOS>CRYSIN
   13.2870   18.8293   20.0225   90.0000   90.0000   90.0000    19     1
