@<TRIPOS>MOLECULE
DAJRAH
    98   107     2     0     0
SMALL
USER_CHARGES
****
Generated from the CSD

@<TRIPOS>ATOM
     1 Fe1      8.0602  11.3664  13.6720   Fe        1 RES1   1.0000
     2 Cl1     10.0012  12.6365  13.4352   Cl        1 RES1   0.0000
     3 N1       5.9852  10.4404  13.7612   N.3       1 RES1   0.0000
     4 C1       5.5017  10.4115  15.1686   C.3       1 RES1   0.0000
     5 C2       6.6522  10.2973  16.1300   C.3       1 RES1   0.0000
     6 N2       7.6650  11.3520  15.8848   N.3       1 RES1   0.0000
     7 C3       7.2433  12.6333  16.4909   C.3       1 RES1   0.0000
     8 N3       9.2230   9.5964  14.4914   N.ar      1 RES1   0.0000
     9 C4       9.6906   8.5063  13.8657   C.ar      1 RES1   0.0000
    10 C5      10.4176   7.5273  14.4914   C.ar      1 RES1   0.0000
    11 C6      10.6823   7.6703  15.8346   C.ar      1 RES1   0.0000
    12 C7      10.2412   8.7813  16.4895   C.ar      1 RES1   0.0000
    13 C8       9.5018   9.7346  15.8081   C.ar      1 RES1   0.0000
    14 C9       8.9707  10.9613  16.4770   C.3       1 RES1   0.0000
    15 N4       6.6963  13.0545  13.3125   N.ar      1 RES1   0.0000
    16 C10      7.0280  14.3391  13.5062   C.ar      1 RES1   0.0000
    17 C11      6.0946  15.3246  13.6623   C.ar      1 RES1   0.0000
    18 C12      4.7712  14.9982  13.6316   C.ar      1 RES1   0.0000
    19 C13      4.4042  13.6960  13.3892   C.ar      1 RES1   0.0000
    20 C14      5.3905  12.7442  13.2262   C.ar      1 RES1   0.0000
    21 C15      5.1047  11.3021  12.9363   C.3       1 RES1   0.0000
    22 N5       7.8538  10.1928  11.8578   N.ar      1 RES1   0.0000
    23 C16      8.6619  10.2828  10.7877   C.ar      1 RES1   0.0000
    24 C17      8.6461   9.3247   9.7789   C.ar      1 RES1   0.0000
    25 C18      7.8238   8.2620   9.8778   C.ar      1 RES1   0.0000
    26 C19      6.9804   8.1719  10.9605   C.ar      1 RES1   0.0000
    27 C20      7.0051   9.1510  11.9331   C.ar      1 RES1   0.0000
    28 C21      6.1369   9.0948  13.1704   C.3       1 RES1   0.0000
    29 H1       4.8788   9.4999  15.2675   H         1 RES1   0.0000
    30 H2       5.0412  11.2941  15.2926   H         1 RES1   0.0000
    31 H3       6.3751  10.3954  16.9925   H         1 RES1   0.0000
    32 H4       7.1374   9.4308  16.0854   H         1 RES1   0.0000
    33 H5       7.0545  12.5465  17.3855   H         1 RES1   0.0000
    34 H6       6.3204  12.8536  16.0924   H         1 RES1   0.0000
    35 H7       7.9932  13.3230  16.3153   H         1 RES1   0.0000
    36 H8       9.4136   8.4661  12.8848   H         1 RES1   0.0000
    37 H9      10.6893   6.8134  14.0162   H         1 RES1   0.0000
    38 H10     11.0934   7.0578  16.3209   H         1 RES1   0.0000
    39 H11     10.3523   8.8890  17.4231   H         1 RES1   0.0000
    40 H12      8.9266  10.8246  17.4440   H         1 RES1   0.0000
    41 H13      9.6342  11.6960  16.3376   H         1 RES1   0.0000
    42 H14      8.0197  14.5031  13.5313   H         1 RES1   0.0000
    43 H15      6.3804  16.2137  13.7863   H         1 RES1   0.0000
    44 H16      4.1078  15.7201  13.7835   H         1 RES1   0.0000
    45 H17      3.4902  13.4034  13.3655   H         1 RES1   0.0000
    46 H18      4.1836  11.1044  13.0966   H         1 RES1   0.0000
    47 H19      5.3076  11.1060  12.0014   H         1 RES1   0.0000
    48 H20      9.1895  11.1205  10.7445   H         1 RES1   0.0000
    49 H21      9.2636   9.4517   8.9972   H         1 RES1   0.0000
    50 H22      7.7920   7.5594   9.1532   H         1 RES1   0.0000
    51 H23      6.3169   7.4485  11.0817   H         1 RES1   0.0000
    52 H24      5.2741   8.6542  12.8527   H         1 RES1   0.0000
    53 H25      6.5763   8.5160  13.7543   H         1 RES1   0.0000
    54 B1      13.7560  12.6590   6.6437   B         2 RES2  -1.0000
    55 C22     12.5844  13.4436   5.7965   C.ar      2 RES2   0.0000
    56 C23     11.2293  13.2973   6.0306   C.ar      2 RES2   0.0000
    57 C24     10.2606  13.8632   5.2071   C.ar      2 RES2   0.0000
    58 C25     10.6311  14.6397   4.1203   C.ar      2 RES2   0.0000
    59 C26     11.9615  14.8150   3.8625   C.ar      2 RES2   0.0000
    60 C27     12.9073  14.2346   4.6832   C.ar      2 RES2   0.0000
    61 C28     15.0000  13.6510   7.0715   C.ar      2 RES2   0.0000
    62 C29     16.2352  13.1413   7.4840   C.ar      2 RES2   0.0000
    63 C30     17.2815  13.9420   7.8894   C.ar      2 RES2   0.0000
    64 C31     17.1280  15.3021   7.9549   C.ar      2 RES2   0.0000
    65 C32     15.9299  15.8551   7.5968   C.ar      2 RES2   0.0000
    66 C33     14.8889  15.0368   7.1356   C.ar      2 RES2   0.0000
    67 C34     14.2448  11.4549   5.6307   C.ar      2 RES2   0.0000
    68 C35     15.4729  11.3954   4.9814   C.ar      2 RES2   0.0000
    69 C36     15.8364  10.3488   4.1314   C.ar      2 RES2   0.0000
    70 C37     14.9824   9.3327   3.8918   C.ar      2 RES2   0.0000
    71 C38     13.7349   9.3568   4.4631   C.ar      2 RES2   0.0000
    72 C39     13.3820  10.3986   5.3116   C.ar      2 RES2   0.0000
    73 C40     13.1579  12.0947   8.0678   C.ar      2 RES2   0.0000
    74 C41     12.6144  12.9693   8.9916   C.ar      2 RES2   0.0000
    75 C42     12.0904  12.5706  10.2248   C.ar      2 RES2   0.0000
    76 C43     12.7891  10.8343   8.4830   C.ar      2 RES2   0.0000
    77 H26     10.9646  12.7024   6.7664   H         2 RES2   0.0000
    78 H27      9.3589  13.7603   5.4329   H         2 RES2   0.0000
    79 H28      9.9853  15.0674   3.5978   H         2 RES2   0.0000
    80 H29     12.2245  15.3809   3.1296   H         2 RES2   0.0000
    81 H30     13.8460  14.3230   4.4672   H         2 RES2   0.0000
    82 H31     16.3287  12.1558   7.4742   H         2 RES2   0.0000
    83 H32     18.0667  13.5433   8.1179   H         2 RES2   0.0000
    84 H33     17.8797  15.8230   8.1834   H         2 RES2   0.0000
    85 H34     15.8240  16.7217   7.5801   H         2 RES2   0.0000
    86 H35     14.0931  15.4066   6.8430   H         2 RES2   0.0000
    87 H36     16.1469  12.0352   5.1862   H         2 RES2   0.0000
    88 H37     16.6622  10.4388   3.7496   H         2 RES2   0.0000
    89 H38     15.1465   8.6317   3.3219   H         2 RES2   0.0000
    90 H39     13.0767   8.6092   4.3181   H         2 RES2   0.0000
    91 H40     12.6744  10.3986   5.6098   H         2 RES2   0.0000
    92 H41     12.6250  13.9259   8.7129   H         2 RES2   0.0000
    93 H42     11.7233  13.2571  10.8727   H         2 RES2   0.0000
    94 H43     11.8716  11.0497  11.4997   H         2 RES2   0.0000
    95 H44     12.7432   9.4452   9.8708   H         2 RES2   0.0000
    96 H45     13.5372  10.1767   7.8685   H         2 RES2   0.0000
    97 C44     11.7216  11.3102  10.5425   C.ar      2 RES2   0.0000
    98 C45     12.2492  10.3890   9.6967   C.ar      2 RES2   0.0000
@<TRIPOS>BOND
     1     1     2    1
     2     3     1    1
     3     4     3    1
     4     5     4    1
     5     6     1    1
     6     7     6    1
     7     8     1    1
     8     9     8   ar
     9    10     9   ar
    10    11    10   ar
    11    12    11   ar
    12    13     8   ar
    13    14     6    1
    14    15     1    1
    15    16    15   ar
    16    17    16   ar
    17    18    17   ar
    18    19    18   ar
    19    20    15   ar
    20    21     3    1
    21    22     1    1
    22    23    22   ar
    23    24    23   ar
    24    25    24   ar
    25    26    25   ar
    26    27    22   ar
    27    28     3    1
    28    29     4    1
    29    30     4    1
    30    31     5    1
    31    32     5    1
    32    33     7    1
    33    34     7    1
    34    35     7    1
    35    36     9    1
    36    37    10    1
    37    38    11    1
    38    39    12    1
    39    40    14    1
    40    41    14    1
    41    42    16    1
    42    43    17    1
    43    44    18    1
    44    45    19    1
    45    46    21    1
    46    47    21    1
    47    48    23    1
    48    49    24    1
    49    50    25    1
    50    51    26    1
    51    52    28    1
    52    53    28    1
    53     5     6    1
    54    12    13   ar
    55    13    14    1
    56    19    20   ar
    57    20    21    1
    58    26    27   ar
    59    27    28    1
    60    54    55    1
    61    55    56   ar
    62    56    57   ar
    63    57    58   ar
    64    58    59   ar
    65    59    60   ar
    66    60    55   ar
    67    61    54    1
    68    62    61   ar
    69    63    62   ar
    70    64    63   ar
    71    65    64   ar
    72    66    61   ar
    73    67    54    1
    74    68    67   ar
    75    69    68   ar
    76    70    69   ar
    77    71    70   ar
    78    72    67   ar
    79    73    54    1
    80    74    73   ar
    81    75    74   ar
    82    76    73   ar
    83    77    56    1
    84    78    57    1
    85    79    58    1
    86    80    59    1
    87    81    60    1
    88    82    62    1
    89    83    63    1
    90    84    64    1
    91    85    65    1
    92    86    66    1
    93    87    68    1
    94    88    69    1
    95    89    70    1
    96    90    71    1
    97    91    72    1
    98    92    74    1
    99    93    75    1
   100    94    97    1
   101    95    98    1
   102    96    76    1
   103    97    75   ar
   104    98    76   ar
   105    65    66   ar
   106    71    72   ar
   107    97    98   ar
@<TRIPOS>SUBSTRUCTURE
     1 RES1        1 GROUP             0 ****  ****    0  
     2 RES2       54 GROUP             0 ****  ****    0  
@<TRIPOS>CRYSIN
   17.6450   16.0770   13.9340   90.0000   90.0000   90.0000    19     1
