@<TRIPOS>MOLECULE
DALNUD
   100   108     2     0     0
SMALL
USER_CHARGES
****
Generated from the CSD

@<TRIPOS>ATOM
     1 Fe1      3.9134  -0.1444   6.2911   Fe        1 RES1   2.0000
     2 F1       3.8269   4.1520   9.4404   F         1 RES1   0.0000
     3 N1       4.8122   0.5314   4.6592   N.2       1 RES1   0.0000
     4 N2       5.0940   0.0217   3.4098   N.2       1 RES1   0.0000
     5 N3       5.0948   2.2296   3.3141   N.pl3     1 RES1   0.0000
     6 N4       4.1918   1.7716   6.8120   N.ar      1 RES1   0.0000
     7 N5       5.5679  -0.7381   7.1240   N.1       1 RES1   0.0000
     8 C1       5.2641   1.0656   2.6196   C.2       1 RES1   0.0000
     9 C2       5.5624   0.9540   1.1764   C.ar      1 RES1   0.0000
    10 C3       6.4444  -0.0245   0.7411   C.ar      1 RES1   0.0000
    11 H1       6.9277  -0.5106   1.3840   H         1 RES1   0.0000
    12 C4       6.6938  -0.2083  -0.6127   C.ar      1 RES1   0.0000
    13 H2       7.2538  -0.9561  -0.9940   H         1 RES1   0.0000
    14 C5       6.0650   0.6003  -1.5363   C.ar      1 RES1   0.0000
    15 H3       6.2253   0.4825  -2.4454   H         1 RES1   0.0000
    16 C6       5.1913   1.5905  -1.1035   C.ar      1 RES1   0.0000
    17 H4       4.7740   2.1417  -1.7255   H         1 RES1   0.0000
    18 C7       4.9373   1.7628   0.2441   C.ar      1 RES1   0.0000
    19 H5       4.3452   2.4232   0.5249   H         1 RES1   0.0000
    20 C8       5.0746   3.5606   2.7593   C.ar      1 RES1   0.0000
    21 C9       6.2762   4.1507   2.3617   C.ar      1 RES1   0.0000
    22 H6       7.0914   3.7373   2.5346   H         1 RES1   0.0000
    23 C10      6.2197   5.3724   1.7011   C.ar      1 RES1   0.0000
    24 H7       7.0103   5.7872   1.4422   H         1 RES1   0.0000
    25 C11      5.0070   5.9853   1.4218   C.ar      1 RES1   0.0000
    26 C12      4.9564   7.2788   0.6480   C.3       1 RES1   0.0000
    27 H8       5.3383   7.9836   1.1762   H         1 RES1   0.0000
    28 H9       4.0439   7.4929   0.4404   H         1 RES1   0.0000
    29 H10      5.4557   7.1842  -0.1672   H         1 RES1   0.0000
    30 C13      3.8291   5.3876   1.8735   C.ar      1 RES1   0.0000
    31 H11      3.0128   5.8078   1.7254   H         1 RES1   0.0000
    32 C14      3.8657   4.1699   2.5441   C.ar      1 RES1   0.0000
    33 H12      3.0790   3.7729   2.8427   H         1 RES1   0.0000
    34 C15      4.8287   1.8439   4.5887   C.2       1 RES1   0.0000
    35 C16      4.5599   2.6056   5.7978   C.ar      1 RES1   0.0000
    36 C17      4.6947   3.9671   5.9539   C.ar      1 RES1   0.0000
    37 H13      4.9569   4.4984   5.2370   H         1 RES1   0.0000
    38 C18      4.4339   4.5397   7.1970   C.ar      1 RES1   0.0000
    39 H14      4.4927   5.4572   7.3378   H         1 RES1   0.0000
    40 C19      4.0848   3.6740   8.1998   C.ar      1 RES1   0.0000
    41 C20      3.9527   2.3071   8.0010   C.ar      1 RES1   0.0000
    42 H15      3.6946   1.7612   8.7090   H         1 RES1   0.0000
    43 C21      6.3970  -1.3075   7.6852   C.1       1 RES1   0.0000
    44 B1       7.5371  -2.0988   8.4590   B         1 RES1  -1.0000
    45 H16      8.2442  -2.5176   7.7003   H         1 RES1   0.0000
    46 H17      7.0666  -2.9729   8.9962   H         1 RES1   0.0000
    47 H18      7.9736  -1.4017   9.1472   H         1 RES1   0.0000
    48 F1A      4.0000  -4.4409   3.1418   F         1 RES1   0.0000
    49 N1A      3.0147  -0.8203   7.9230   N.2       1 RES1   0.0000
    50 N2A      2.7329  -0.3106   9.1724   N.2       1 RES1   0.0000
    51 N3A      2.7320  -2.5185   9.2680   N.pl3     1 RES1   0.0000
    52 N4A      3.6351  -2.0604   5.7702   N.ar      1 RES1   0.0000
    53 N5A      2.2590   0.4492   5.4581   N.1       1 RES1   0.0000
    54 C1A      2.5627  -1.3544   9.9625   C.2       1 RES1   0.0000
    55 C2A      2.2644  -1.2429  11.4057   C.ar      1 RES1   0.0000
    56 C3A      1.3825  -0.2644  11.8410   C.ar      1 RES1   0.0000
    57 H1A      0.8992   0.2217  11.1981   H         1 RES1   0.0000
    58 C4A      1.1330  -0.0806  13.1949   C.ar      1 RES1   0.0000
    59 H2A      0.5731   0.6672  13.5761   H         1 RES1   0.0000
    60 C5A      1.7619  -0.8891  14.1184   C.ar      1 RES1   0.0000
    61 H3A      1.6016  -0.7713  15.0276   H         1 RES1   0.0000
    62 C6A      2.6355  -1.8793  13.6856   C.ar      1 RES1   0.0000
    63 H4A      3.0529  -2.4306  14.3076   H         1 RES1   0.0000
    64 C7A      2.8896  -2.0516  12.3380   C.ar      1 RES1   0.0000
    65 H5A      3.4817  -2.7121  12.0572   H         1 RES1   0.0000
    66 C8A      2.7523  -3.8495   9.8229   C.ar      1 RES1   0.0000
    67 C9A      1.5506  -4.4396  10.2205   C.ar      1 RES1   0.0000
    68 H6A      0.7355  -4.0262  10.0476   H         1 RES1   0.0000
    69 C10A     1.6072  -5.6613  10.8810   C.ar      1 RES1   0.0000
    70 H7A      0.8165  -6.0761  11.1400   H         1 RES1   0.0000
    71 C11A     2.8199  -6.2742  11.1604   C.ar      1 RES1   0.0000
    72 C12A     2.8705  -7.5677  11.9342   C.3       1 RES1   0.0000
    73 H8A      2.4886  -8.2725  11.4060   H         1 RES1   0.0000
    74 H9A      3.7830  -7.7818  12.1417   H         1 RES1   0.0000
    75 H10A     2.3712  -7.4730  12.7493   H         1 RES1   0.0000
    76 C13A     3.9977  -5.6765  10.7087   C.ar      1 RES1   0.0000
    77 H11A     4.8141  -6.0967  10.8567   H         1 RES1   0.0000
    78 C14A     3.9612  -4.4588  10.0380   C.ar      1 RES1   0.0000
    79 H12A     4.7478  -4.0617   9.7394   H         1 RES1   0.0000
    80 C15A     2.9981  -2.1328   7.9934   C.2       1 RES1   0.0000
    81 C16A     3.2670  -2.8945   6.7843   C.ar      1 RES1   0.0000
    82 C17A     3.1322  -4.2560   6.6283   C.ar      1 RES1   0.0000
    83 H13A     2.8699  -4.7872   7.3451   H         1 RES1   0.0000
    84 C18A     3.3930  -4.8286   5.3852   C.ar      1 RES1   0.0000
    85 H14A     3.3342  -5.7461   5.2443   H         1 RES1   0.0000
    86 C19A     3.7421  -3.9629   4.3824   C.ar      1 RES1   0.0000
    87 C20A     3.8742  -2.5960   4.5812   C.ar      1 RES1   0.0000
    88 H15A     4.1323  -2.0501   3.8731   H         1 RES1   0.0000
    89 C21A     1.4299   1.0186   4.8970   C.1       1 RES1   0.0000
    90 B1A      0.2897   1.8099   4.1232   B         1 RES1  -1.0000
    91 H16A    -0.4174   2.2287   4.8819   H         1 RES1   0.0000
    92 H17A     0.7603   2.6841   3.5859   H         1 RES1   0.0000
    93 H18A    -0.1467   1.1128   3.4349   H         1 RES1   0.0000
    94 O1      -1.0434   3.5011   7.8538   O.2       2 RES2   0.0000
    95 O2       1.0791   3.3823   7.5593   O.2       2 RES2   0.0000
    96 N6       0.0029   2.8752   7.8211   N.pl3     2 RES2   0.0000
    97 C22     -0.0522   1.4307   8.0815   C.3       2 RES2   0.0000
    98 H19     -0.6485   1.2604   8.8143   H         2 RES2   0.0000
    99 H20      0.8260   1.1121   8.3030   H         2 RES2   0.0000
   100 H21     -0.3694   0.9761   7.2981   H         2 RES2   0.0000
@<TRIPOS>BOND
     1     1     3    1
     2     2    40    1
     3     3     4    1
     4     4     8    2
     5     5     8    1
     6     6     1    1
     7     7     1    1
     8     8     9    1
     9     9    10   ar
    10    10    11    1
    11    12    10   ar
    12    13    12    1
    13    14    12   ar
    14    15    14    1
    15    16    14   ar
    16    17    16    1
    17    18     9   ar
    18    19    18    1
    19    20     5    1
    20    21    20   ar
    21    22    21    1
    22    23    21   ar
    23    24    23    1
    24    25    23   ar
    25    26    25    1
    26    27    26    1
    27    28    26    1
    28    29    26    1
    29    30    25   ar
    30    31    30    1
    31    32    20   ar
    32    33    32    1
    33    34     3    2
    34    35     6   ar
    35    36    35   ar
    36    37    36    1
    37    38    36   ar
    38    39    38    1
    39    40    38   ar
    40    41     6   ar
    41    42    41    1
    42    43     7    3
    43    44    43    1
    44    45    44    1
    45    46    44    1
    46    47    44    1
    47    48    86    1
    48    49     1    1
    49    50    49    1
    50    51    54    1
    51    52     1    1
    52    53     1    1
    53    54    50    2
    54    55    54    1
    55    56    55   ar
    56    57    56    1
    57    58    56   ar
    58    59    58    1
    59    60    58   ar
    60    61    60    1
    61    62    60   ar
    62    63    62    1
    63    64    55   ar
    64    65    64    1
    65    66    51    1
    66    67    66   ar
    67    68    67    1
    68    69    67   ar
    69    70    69    1
    70    71    69   ar
    71    72    71    1
    72    73    72    1
    73    74    72    1
    74    75    72    1
    75    76    71   ar
    76    77    76    1
    77    78    66   ar
    78    79    78    1
    79    80    49    2
    80    81    52   ar
    81    82    81   ar
    82    83    82    1
    83    84    82   ar
    84    85    84    1
    85    86    84   ar
    86    87    52   ar
    87    88    87    1
    88    89    53    3
    89    90    89    1
    90    91    90    1
    91    92    90    1
    92    93    90    1
    93     5    34    1
    94    16    18   ar
    95    30    32   ar
    96    34    35    1
    97    40    41   ar
    98    51    80    1
    99    62    64   ar
   100    76    78   ar
   101    80    81    1
   102    86    87   ar
   103    94    96    2
   104    95    96    2
   105    96    97    1
   106    97    98    1
   107    99    97    1
   108   100    97    1
@<TRIPOS>SUBSTRUCTURE
     1 RES1        1 GROUP             0 ****  ****    0  
     2 RES2       94 GROUP             0 ****  ****    0  
@<TRIPOS>CRYSIN
    8.3350   11.0887   12.5957   90.6100   92.3120  106.3560     2     1
