@<TRIPOS>MOLECULE
DALPAL
    93   102     1     0     0
SMALL
USER_CHARGES
****
Generated from the CSD

@<TRIPOS>ATOM
     1 Br1     11.1859   4.6674   5.7772   Br        1 RES1   0.0000
     2 Fe1      6.1182   1.9888   5.9977   Fe        1 RES1   2.0000
     3 N1       5.0556   2.8686   7.3889   N.2       1 RES1   0.0000
     4 N2       3.8638   2.6394   7.9960   N.2       1 RES1   0.0000
     5 N3       4.6839   4.5598   8.7262   N.pl3     1 RES1   0.0000
     6 N4       7.3766   3.4330   6.5254   N.ar      1 RES1   0.0000
     7 N5       5.3674   3.1659   4.6437   N.1       1 RES1   0.0000
     8 C1       8.6289   3.5533   6.1020   C.ar      1 RES1   0.0000
     9 H1       8.9808   2.9005   5.5410   H         1 RES1   0.0000
    10 C2       9.4303   4.6259   6.4716   C.ar      1 RES1   0.0000
    11 C3       8.9415   5.6224   7.3006   C.ar      1 RES1   0.0000
    12 H2       9.4660   6.3520   7.5394   H         1 RES1   0.0000
    13 C4       7.6314   5.4890   7.7643   C.ar      1 RES1   0.0000
    14 H3       7.2642   6.1317   8.3282   H         1 RES1   0.0000
    15 C5       6.8831   4.3892   7.3744   C.ar      1 RES1   0.0000
    16 C6       5.5559   4.0083   7.8285   C.2       1 RES1   0.0000
    17 C7       4.8718   5.8385   9.3751   C.ar      1 RES1   0.0000
    18 C8       5.3127   5.8951  10.6873   C.ar      1 RES1   0.0000
    19 H4       5.4464   5.1144  11.1746   H         1 RES1   0.0000
    20 C9       5.5518   7.1339  11.2629   C.ar      1 RES1   0.0000
    21 H5       5.8530   7.1803  12.1417   H         1 RES1   0.0000
    22 C10      5.3470   8.3136  10.5410   C.ar      1 RES1   0.0000
    23 C11      5.6719   9.6508  11.1577   C.3       1 RES1   0.0000
    24 H6       6.4837   9.9912  10.7753   H         1 RES1   0.0000
    25 H7       5.7831   9.5475  12.1056   H         1 RES1   0.0000
    26 H8       4.9545  10.2652  10.9849   H         1 RES1   0.0000
    27 C12      4.8825   8.2260   9.2368   C.ar      1 RES1   0.0000
    28 H9       4.7316   9.0050   8.7511   H         1 RES1   0.0000
    29 C13      4.6374   6.9843   8.6411   C.ar      1 RES1   0.0000
    30 H10      4.3226   6.9316   7.7676   H         1 RES1   0.0000
    31 C14      3.6280   3.6715   8.7893   C.2       1 RES1   0.0000
    32 C15      2.3423   3.8294   9.4902   C.ar      1 RES1   0.0000
    33 C16      1.9573   4.9863  10.1704   C.ar      1 RES1   0.0000
    34 H11      2.5638   5.6817  10.2849   H         1 RES1   0.0000
    35 C17      0.6682   5.0990  10.6764   C.ar      1 RES1   0.0000
    36 H12      0.4141   5.8723  11.1260   H         1 RES1   0.0000
    37 C18     -0.2378   4.0665  10.5148   C.ar      1 RES1   0.0000
    38 H13     -1.1057   4.1575  10.8375   H         1 RES1   0.0000
    39 C19      0.1429   2.8938   9.8713   C.ar      1 RES1   0.0000
    40 H14     -0.4622   2.1932   9.7835   H         1 RES1   0.0000
    41 C20      1.4262   2.7712   9.3610   C.ar      1 RES1   0.0000
    42 H15      1.6823   1.9864   8.9323   H         1 RES1   0.0000
    43 C21      4.9694   3.7954   3.7731   C.1       1 RES1   0.0000
    44 B1       4.4101   4.6298   2.5414   B         1 RES1  -1.0000
    45 H16      4.4567   4.0373   1.5474   H         1 RES1   0.0000
    46 H17      5.0533   5.5476   2.4471   H         1 RES1   0.0000
    47 H18      3.3415   4.8252   2.7710   H         1 RES1   0.0000
    48 Br1A     1.0506  -0.6898   6.2183   Br        1 RES1   0.0000
    49 N1A      7.1809   1.1090   4.6066   N.2       1 RES1   0.0000
    50 N2A      8.3727   1.3383   3.9995   N.2       1 RES1   0.0000
    51 N3A      7.5526  -0.5822   3.2693   N.pl3     1 RES1   0.0000
    52 N4A      4.8598   0.5446   5.4701   N.ar      1 RES1   0.0000
    53 N5A      6.8690   0.8118   7.3518   N.1       1 RES1   0.0000
    54 C1A      3.6075   0.4243   5.8935   C.ar      1 RES1   0.0000
    55 H1A      3.2556   1.0771   6.4545   H         1 RES1   0.0000
    56 C2A      2.8061  -0.6483   5.5239   C.ar      1 RES1   0.0000
    57 C3A      3.2949  -1.6448   4.6949   C.ar      1 RES1   0.0000
    58 H2A      2.7704  -2.3744   4.4561   H         1 RES1   0.0000
    59 C4A      4.6051  -1.5114   4.2312   C.ar      1 RES1   0.0000
    60 H3A      4.9723  -2.1541   3.6673   H         1 RES1   0.0000
    61 C5A      5.3534  -0.4115   4.6211   C.ar      1 RES1   0.0000
    62 C6A      6.6806  -0.0307   4.1670   C.2       1 RES1   0.0000
    63 C7A      7.3646  -1.8609   2.6204   C.ar      1 RES1   0.0000
    64 C8A      6.9238  -1.9175   1.3082   C.ar      1 RES1   0.0000
    65 H4A      6.7900  -1.1368   0.8209   H         1 RES1   0.0000
    66 C9A      6.6846  -3.1563   0.7326   C.ar      1 RES1   0.0000
    67 H5A      6.3834  -3.2027  -0.1462   H         1 RES1   0.0000
    68 C10A     6.8895  -4.3359   1.4545   C.ar      1 RES1   0.0000
    69 C11A     6.5645  -5.6732   0.8378   C.3       1 RES1   0.0000
    70 H6A      5.7527  -6.0135   1.2202   H         1 RES1   0.0000
    71 H7A      6.4534  -5.5699  -0.1102   H         1 RES1   0.0000
    72 H8A      7.2819  -6.2876   1.0106   H         1 RES1   0.0000
    73 C12A     7.3539  -4.2484   2.7587   C.ar      1 RES1   0.0000
    74 H9A      7.5049  -5.0273   3.2444   H         1 RES1   0.0000
    75 C13A     7.5990  -3.0067   3.3544   C.ar      1 RES1   0.0000
    76 H10A     7.9139  -2.9540   4.2279   H         1 RES1   0.0000
    77 C14A     8.6084   0.3061   3.2062   C.2       1 RES1   0.0000
    78 C15A     9.8942   0.1483   2.5053   C.ar      1 RES1   0.0000
    79 C16A    10.2791  -1.0086   1.8251   C.ar      1 RES1   0.0000
    80 H11A     9.6726  -1.7041   1.7106   H         1 RES1   0.0000
    81 C17A    11.5683  -1.1214   1.3191   C.ar      1 RES1   0.0000
    82 H12A    11.8224  -1.8946   0.8695   H         1 RES1   0.0000
    83 C18A    12.4743  -0.0889   1.4807   C.ar      1 RES1   0.0000
    84 H13A    13.3421  -0.1799   1.1580   H         1 RES1   0.0000
    85 C19A    12.0936   1.0838   2.1242   C.ar      1 RES1   0.0000
    86 H14A    12.6987   1.7844   2.2120   H         1 RES1   0.0000
    87 C20A    10.8102   1.2064   2.6345   C.ar      1 RES1   0.0000
    88 H15A    10.5542   1.9912   3.0632   H         1 RES1   0.0000
    89 C21A     7.2670   0.1822   8.2224   C.1       1 RES1   0.0000
    90 B1A      7.8263  -0.6521   9.4541   B         1 RES1  -1.0000
    91 H16A     7.7797  -0.0596  10.4481   H         1 RES1   0.0000
    92 H17A     7.1832  -1.5700   9.5484   H         1 RES1   0.0000
    93 H18A     8.8949  -0.8476   9.2245   H         1 RES1   0.0000
@<TRIPOS>BOND
     1     1    10    1
     2     2     3    1
     3     3     4    1
     4     4    31    2
     5     5    16    1
     6     6     2    1
     7     7     2    1
     8     8     6   ar
     9     9     8    1
    10    10     8   ar
    11    11    10   ar
    12    12    11    1
    13    13    11   ar
    14    14    13    1
    15    15     6   ar
    16    16     3    2
    17    17     5    1
    18    18    17   ar
    19    19    18    1
    20    20    18   ar
    21    21    20    1
    22    22    20   ar
    23    23    22    1
    24    24    23    1
    25    25    23    1
    26    26    23    1
    27    27    22   ar
    28    28    27    1
    29    29    17   ar
    30    30    29    1
    31    31     5    1
    32    32    31    1
    33    33    32   ar
    34    34    33    1
    35    35    33   ar
    36    36    35    1
    37    37    35   ar
    38    38    37    1
    39    39    37   ar
    40    40    39    1
    41    41    32   ar
    42    42    41    1
    43    43     7    3
    44    44    43    1
    45    45    44    1
    46    46    44    1
    47    47    44    1
    48    48    56    1
    49    49     2    1
    50    50    49    1
    51    51    62    1
    52    52     2    1
    53    53     2    1
    54    54    52   ar
    55    55    54    1
    56    56    54   ar
    57    57    56   ar
    58    58    57    1
    59    59    57   ar
    60    60    59    1
    61    61    52   ar
    62    62    49    2
    63    63    51    1
    64    64    63   ar
    65    65    64    1
    66    66    64   ar
    67    67    66    1
    68    68    66   ar
    69    69    68    1
    70    70    69    1
    71    71    69    1
    72    72    69    1
    73    73    68   ar
    74    74    73    1
    75    75    63   ar
    76    76    75    1
    77    77    50    2
    78    78    77    1
    79    79    78   ar
    80    80    79    1
    81    81    79   ar
    82    82    81    1
    83    83    81   ar
    84    84    83    1
    85    85    83   ar
    86    86    85    1
    87    87    78   ar
    88    88    87    1
    89    89    53    3
    90    90    89    1
    91    91    90    1
    92    92    90    1
    93    93    90    1
    94    13    15   ar
    95    15    16    1
    96    27    29   ar
    97    39    41   ar
    98    51    77    1
    99    59    61   ar
   100    61    62    1
   101    73    75   ar
   102    85    87   ar
@<TRIPOS>SUBSTRUCTURE
     1 RES1        1 GROUP             0 ****  ****    0  
@<TRIPOS>CRYSIN
    8.9066    9.4038   13.0691   70.4250   75.2390   82.4910     2     1
