@<TRIPOS>MOLECULE
DAMXIC
    94   100     3     0     0
SMALL
USER_CHARGES
****
Generated from the CSD

@<TRIPOS>ATOM
     1 Fe1      5.3320   4.8453   4.1933   Fe        1 RES1   1.0000
     2 S1       3.3684   4.3788   7.0314   S.o2      1 RES1   0.0000
     3 F1       3.4417   4.5785   9.6240   F         1 RES1   0.0000
     4 F2       5.0306   3.3722   8.7907   F         1 RES1   0.0000
     5 F3       5.0968   5.5194   8.6235   F         1 RES1   0.0000
     6 O1       6.4035   5.5296   2.4986   O.3       1 RES1   0.0000
     7 H1       6.8395   5.1515   1.7883   H         1 RES1   0.0000
     8 O2       8.3347   7.4964   5.4560   O.3       1 RES1   0.0000
     9 O3       5.5772   8.9484   5.2334   O.3       1 RES1   0.0000
    10 O4       4.4424   4.2721   6.0621   O.3       1 RES1   0.0000
    11 O5       2.6216   5.5979   6.9706   O.2       1 RES1   0.0000
    12 O6       2.6133   3.1733   7.1566   O.2       1 RES1   0.0000
    13 O7       4.7107   3.1531   3.2218   O.3       1 RES1   0.0000
    14 H2       4.4034   3.2476   2.3247   H         1 RES1   0.0000
    15 N1       6.1976   6.7638   4.8656   N.3       1 RES1   0.0000
    16 N2       7.1189   4.2013   5.1544   N.ar      1 RES1   0.0000
    17 N3       3.7266   6.2368   3.8889   N.ar      1 RES1   0.0000
    18 C1       6.4217   6.9610   2.3659   C.3       1 RES1   0.0000
    19 H3       5.5496   7.2800   2.0843   H         1 RES1   0.0000
    20 H4       7.0743   7.2254   1.6991   H         1 RES1   0.0000
    21 C2       6.7866   7.5625   3.7259   C.3       1 RES1   0.0000
    22 C3       8.2814   7.5036   4.0223   C.3       1 RES1   0.0000
    23 H5       8.6795   6.6991   3.6542   H         1 RES1   0.0000
    24 H6       8.7404   8.2779   3.6600   H         1 RES1   0.0000
    25 C4       7.3276   6.5589   5.8109   C.3       1 RES1   0.0000
    26 H7       7.0257   6.7324   6.7268   H         1 RES1   0.0000
    27 C5       6.2109   8.9871   3.9465   C.3       1 RES1   0.0000
    28 H8       6.9198   9.6485   3.9341   H         1 RES1   0.0000
    29 H9       5.5668   9.2066   3.2549   H         1 RES1   0.0000
    30 C6       5.1148   7.6171   5.3773   C.3       1 RES1   0.0000
    31 H10      4.9369   7.4164   6.3200   H         1 RES1   0.0000
    32 C7       7.8912   5.1410   5.7166   C.ar      1 RES1   0.0000
    33 C8       9.1533   4.8536   6.2266   C.ar      1 RES1   0.0000
    34 H11      9.6821   5.5270   6.5894   H         1 RES1   0.0000
    35 C9       9.6108   3.5412   6.1838   C.ar      1 RES1   0.0000
    36 H12     10.4571   3.3236   6.5023   H         1 RES1   0.0000
    37 C10      8.7779   2.5575   5.6550   C.ar      1 RES1   0.0000
    38 H13      9.0414   1.6661   5.6523   H         1 RES1   0.0000
    39 C11      7.5597   2.9301   5.1392   C.ar      1 RES1   0.0000
    40 H14      7.0168   2.2753   4.7625   H         1 RES1   0.0000
    41 C12      3.8511   7.4046   4.5382   C.ar      1 RES1   0.0000
    42 C13      2.9050   8.4172   4.4280   C.ar      1 RES1   0.0000
    43 H15      3.0000   9.2080   4.9094   H         1 RES1   0.0000
    44 C14      1.8136   8.2261   3.5848   C.ar      1 RES1   0.0000
    45 H16      1.1754   8.8950   3.4843   H         1 RES1   0.0000
    46 C15      1.6904   7.0302   2.8984   C.ar      1 RES1   0.0000
    47 H17      0.9751   6.8854   2.3226   H         1 RES1   0.0000
    48 C16      2.6611   6.0483   3.0896   C.ar      1 RES1   0.0000
    49 H18      2.5685   5.2348   2.6495   H         1 RES1   0.0000
    50 C17      4.2815   4.4664   8.5960   C.3       1 RES1   0.0000
    51 C18      4.0596   1.9894   3.8160   C.3       1 RES1   0.0000
    52 H19      4.2985   1.9579   4.7658   H         1 RES1   0.0000
    53 C19      4.5734   0.7287   3.1597   C.3       1 RES1   0.0000
    54 H20      5.5347   0.6695   3.2762   H         1 RES1   0.0000
    55 H21      4.3869   0.7578   2.2077   H         1 RES1   0.0000
    56 C20      3.9054  -0.5067   3.7760   C.3       1 RES1   0.0000
    57 H22      4.1964  -1.3009   3.3006   H         1 RES1   0.0000
    58 H23      4.1806  -0.5933   4.7013   H         1 RES1   0.0000
    59 C21      2.3924  -0.4075   3.7086   C.3       1 RES1   0.0000
    60 H24      1.9998  -1.1648   4.1697   H         1 RES1   0.0000
    61 H25      2.1091  -0.4427   2.7809   H         1 RES1   0.0000
    62 C22      1.8872   0.8860   4.3400   C.3       1 RES1   0.0000
    63 H26      2.0718   0.8719   5.2927   H         1 RES1   0.0000
    64 H27      0.9260   0.9476   4.2229   H         1 RES1   0.0000
    65 C23      2.5534   2.1073   3.7127   C.3       1 RES1   0.0000
    66 H28      2.2950   2.1773   2.7807   H         1 RES1   0.0000
    67 H29      2.2577   2.9109   4.1694   H         1 RES1   0.0000
    68 S2       3.6591   3.6012  -0.6453   S.o2      2 RES2   0.0000
    69 F4       3.2621   1.6450  -2.3188   F         2 RES2   0.0000
    70 F5       1.9316   1.6545  -0.6520   F         2 RES2   0.0000
    71 F6       3.9751   1.0197  -0.4172   F         2 RES2   0.0000
    72 O8       3.5738   3.6670   0.7879   O.2       2 RES2   0.0000
    73 O9       4.9995   3.6634  -1.1713   O.3       2 RES2  -1.0000
    74 O10      2.7095   4.3997  -1.3441   O.2       2 RES2   0.0000
    75 C24      3.1787   1.8753  -1.0193   C.3       2 RES2   0.0000
    76 O11      7.1740   4.5702   0.2359   O.3       3 RES3   0.0000
    77 H30      6.3709   4.2503  -0.1238   H         3 RES3   0.0000
    78 C25      8.4817   4.1887  -0.2655   C.3       3 RES3   0.0000
    79 H31      8.6730   4.7211  -1.0655   H         3 RES3   0.0000
    80 C26      9.5032   4.5246   0.7813   C.3       3 RES3   0.0000
    81 H32     10.3881   4.4248   0.3975   H         3 RES3   0.0000
    82 H33      9.3951   5.4545   1.0352   H         3 RES3   0.0000
    83 C27      9.4125   3.6919   1.9836   C.3       3 RES3   0.0000
    84 H34      8.5877   3.8968   2.4519   H         3 RES3   0.0000
    85 H35     10.1514   3.9044   2.5749   H         3 RES3   0.0000
    86 C28      9.4451   2.2142   1.6534   C.3       3 RES3   0.0000
    87 H36      9.2809   1.6979   2.4584   H         3 RES3   0.0000
    88 H37     10.3227   1.9760   1.3162   H         3 RES3   0.0000
    89 C29      8.3659   1.8758   0.5874   C.3       3 RES3   0.0000
    90 H38      8.4492   0.9448   0.3296   H         3 RES3   0.0000
    91 H39      7.4841   2.0040   0.9701   H         3 RES3   0.0000
    92 C30      8.5134   2.7540  -0.6424   C.3       3 RES3   0.0000
    93 H40      9.3534   2.5537  -1.0843   H         3 RES3   0.0000
    94 H41      7.7933   2.5657  -1.2632   H         3 RES3   0.0000
@<TRIPOS>BOND
     1     1     6    1
     2     2    10    1
     3     3    50    1
     4     4    50    1
     5     5    50    1
     6     6     7    1
     7     8    22    1
     8     9    27    1
     9    10     1    1
    10    11     2    2
    11    12     2    2
    12    13     1    1
    13    14    13    1
    14    15     1    1
    15    16     1    1
    16    17     1    1
    17    18     6    1
    18    19    18    1
    19    20    18    1
    20    21    15    1
    21    22    21    1
    22    23    22    1
    23    24    22    1
    24    25     8    1
    25    26    25    1
    26    27    21    1
    27    28    27    1
    28    29    27    1
    29    30     9    1
    30    31    30    1
    31    32    16   ar
    32    33    32   ar
    33    34    33    1
    34    35    33   ar
    35    36    35    1
    36    37    35   ar
    37    38    37    1
    38    39    16   ar
    39    40    39    1
    40    41    17   ar
    41    42    41   ar
    42    43    42    1
    43    44    42   ar
    44    45    44    1
    45    46    44   ar
    46    47    46    1
    47    48    17   ar
    48    49    48    1
    49    50     2    1
    50    51    13    1
    51    52    51    1
    52    53    51    1
    53    54    53    1
    54    55    53    1
    55    56    53    1
    56    57    56    1
    57    58    56    1
    58    59    56    1
    59    60    59    1
    60    61    59    1
    61    62    59    1
    62    63    62    1
    63    64    62    1
    64    65    51    1
    65    66    65    1
    66    67    65    1
    67    15    25    1
    68    15    30    1
    69    18    21    1
    70    25    32    1
    71    30    41    1
    72    37    39   ar
    73    46    48   ar
    74    62    65    1
    75    68    72    2
    76    69    75    1
    77    70    75    1
    78    71    75    1
    79    73    68    1
    80    74    68    2
    81    75    68    1
    82    76    77    1
    83    78    76    1
    84    79    78    1
    85    80    78    1
    86    81    80    1
    87    82    80    1
    88    83    80    1
    89    84    83    1
    90    85    83    1
    91    86    83    1
    92    87    86    1
    93    88    86    1
    94    89    86    1
    95    90    89    1
    96    91    89    1
    97    92    78    1
    98    93    92    1
    99    94    92    1
   100    89    92    1
@<TRIPOS>SUBSTRUCTURE
     1 RES1        1 GROUP             0 ****  ****    0  
     2 RES2       68 GROUP             0 ****  ****    0  
     3 RES3       76 GROUP             0 ****  ****    0  
@<TRIPOS>CRYSIN
   10.0940   13.5688   14.2285   77.5480   80.2460   80.9700     2     1
