@<TRIPOS>MOLECULE
DAQHIQ
   106   108     4     0     0
SMALL
USER_CHARGES
****
Generated from the CSD

@<TRIPOS>ATOM
     1 Fe1      9.4509   6.7395  11.1582   Fe        1 RES1   2.0000
     2 P1       8.4359   8.7206  11.7011   P.3       1 RES1   0.0000
     3 P2      10.4889   4.7539  10.6048   P.3       1 RES1   0.0000
     4 O1       9.4817   7.6065   8.3888   O.2       1 RES1   0.0000
     5 N1       7.0050   5.6360   9.8246   N.pl3     1 RES1   0.0000
     6 H1       7.2940   5.8613   9.0248   H         1 RES1   0.0000
     7 N2       7.6964   5.8748  10.9864   N.2       1 RES1   0.0000
     8 N3      12.0618   8.0038  10.5115   N.pl3     1 RES1   0.0000
     9 H2      11.7904   8.1985   9.6966   H         1 RES1   0.0000
    10 N4      11.2407   7.5041  11.4531   N.2       1 RES1   0.0000
    11 N5       9.4235   6.2181  13.0940   N.2       1 RES1   0.0000
    12 N6       7.2183   5.3787  13.2853   N.pl3     1 RES1   0.0000
    13 H3       6.6057   5.1099  13.8566   H         1 RES1   0.0000
    14 N7      11.6298   6.9402  13.7905   N.2       1 RES1   0.0000
    15 C1       5.8240   5.0161  10.0572   C.2       1 RES1   0.0000
    16 C2       5.6887   4.8693  11.4145   C.2       1 RES1   0.0000
    17 H4       4.9598   4.4912  11.8922   H         1 RES1   0.0000
    18 C3       6.8699   5.4042  11.9307   C.2       1 RES1   0.0000
    19 C4       8.4166   5.7306  13.7836   C.2       1 RES1   0.0000
    20 C5       8.7336   5.5439  15.2235   C.ar      1 RES1   0.0000
    21 C6       7.9991   5.0926  16.2766   C.ar      1 RES1   0.0000
    22 H5       7.0991   4.8057  16.1720   H         1 RES1   0.0000
    23 C7       8.6429   5.0734  17.5320   C.ar      1 RES1   0.0000
    24 H6       8.1802   4.7521  18.2974   H         1 RES1   0.0000
    25 C8       9.9532   5.5239  17.6545   C.ar      1 RES1   0.0000
    26 H7      10.3613   5.5234  18.5135   H         1 RES1   0.0000
    27 C9      10.6727   5.9680  16.5808   C.ar      1 RES1   0.0000
    28 H8      11.5735   6.2553  16.6758   H         1 RES1   0.0000
    29 C10     10.0314   5.9825  15.3391   C.ar      1 RES1   0.0000
    30 C11     10.4982   6.4481  14.0204   C.2       1 RES1   0.0000
    31 C12     12.0467   7.3802  12.5543   C.2       1 RES1   0.0000
    32 C13     13.3425   7.7733  12.2419   C.2       1 RES1   0.0000
    33 H9      14.0903   7.7632  12.8269   H         1 RES1   0.0000
    34 C14     13.3408   8.1835  10.9190   C.2       1 RES1   0.0000
    35 C15      4.9218   4.5186   8.9450   C.3       1 RES1   0.0000
    36 C16      4.8317   5.5811   7.8341   C.3       1 RES1   0.0000
    37 H10      4.2484   5.2553   7.1169   H         1 RES1   0.0000
    38 H11      4.4640   6.4103   8.2044   H         1 RES1   0.0000
    39 H12      5.7265   5.7531   7.4734   H         1 RES1   0.0000
    40 C17      5.5329   3.2290   8.3503   C.3       1 RES1   0.0000
    41 H13      4.9588   2.8971   7.6290   H         1 RES1   0.0000
    42 H14      6.4246   3.4254   7.9938   H         1 RES1   0.0000
    43 H15      5.6044   2.5484   9.0523   H         1 RES1   0.0000
    44 C18      3.5340   4.2268   9.5121   C.3       1 RES1   0.0000
    45 H16      2.9487   3.9049   8.7949   H         1 RES1   0.0000
    46 H17      3.6036   3.5414  10.2100   H         1 RES1   0.0000
    47 H18      3.1593   5.0461   9.8962   H         1 RES1   0.0000
    48 C19     14.4216   8.7215  10.0380   C.3       1 RES1   0.0000
    49 C20     14.2881  10.2567   9.9292   C.3       1 RES1   0.0000
    50 H19     14.9978  10.6057   9.3511   H         1 RES1   0.0000
    51 H20     13.4147  10.4819   9.5451   H         1 RES1   0.0000
    52 H21     14.3664  10.6551  10.8199   H         1 RES1   0.0000
    53 C21     14.3414   8.0821   8.6407   C.3       1 RES1   0.0000
    54 H22     15.0548   8.4427   8.0736   H         1 RES1   0.0000
    55 H23     14.4466   7.1110   8.7192   H         1 RES1   0.0000
    56 H24     13.4707   8.2851   8.2388   H         1 RES1   0.0000
    57 C22     15.7841   8.3671  10.6615   C.3       1 RES1   0.0000
    58 H25     16.5034   8.7147  10.0944   H         1 RES1   0.0000
    59 H26     15.8483   8.7684  11.5536   H         1 RES1   0.0000
    60 H27     15.8664   7.3937  10.7359   H         1 RES1   0.0000
    61 C23      9.4587   7.2498   9.4529   C.1       1 RES1   0.0000
    62 C24      9.5380  10.1334  11.7325   C.3       1 RES1   0.0000
    63 H28     10.0401  10.1745  10.8928   H         1 RES1   0.0000
    64 H29      9.0138  10.9545  11.8413   H         1 RES1   0.0000
    65 H30     10.1635  10.0436  12.4828   H         1 RES1   0.0000
    66 C25      7.1078   9.2401  10.5679   C.3       1 RES1   0.0000
    67 H31      6.4477   8.5199  10.4867   H         1 RES1   0.0000
    68 H32      6.6721  10.0432  10.9203   H         1 RES1   0.0000
    69 H33      7.4884   9.4351   9.6856   H         1 RES1   0.0000
    70 C26      7.6123   8.8095  13.3032   C.3       1 RES1   0.0000
    71 H34      6.9778   8.0680  13.3872   H         1 RES1   0.0000
    72 H35      8.2816   8.7493  14.0176   H         1 RES1   0.0000
    73 H36      7.1319   9.6602  13.3761   H         1 RES1   0.0000
    74 C27     11.7375   4.8566   9.2657   C.3       1 RES1   0.0000
    75 H37     12.3781   5.5696   9.4708   H         1 RES1   0.0000
    76 H38     12.2120   4.0026   9.1955   H         1 RES1   0.0000
    77 H39     11.2913   5.0539   8.4164   H         1 RES1   0.0000
    78 C28      9.4043   3.4208  10.0889   C.3       1 RES1   0.0000
    79 H40      8.8344   3.7294   9.3538   H         1 RES1   0.0000
    80 H41      9.9431   2.6602   9.7874   H         1 RES1   0.0000
    81 H42      8.8427   3.1464  10.8433   H         1 RES1   0.0000
    82 C29     11.4479   3.9890  11.9555   C.3       1 RES1   0.0000
    83 H43     12.0823   4.6422  12.3162   H         1 RES1   0.0000
    84 H44     10.8378   3.6995  12.6658   H         1 RES1   0.0000
    85 H45     11.9365   3.2131  11.6086   H         1 RES1   0.0000
    86 Cl1     13.7954   5.6713   6.0203   Cl        2 RES2   0.0000
    87 Cl2     13.7699   2.7946   6.4417   Cl        2 RES2   0.0000
    88 C30     13.0932   4.1639   5.5324   C.3       2 RES2   0.0000
    89 H46     13.2552   4.0262   4.5661   H         2 RES2   0.0000
    90 H47     12.1150   4.1987   5.6756   H         2 RES2   0.0000
    91 S1       8.8434   5.2040   6.0642   S.o2      3 RES3   0.0000
    92 F1       9.2450   3.3228   4.2825   F         3 RES3   0.0000
    93 F2       9.7967   2.7896   6.2772   F         3 RES3   0.0000
    94 F3       7.7457   2.8439   5.7155   F         3 RES3   0.0000
    95 O2       8.3328   5.1232   7.4128   O.2       3 RES3   0.0000
    96 O3       7.9133   5.8052   5.1332   O.3       3 RES3  -1.0000
    97 O4      10.2051   5.6127   5.9578   O.2       3 RES3   0.0000
    98 C31      8.9157   3.4541   5.5669   C.3       3 RES3   0.0000
    99 S2       4.1780   5.7209  15.1004   S.o2      4 RES4   0.0000
   100 F4       1.5722   5.7457  14.8739   F         4 RES4   0.0000
   101 F5       2.3849   3.8360  15.1698   F         4 RES4   0.0000
   102 F6       2.6271   4.7208  13.2908   F         4 RES4   0.0000
   103 O5       5.1252   4.6433  14.8243   O.3       4 RES4  -1.0000
   104 O6       4.2906   6.8460  14.2324   O.2       4 RES4   0.0000
   105 O7       4.0009   6.0139  16.4789   O.2       4 RES4   0.0000
   106 C32      2.5961   4.9710  14.6137   C.3       4 RES4   0.0000
@<TRIPOS>BOND
     1     1     2    1
     2     2    62    1
     3     3     1    1
     4     4    61    3
     5     5     6    1
     6     7     1    1
     7     8     9    1
     8    10     1    1
     9    11     1    1
    10    12    13    1
    11    14    30    2
    12    15     5    1
    13    16    15    2
    14    17    16    1
    15    18     7    2
    16    19    11    2
    17    20    19    1
    18    21    20   ar
    19    22    21    1
    20    23    21   ar
    21    24    23    1
    22    25    23   ar
    23    26    25    1
    24    27    25   ar
    25    28    27    1
    26    29    20   ar
    27    30    11    1
    28    31    10    2
    29    32    31    1
    30    33    32    1
    31    34     8    1
    32    35    15    1
    33    36    35    1
    34    37    36    1
    35    38    36    1
    36    39    36    1
    37    40    35    1
    38    41    40    1
    39    42    40    1
    40    43    40    1
    41    44    35    1
    42    45    44    1
    43    46    44    1
    44    47    44    1
    45    48    34    1
    46    49    48    1
    47    50    49    1
    48    51    49    1
    49    52    49    1
    50    53    48    1
    51    54    53    1
    52    55    53    1
    53    56    53    1
    54    57    48    1
    55    58    57    1
    56    59    57    1
    57    60    57    1
    58    61     1    1
    59    62    63    1
    60    64    62    1
    61    65    62    1
    62    66     2    1
    63    67    66    1
    64    68    66    1
    65    69    66    1
    66    70     2    1
    67    71    70    1
    68    72    70    1
    69    73    70    1
    70    74     3    1
    71    75    74    1
    72    76    74    1
    73    77    74    1
    74    78     3    1
    75    79    78    1
    76    80    78    1
    77    81    78    1
    78    82     3    1
    79    83    82    1
    80    84    82    1
    81    85    82    1
    82     5     7    1
    83     8    10    1
    84    12    18    1
    85    12    19    1
    86    14    31    1
    87    16    18    1
    88    27    29   ar
    89    29    30    1
    90    32    34    2
    91    86    88    1
    92    87    88    1
    93    88    89    1
    94    90    88    1
    95    91    95    2
    96    92    98    1
    97    93    98    1
    98    94    98    1
    99    96    91    1
   100    97    91    2
   101    98    91    1
   102    99   103    1
   103   100   106    1
   104   101   106    1
   105   102   106    1
   106   104    99    2
   107   105    99    2
   108   106    99    1
@<TRIPOS>SUBSTRUCTURE
     1 RES1        1 GROUP             0 ****  ****    0  
     2 RES2       86 GROUP             0 ****  ****    0  
     3 RES3       91 GROUP             0 ****  ****    0  
     4 RES4       99 GROUP             0 ****  ****    0  
@<TRIPOS>CRYSIN
   12.5365   13.0827   14.8863   75.7200   71.3940   82.6550     2     1
