@<TRIPOS>MOLECULE
DARPOD
    86    88     5     0     0
SMALL
USER_CHARGES
****
Generated from the CSD

@<TRIPOS>ATOM
     1 Fe1      6.8361  11.9768   3.3609   Fe        1 RES1   0.0000
     2 N1       8.0291  10.2354   5.5825   N.1       1 RES1   0.0000
     3 N2       4.0592  10.9843   4.1854   N.1       1 RES1   0.0000
     4 N3       7.1416   9.5758   1.4253   N.1       1 RES1   0.0000
     5 N4       6.5688  14.3844   5.2957   N.1       1 RES1   0.0000
     6 N5       6.1834  13.1170   1.8606   N.ar      1 RES1   0.0000
     7 N6       8.5695  12.7665   2.7876   N.ar      1 RES1   0.0000
     8 C1       7.5633  10.8976   4.7632   C.1       1 RES1  -1.0000
     9 C2       5.1101  11.3373   3.8906   C.1       1 RES1   0.0000
    10 C3       7.0253  10.4617   2.1428   C.1       1 RES1   0.0000
    11 C4       6.6453  13.4739   4.6039   C.1       1 RES1   0.0000
    12 C5       4.9286  13.1674   1.3767   C.ar      1 RES1   0.0000
    13 H1       4.2755  12.6255   1.7612   H         1 RES1   0.0000
    14 C6       4.5778  13.9938   0.3347   C.ar      1 RES1   0.0000
    15 H2       3.6992  14.0003   0.0275   H         1 RES1   0.0000
    16 C7       5.5180  14.8125  -0.2558   C.ar      1 RES1   0.0000
    17 C8       6.8079  14.7569   0.2438   C.ar      1 RES1   0.0000
    18 H3       7.4710  15.2962  -0.1236   H         1 RES1   0.0000
    19 C9       7.1180  13.9020   1.2893   C.ar      1 RES1   0.0000
    20 C10      8.4736  13.7403   1.8481   C.ar      1 RES1   0.0000
    21 C11      9.5607  14.5008   1.4745   C.ar      1 RES1   0.0000
    22 H4       9.4587  15.1759   0.8428   H         1 RES1   0.0000
    23 C12     10.8005  14.2641   2.0410   C.ar      1 RES1   0.0000
    24 C13     10.8950  13.2295   2.9611   C.ar      1 RES1   0.0000
    25 H5      11.7176  13.0251   3.3456   H         1 RES1   0.0000
    26 C14      9.7771  12.5091   3.3024   C.ar      1 RES1   0.0000
    27 H6       9.8629  11.8159   3.9155   H         1 RES1   0.0000
    28 C15      5.1693  15.7398  -1.3887   C.3       1 RES1   0.0000
    29 H7       5.9534  16.2209  -1.6617   H         1 RES1   0.0000
    30 H8       4.4974  16.3619  -1.0986   H         1 RES1   0.0000
    31 H9       4.8325  15.2290  -2.1286   H         1 RES1   0.0000
    32 C16     11.9936  15.0957   1.6668   C.3       1 RES1   0.0000
    33 H10     12.7642  14.7866   2.1475   H         1 RES1   0.0000
    34 H11     11.8263  16.0153   1.8882   H         1 RES1   0.0000
    35 H12     12.1531  15.0194   0.7227   H         1 RES1   0.0000
    36 P1      12.1228   1.9953   6.9125   P.3       2 RES2   1.0000
    37 C17     13.1107   0.9131   5.8627   C.ar      2 RES2   0.0000
    38 C18     13.8930   1.4822   4.8648   C.ar      2 RES2   0.0000
    39 H13     13.9236   2.4069   4.7670   H         2 RES2   0.0000
    40 C19     14.6291   0.6712   4.0151   C.ar      2 RES2   0.0000
    41 H14     15.1572   1.0489   3.3491   H         2 RES2   0.0000
    42 C20     14.5710  -0.7062   4.1627   C.ar      2 RES2   0.0000
    43 H15     15.0471  -1.2532   3.5808   H         2 RES2   0.0000
    44 C21     13.8200  -1.2662   5.1549   C.ar      2 RES2   0.0000
    45 H16     13.7950  -2.1909   5.2476   H         2 RES2   0.0000
    46 C22     13.0983  -0.4669   6.0235   C.ar      2 RES2   0.0000
    47 H17     12.6052  -0.8523   6.7119   H         2 RES2   0.0000
    48 C23     10.9904   1.0088   7.9102   C.ar      2 RES2   0.0000
    49 C24     10.1726   0.0569   7.2972   C.ar      2 RES2   0.0000
    50 H18     10.2295  -0.0918   6.3823   H         2 RES2   0.0000
    51 C25      9.2820  -0.6557   8.0594   C.ar      2 RES2   0.0000
    52 H19      8.7334  -1.2895   7.6560   H         2 RES2   0.0000
    53 C26      9.1935  -0.4397   9.4189   C.ar      2 RES2   0.0000
    54 H20      8.5851  -0.9273   9.9253   H         2 RES2   0.0000
    55 C27      9.9982   0.4876  10.0266   C.ar      2 RES2   0.0000
    56 H21      9.9409   0.6182  10.9467   H         2 RES2   0.0000
    57 C28     10.8895   1.2261   9.2833   C.ar      2 RES2   0.0000
    58 H22     11.4242   1.8663   9.6953   H         2 RES2   0.0000
    59 C29     13.2013   2.9850   7.9516   C.ar      2 RES2   0.0000
    60 C30     12.6527   4.0481   8.6585   C.ar      2 RES2   0.0000
    61 H23     11.7467   4.2447   8.5726   H         2 RES2   0.0000
    62 C31     13.4503   4.8151   9.4962   C.ar      2 RES2   0.0000
    63 H24     13.0805   5.5186   9.9785   H         2 RES2   0.0000
    64 C32     14.7813   4.5318   9.6060   C.ar      2 RES2   0.0000
    65 H25     15.3191   5.0479  10.1622   H         2 RES2   0.0000
    66 C33     15.3376   3.4894   8.8971   C.ar      2 RES2   0.0000
    67 H26     16.2464   3.3122   8.9760   H         2 RES2   0.0000
    68 C34     14.5564   2.7056   8.0731   C.ar      2 RES2   0.0000
    69 H27     14.9331   1.9982   7.6028   H         2 RES2   0.0000
    70 C35     11.1601   3.1105   5.8723   C.ar      2 RES2   0.0000
    71 C36     11.7968   4.2369   5.3472   C.ar      2 RES2   0.0000
    72 H28     12.6804   4.4258   5.5686   H         2 RES2   0.0000
    73 C37     11.0930   5.0737   4.4889   C.ar      2 RES2   0.0000
    74 H29     11.5069   5.8265   4.1301   H         2 RES2   0.0000
    75 C38      9.7868   4.7931   4.1679   C.ar      2 RES2   0.0000
    76 H30      9.3193   5.3570   3.5945   H         2 RES2   0.0000
    77 C39      9.1717   3.6873   4.6863   C.ar      2 RES2   0.0000
    78 H31      8.2907   3.4998   4.4545   H         2 RES2   0.0000
    79 C40      9.8369   2.8544   5.5429   C.ar      2 RES2   0.0000
    80 H32      9.4029   2.1159   5.9051   H         2 RES2   0.0000
    81 O1       1.2355  11.1175   4.0632   O.3       3 RES3   0.0000
    82 H34      1.9352  10.5794   4.1198   H         3 RES3   0.0000
    83 H35      1.1732  11.4977   2.9182   H         3 RES3   0.0000
    84 O2       0.5986  12.0538   1.6926   O.3       4 RES4   0.0000
    85 H33      1.6500  12.4806   1.3922   H         4 RES4   0.0000
    86 O3       9.2225   7.6565  -0.7982   O.3       5 RES5   0.0000
@<TRIPOS>BOND
     1     1     6    1
     2     2     8    3
     3     3     9    3
     4     4    10    3
     5     5    11    3
     6     6    12   ar
     7     7     1    1
     8     8     1    1
     9     9     1    1
    10    10     1    1
    11    11     1    1
    12    12    13    1
    13    14    12   ar
    14    15    14    1
    15    16    14   ar
    16    17    16   ar
    17    18    17    1
    18    19     6   ar
    19    20     7   ar
    20    21    20   ar
    21    22    21    1
    22    23    21   ar
    23    24    23   ar
    24    25    24    1
    25    26     7   ar
    26    27    26    1
    27    28    16    1
    28    29    28    1
    29    30    28    1
    30    31    28    1
    31    32    23    1
    32    33    32    1
    33    34    32    1
    34    35    32    1
    35    17    19   ar
    36    19    20    1
    37    24    26   ar
    38    36    37    1
    39    37    38   ar
    40    38    39    1
    41    40    38   ar
    42    41    40    1
    43    42    40   ar
    44    43    42    1
    45    44    42   ar
    46    45    44    1
    47    46    37   ar
    48    47    46    1
    49    48    36    1
    50    49    48   ar
    51    50    49    1
    52    51    49   ar
    53    52    51    1
    54    53    51   ar
    55    54    53    1
    56    55    53   ar
    57    56    55    1
    58    57    48   ar
    59    58    57    1
    60    59    36    1
    61    60    59   ar
    62    61    60    1
    63    62    60   ar
    64    63    62    1
    65    64    62   ar
    66    65    64    1
    67    66    64   ar
    68    67    66    1
    69    68    59   ar
    70    69    68    1
    71    70    36    1
    72    71    70   ar
    73    72    71    1
    74    73    71   ar
    75    74    73    1
    76    75    73   ar
    77    76    75    1
    78    77    75   ar
    79    78    77    1
    80    79    70   ar
    81    80    79    1
    82    44    46   ar
    83    55    57   ar
    84    66    68   ar
    85    77    79   ar
    86    81    82    1
    87    83    81    1
    88    84    85    1
@<TRIPOS>SUBSTRUCTURE
     1 RES1        1 GROUP             0 ****  ****    0  
     2 RES2       36 GROUP             0 ****  ****    0  
     3 RES3       81 GROUP             0 ****  ****    0  
     4 RES4       84 GROUP             0 ****  ****    0  
     5 RES5       86 GROUP             0 ****  ****    0  
@<TRIPOS>CRYSIN
   17.0603   12.9333   18.5949   90.0000  112.6090   90.0000    14     2
