@<TRIPOS>MOLECULE
DASXAA
    76    84     2     0     0
SMALL
USER_CHARGES
****
Generated from the CSD

@<TRIPOS>ATOM
     1 Br1      3.2771   9.7294  18.2012   Br        1 RES1   0.0000
     2 Br2      9.0917  -0.8599  18.1298   Br        1 RES1   0.0000
     3 Fe1      6.2841   4.4730  22.4382   Fe        1 RES1   1.0000
     4 O1       6.7503   5.7939  21.1765   O.3       1 RES1   0.0000
     5 O2       5.7750   3.1844  21.1609   O.3       1 RES1   0.0000
     6 N1       5.7564   3.2102  23.8509   N.ar      1 RES1   0.0000
     7 N2       4.4026   4.9575  22.4746   N.2       1 RES1   0.0000
     8 N3       6.8459   5.7011  23.8726   N.ar      1 RES1   0.0000
     9 N4       8.1736   3.9962  22.4110   N.2       1 RES1   0.0000
    10 C1       6.5307   2.3555  24.5170   C.ar      1 RES1   0.0000
    11 H1       7.3956   2.3830  24.3819   H         1 RES1   0.0000
    12 C2       6.0232   1.4850  25.4938   C.ar      1 RES1   0.0000
    13 H2       6.6014   0.9453  25.9080   H         1 RES1   0.0000
    14 C3       4.6892   1.4968  25.7696   C.ar      1 RES1   0.0000
    15 H3       4.4051   0.8272  26.3722   H         1 RES1   0.0000
    16 C4       3.8268   2.3732  25.0635   C.ar      1 RES1   0.0000
    17 C5       2.4197   2.4421  25.2417   C.ar      1 RES1   0.0000
    18 H4       2.0350   1.8513  25.8246   H         1 RES1   0.0000
    19 C6       1.6801   3.3284  24.5048   C.ar      1 RES1   0.0000
    20 H5       0.7197   3.4071  24.6488   H         1 RES1   0.0000
    21 C7       2.2795   4.1969  23.5743   C.ar      1 RES1   0.0000
    22 H6       1.7744   4.7070  23.1282   H         1 RES1   0.0000
    23 C8       3.6357   4.1555  23.3773   C.ar      1 RES1   0.0000
    24 C9       4.4163   3.2319  24.1036   C.ar      1 RES1   0.0000
    25 C10      3.8368   5.8295  21.7007   C.2       1 RES1   0.0000
    26 H7       2.8292   5.9477  21.7105   H         1 RES1   0.0000
    27 C11      4.5317   6.6961  20.8048   C.ar      1 RES1   0.0000
    28 C12      3.7512   7.6316  20.0915   C.ar      1 RES1   0.0000
    29 H8       2.7671   7.6414  20.2372   H         1 RES1   0.0000
    30 C13      4.3430   8.5178  19.2261   C.ar      1 RES1   0.0000
    31 C14      5.7279   8.5060  19.0366   C.ar      1 RES1   0.0000
    32 H9       6.0554   9.1185  18.4581   H         1 RES1   0.0000
    33 C15      6.4997   7.6001  19.7134   C.ar      1 RES1   0.0000
    34 H10      7.3708   7.5626  19.6284   H         1 RES1   0.0000
    35 C16      5.9363   6.6587  20.6055   C.ar      1 RES1   0.0000
    36 C17      6.1014   6.5326  24.5815   C.ar      1 RES1   0.0000
    37 H11      5.1248   6.5385  24.4375   H         1 RES1   0.0000
    38 C18      6.6449   7.3933  25.5503   C.ar      1 RES1   0.0000
    39 H12      6.1051   8.0156  25.9358   H         1 RES1   0.0000
    40 C19      7.9962   7.3874  25.7765   C.ar      1 RES1   0.0000
    41 H13      8.3723   7.9706  26.4254   H         1 RES1   0.0000
    42 C20      8.8288   6.5110  25.0407   C.ar      1 RES1   0.0000
    43 C21     10.2372   6.4381  25.1797   C.ar      1 RES1   0.0000
    44 H14     10.6343   6.9915  25.9636   H         1 RES1   0.0000
    45 C22     10.9581   5.5715  24.3994   C.ar      1 RES1   0.0000
    46 H15     11.9620   5.5735  24.3791   H         1 RES1   0.0000
    47 C23     10.3315   4.7306  23.4584   C.ar      1 RES1   0.0000
    48 H16     10.8204   4.2146  23.0170   H         1 RES1   0.0000
    49 C24      8.9653   4.7700  23.3019   C.ar      1 RES1   0.0000
    50 C25      8.2059   5.6759  24.0839   C.ar      1 RES1   0.0000
    51 C26      8.7035   3.1353  21.5982   C.2       1 RES1   0.0000
    52 H17      9.6664   2.9935  21.5159   H         1 RES1   0.0000
    53 C27      7.9788   2.2609  20.7253   C.ar      1 RES1   0.0000
    54 C28      8.7233   1.3077  19.9892   C.ar      1 RES1   0.0000
    55 H18      9.6912   1.2801  20.0843   H         1 RES1   0.0000
    56 C29      8.0967   0.4037  19.1705   C.ar      1 RES1   0.0000
    57 C30      6.6945   0.4018  19.0557   C.ar      1 RES1   0.0000
    58 H19      6.2292  -0.2560  18.4303   H         1 RES1   0.0000
    59 C31      5.9649   1.3313  19.7487   C.ar      1 RES1   0.0000
    60 H20      5.1372   1.3195  19.6645   H         1 RES1   0.0000
    61 C32      6.5679   2.3003  20.5852   C.ar      1 RES1   0.0000
    62 S1       4.3100  12.4579  12.6046   S.o2      2 RES2   0.0000
    63 S2       2.5072  10.8045  14.0009   S.o2      2 RES2   0.0000
    64 F1       5.6559  14.5855  13.2609   F         2 RES2   0.0000
    65 F2       4.6160  13.6695  14.9107   F         2 RES2   0.0000
    66 F3       3.5179  14.8149  13.4602   F         2 RES2   0.0000
    67 F4       2.3452  12.4764  16.0018   F         2 RES2   0.0000
    68 F5       1.0138  10.8083  16.1266   F         2 RES2   0.0000
    69 F6       0.5720  12.4106  14.7712   F         2 RES2   0.0000
    70 O3       5.3978  11.6057  12.9715   O.2       2 RES2   0.0000
    71 O4       4.2587  12.9522  11.2697   O.2       2 RES2   0.0000
    72 O5       3.5874  10.1938  14.7106   O.2       2 RES2   0.0000
    73 O6       1.5312   9.9437  13.4021   O.2       2 RES2   0.0000
    74 N5       2.8714  11.9624  13.0121   N.2       2 RES2  -1.0000
    75 C33      4.5304  13.9732  13.6184   C.3       2 RES2   0.0000
    76 C34      1.5796  11.6689  15.2766   C.3       2 RES2   0.0000
@<TRIPOS>BOND
     1     1    30    1
     2     2    56    1
     3     3     4    1
     4     4    35    1
     5     5     3    1
     6     6     3    1
     7     7     3    1
     8     8     3    1
     9     9     3    1
    10    10     6   ar
    11    11    10    1
    12    12    10   ar
    13    13    12    1
    14    14    12   ar
    15    15    14    1
    16    16    14   ar
    17    17    16   ar
    18    18    17    1
    19    19    17   ar
    20    20    19    1
    21    21    19   ar
    22    22    21    1
    23    23     7    1
    24    24     6   ar
    25    25     7    2
    26    26    25    1
    27    27    25    1
    28    28    27   ar
    29    29    28    1
    30    30    28   ar
    31    31    30   ar
    32    32    31    1
    33    33    31   ar
    34    34    33    1
    35    35    27   ar
    36    36     8   ar
    37    37    36    1
    38    38    36   ar
    39    39    38    1
    40    40    38   ar
    41    41    40    1
    42    42    40   ar
    43    43    42   ar
    44    44    43    1
    45    45    43   ar
    46    46    45    1
    47    47    45   ar
    48    48    47    1
    49    49     9    1
    50    50     8   ar
    51    51     9    2
    52    52    51    1
    53    53    51    1
    54    54    53   ar
    55    55    54    1
    56    56    54   ar
    57    57    56   ar
    58    58    57    1
    59    59    57   ar
    60    60    59    1
    61    61     5    1
    62    16    24   ar
    63    21    23   ar
    64    23    24   ar
    65    33    35   ar
    66    42    50   ar
    67    47    49   ar
    68    49    50   ar
    69    53    61   ar
    70    59    61   ar
    71    62    70    2
    72    63    72    2
    73    64    75    1
    74    65    75    1
    75    66    75    1
    76    67    76    1
    77    68    76    1
    78    69    76    1
    79    71    62    2
    80    73    63    2
    81    74    62    1
    82    75    62    1
    83    76    63    1
    84    63    74    1
@<TRIPOS>SUBSTRUCTURE
     1 RES1        1 GROUP             0 ****  ****    0  
     2 RES2       62 GROUP             0 ****  ****    0  
@<TRIPOS>CRYSIN
   12.4087   19.6944   27.7983   90.0000   90.0000   90.0000    61     1
