@<TRIPOS>MOLECULE
DASXAA01
    76    84     2     0     0
SMALL
USER_CHARGES
****
Generated from the CSD

@<TRIPOS>ATOM
     1 Br1      3.3720   8.9943  23.7936   Br        1 RES1   0.0000
     2 Br2      9.2015  19.6032  23.7230   Br        1 RES1   0.0000
     3 Fe1      6.2341  14.3095  19.5148   Fe        1 RES1   1.0000
     4 O1       5.7599  15.6199  20.7836   O.3       1 RES1   0.0000
     5 O2       6.7272  13.0117  20.7811   O.3       1 RES1   0.0000
     6 N1       6.7699  13.0593  18.0902   N.ar      1 RES1   0.0000
     7 N2       8.1216  14.7951  19.4816   N.2       1 RES1   0.0000
     8 N3       5.6732  15.5372  18.0750   N.ar      1 RES1   0.0000
     9 N4       4.3403  13.8239  19.5257   N.2       1 RES1   0.0000
    10 C1       6.4282  16.3717  17.3834   C.ar      1 RES1   0.0000
    11 H1       7.3455  16.3858  17.5349   H         1 RES1   0.0000
    12 C2       5.8805  17.2378  16.4247   C.ar      1 RES1   0.0000
    13 H2       6.4340  17.8085  15.9427   H         1 RES1   0.0000
    14 C3       4.5451  17.2398  16.1969   C.ar      1 RES1   0.0000
    15 H3       4.1812  17.8242  15.5719   H         1 RES1   0.0000
    16 C4       3.7034  16.3578  16.9141   C.ar      1 RES1   0.0000
    17 C5       2.3039  16.2805  16.7649   C.ar      1 RES1   0.0000
    18 H4       1.8708  16.8192  16.1421   H         1 RES1   0.0000
    19 C6       1.5829  15.4084  17.5380   C.ar      1 RES1   0.0000
    20 H5       0.6580  15.3800  17.4441   H         1 RES1   0.0000
    21 C7       2.1934  14.5581  18.4666   C.ar      1 RES1   0.0000
    22 H6       1.6837  13.9646  18.9689   H         1 RES1   0.0000
    23 C8       3.5526  14.6116  18.6258   C.ar      1 RES1   0.0000
    24 C9       4.3227  15.5174  17.8653   C.ar      1 RES1   0.0000
    25 C10      3.8089  12.9606  20.3203   C.2       1 RES1   0.0000
    26 H7       2.8821  12.8920  20.3128   H         1 RES1   0.0000
    27 C11      4.5187  12.1023  21.2115   C.ar      1 RES1   0.0000
    28 C12      3.7700  11.1430  21.9447   C.ar      1 RES1   0.0000
    29 H8       2.8427  11.1252  21.8696   H         1 RES1   0.0000
    30 C13      4.3981  10.2511  22.7550   C.ar      1 RES1   0.0000
    31 C14      5.7762  10.2571  22.8885   C.ar      1 RES1   0.0000
    32 H9       6.1934   9.6406  23.4467   H         1 RES1   0.0000
    33 C15      6.5224  11.1728  22.1966   C.ar      1 RES1   0.0000
    34 H10      7.4478  11.1588  22.2808   H         1 RES1   0.0000
    35 C16      5.9257  12.1340  21.3563   C.ar      1 RES1   0.0000
    36 C17      6.0124  12.2094  17.4174   C.ar      1 RES1   0.0000
    37 H11      5.0996  12.1886  17.5948   H         1 RES1   0.0000
    38 C18      6.5299  11.3412  16.4472   C.ar      1 RES1   0.0000
    39 H12      5.9692  10.7510  15.9991   H         1 RES1   0.0000
    40 C19      7.8515  11.3729  16.1716   C.ar      1 RES1   0.0000
    41 H13      8.1987  10.8121  15.5157   H         1 RES1   0.0000
    42 C20      8.7083  12.2490  16.8708   C.ar      1 RES1   0.0000
    43 C21     10.1102  12.3422  16.7058   C.ar      1 RES1   0.0000
    44 H14     10.5353  11.7962  16.0843   H         1 RES1   0.0000
    45 C22     10.8401  13.2103  17.4312   C.ar      1 RES1   0.0000
    46 H15     11.7615  13.2417  17.3119   H         1 RES1   0.0000
    47 C23     10.2396  14.0745  18.3705   C.ar      1 RES1   0.0000
    48 H16     10.7591  14.6801  18.8481   H         1 RES1   0.0000
    49 C24      8.8879  14.0150  18.5743   C.ar      1 RES1   0.0000
    50 C25      8.1141  13.0894  17.8397   C.ar      1 RES1   0.0000
    51 C26      8.6706  15.6898  20.2480   C.2       1 RES1   0.0000
    52 H17      9.5954  15.7762  20.2084   H         1 RES1   0.0000
    53 C27      7.9734  16.5441  21.1406   C.ar      1 RES1   0.0000
    54 C28      8.7422  17.4955  21.8483   C.ar      1 RES1   0.0000
    55 H18      9.6637  17.5303  21.7262   H         1 RES1   0.0000
    56 C29      8.1342  18.3695  22.7142   C.ar      1 RES1   0.0000
    57 C30      6.7711  18.3497  22.8967   C.ar      1 RES1   0.0000
    58 H19      6.3684  18.9593  23.4719   H         1 RES1   0.0000
    59 C31      6.0061  17.4241  22.2219   C.ar      1 RES1   0.0000
    60 H20      5.0852  17.4193  22.3525   H         1 RES1   0.0000
    61 C32      6.5714  16.4926  21.3473   C.ar      1 RES1   0.0000
    62 S1       2.6257  10.9276  14.2219   S.o2      2 RES2   0.0000
    63 S2       4.3257  12.5852  12.7607   S.o2      2 RES2   0.0000
    64 F1       0.6143  12.4036  14.9093   F         2 RES2   0.0000
    65 F2       1.0213  10.8616  16.2411   F         2 RES2   0.0000
    66 F3       2.3718  12.5166  16.1660   F         2 RES2   0.0000
    67 F4       4.7574  13.7791  15.0423   F         2 RES2   0.0000
    68 F5       5.7297  14.6532  13.3124   F         2 RES2   0.0000
    69 F6       3.6695  14.9168  13.6863   F         2 RES2   0.0000
    70 O3       1.6796  10.0192  13.6104   O.2       2 RES2   0.0000
    71 O4       3.6280  10.3244  14.9374   O.2       2 RES2   0.0000
    72 O5       4.2574  13.0557  11.4554   O.2       2 RES2   0.0000
    73 O6       5.4408  11.7000  13.0649   O.2       2 RES2   0.0000
    74 N5       2.9346  12.0369  13.2336   N.2       2 RES2  -1.0000
    75 C33      1.6118  11.7079  15.4097   C.3       2 RES2   0.0000
    76 C34      4.6845  14.0309  13.7875   C.3       2 RES2   0.0000
@<TRIPOS>BOND
     1     1    30    1
     2     2    56    1
     3     3     4    1
     4     4    61    1
     5     5     3    1
     6     6     3    1
     7     7     3    1
     8     8     3    1
     9     9     3    1
    10    10     8   ar
    11    11    10    1
    12    12    10   ar
    13    13    12    1
    14    14    12   ar
    15    15    14    1
    16    16    14   ar
    17    17    16   ar
    18    18    17    1
    19    19    17   ar
    20    20    19    1
    21    21    19   ar
    22    22    21    1
    23    23     9    1
    24    24     8   ar
    25    25     9    2
    26    26    25    1
    27    27    25    1
    28    28    27   ar
    29    29    28    1
    30    30    28   ar
    31    31    30   ar
    32    32    31    1
    33    33    31   ar
    34    34    33    1
    35    35     5    1
    36    36     6   ar
    37    37    36    1
    38    38    36   ar
    39    39    38    1
    40    40    38   ar
    41    41    40    1
    42    42    40   ar
    43    43    42   ar
    44    44    43    1
    45    45    43   ar
    46    46    45    1
    47    47    45   ar
    48    48    47    1
    49    49     7    1
    50    50     6   ar
    51    51     7    2
    52    52    51    1
    53    53    51    1
    54    54    53   ar
    55    55    54    1
    56    56    54   ar
    57    57    56   ar
    58    58    57    1
    59    59    57   ar
    60    60    59    1
    61    61    53   ar
    62    16    24   ar
    63    21    23   ar
    64    23    24   ar
    65    27    35   ar
    66    33    35   ar
    67    42    50   ar
    68    47    49   ar
    69    49    50   ar
    70    59    61   ar
    71    62    70    2
    72    63    72    2
    73    64    75    1
    74    65    75    1
    75    66    75    1
    76    67    76    1
    77    68    76    1
    78    69    76    1
    79    71    62    2
    80    73    63    2
    81    74    62    1
    82    75    62    1
    83    76    63    1
    84    63    74    1
@<TRIPOS>SUBSTRUCTURE
     1 RES1        1 GROUP             0 ****  ****    0  
     2 RES2       62 GROUP             0 ****  ****    0  
@<TRIPOS>CRYSIN
   12.5624   19.8204   28.1148   90.0000   90.0000   90.0000    61     1
