@<TRIPOS>MOLECULE
DASXEE01
    76    84     2     0     0
SMALL
USER_CHARGES
****
Generated from the CSD

@<TRIPOS>ATOM
     1 Fe1      6.2525  14.2459  19.0384   Fe        1 RES1   1.0000
     2 Cl1      8.9933   8.9613  23.1429   Cl        1 RES1   0.0000
     3 Cl2      3.3478  19.4729  23.0985   Cl        1 RES1   0.0000
     4 O1       5.7516  12.9418  20.3087   O.3       1 RES1   0.0000
     5 O2       6.7202  15.5644  20.3011   O.3       1 RES1   0.0000
     6 N1       6.8106  15.4806  17.6040   N.ar      1 RES1   0.0000
     7 N2       8.1354  13.7594  19.0524   N.2       1 RES1   0.0000
     8 N3       5.7305  12.9794  17.6237   N.ar      1 RES1   0.0000
     9 N4       4.3748  14.7330  18.9965   N.2       1 RES1   0.0000
    10 C1       6.0567  16.3121  16.9003   C.ar      1 RES1   0.0000
    11 H1       5.1534  16.2958  17.0902   H         1 RES1   0.0000
    12 C2       6.6030  17.1882  15.9462   C.ar      1 RES1   0.0000
    13 H2       5.9196  17.7648  15.4954   H         1 RES1   0.0000
    14 C3       7.9611  17.1827  15.7163   C.ar      1 RES1   0.0000
    15 H3       8.3418  17.8039  15.1584   H         1 RES1   0.0000
    16 C4       8.7879  16.3001  16.4465   C.ar      1 RES1   0.0000
    17 C5      10.1980  16.2263  16.2972   C.ar      1 RES1   0.0000
    18 H4      10.5662  16.7463  15.5859   H         1 RES1   0.0000
    19 C6      10.9197  15.3519  17.0653   C.ar      1 RES1   0.0000
    20 H5      11.9009  15.3948  17.0326   H         1 RES1   0.0000
    21 C7      10.2931  14.4999  18.0048   C.ar      1 RES1   0.0000
    22 H6      10.7763  14.0042  18.4383   H         1 RES1   0.0000
    23 C8       8.9288  14.5489  18.1646   C.ar      1 RES1   0.0000
    24 C9       8.1700  15.4565  17.3927   C.ar      1 RES1   0.0000
    25 C10      8.6717  12.8696  19.8273   C.2       1 RES1   0.0000
    26 H7       9.5529  12.7507  19.8687   H         1 RES1   0.0000
    27 C11      7.9488  11.9823  20.6902   C.ar      1 RES1   0.0000
    28 C12      8.7014  11.0177  21.4007   C.ar      1 RES1   0.0000
    29 H8       9.6764  10.9879  21.3018   H         1 RES1   0.0000
    30 C13      8.0699  10.1128  22.2246   C.ar      1 RES1   0.0000
    31 C14      6.6783  10.1226  22.3630   C.ar      1 RES1   0.0000
    32 H9       6.2162   9.4602  22.9239   H         1 RES1   0.0000
    33 C15      5.9344  11.0643  21.6805   C.ar      1 RES1   0.0000
    34 H10      5.0174  11.0858  21.7375   H         1 RES1   0.0000
    35 C16      6.5375  12.0360  20.8549   C.ar      1 RES1   0.0000
    36 C17      6.4992  12.1286  16.9551   C.ar      1 RES1   0.0000
    37 H11      7.3655  12.1318  17.1423   H         1 RES1   0.0000
    38 C18      5.9838  11.2561  15.9867   C.ar      1 RES1   0.0000
    39 H12      6.5869  10.6941  15.5585   H         1 RES1   0.0000
    40 C19      4.6442  11.2555  15.7281   C.ar      1 RES1   0.0000
    41 H13      4.3377  10.7137  15.0570   H         1 RES1   0.0000
    42 C20      3.7878  12.1265  16.4326   C.ar      1 RES1   0.0000
    43 C21      2.3827  12.1940  16.2608   C.ar      1 RES1   0.0000
    44 H14      2.0515  11.5951  15.6160   H         1 RES1   0.0000
    45 C22      1.6387  13.0786  17.0006   C.ar      1 RES1   0.0000
    46 H15      0.7415  13.1424  16.8737   H         1 RES1   0.0000
    47 C23      2.2430  13.9627  17.9259   C.ar      1 RES1   0.0000
    48 H16      1.7425  14.5232  18.4548   H         1 RES1   0.0000
    49 C24      3.6036  13.9219  18.1109   C.ar      1 RES1   0.0000
    50 C25      4.3822  13.0047  17.3801   C.ar      1 RES1   0.0000
    51 C26      3.8174  15.6410  19.7352   C.2       1 RES1   0.0000
    52 H17      2.8300  15.7826  19.6796   H         1 RES1   0.0000
    53 C27      4.5095  16.5191  20.6247   C.ar      1 RES1   0.0000
    54 C28      3.7297  17.4743  21.3223   C.ar      1 RES1   0.0000
    55 H18      2.7559  17.5102  21.2059   H         1 RES1   0.0000
    56 C29      4.3278  18.3494  22.1964   C.ar      1 RES1   0.0000
    57 C30      5.7095  18.3216  22.4011   C.ar      1 RES1   0.0000
    58 H19      6.0802  18.9008  22.9842   H         1 RES1   0.0000
    59 C31      6.4744  17.3987  21.7344   C.ar      1 RES1   0.0000
    60 H20      7.4149  17.3730  21.8142   H         1 RES1   0.0000
    61 C32      5.9134  16.4564  20.8483   C.ar      1 RES1   0.0000
    62 S1       8.0947  12.3958  12.3659   S.o2      2 RES2   0.0000
    63 S2       9.8545  10.7374  13.8103   S.o2      2 RES2   0.0000
    64 F1       6.7488  14.5225  13.0156   F         2 RES2   0.0000
    65 F2       7.7486  13.5900  14.6830   F         2 RES2   0.0000
    66 F3       8.8769  14.7405  13.2559   F         2 RES2   0.0000
    67 F4       9.9940  12.4218  15.8037   F         2 RES2   0.0000
    68 F5      11.3138  10.7445  15.9552   F         2 RES2   0.0000
    69 F6      11.7835  12.3351  14.5978   F         2 RES2   0.0000
    70 O3       8.1848  12.9005  11.0403   O.2       2 RES2   0.0000
    71 O4       6.9898  11.5489  12.7046   O.2       2 RES2   0.0000
    72 O5       8.7559  10.1447  14.5128   O.2       2 RES2   0.0000
    73 O6      10.8353   9.8586  13.2425   O.2       2 RES2   0.0000
    74 N5       9.5257  11.8852  12.8024   N.2       2 RES2  -1.0000
    75 C33      7.8573  13.9000  13.3902   C.3       2 RES2   0.0000
    76 C34     10.7689  11.6155  15.1033   C.3       2 RES2   0.0000
@<TRIPOS>BOND
     1     1     4    1
     2     2    30    1
     3     3    56    1
     4     4    35    1
     5     5     1    1
     6     6     1    1
     7     7     1    1
     8     8     1    1
     9     9     1    1
    10    10     6   ar
    11    11    10    1
    12    12    10   ar
    13    13    12    1
    14    14    12   ar
    15    15    14    1
    16    16    14   ar
    17    17    16   ar
    18    18    17    1
    19    19    17   ar
    20    20    19    1
    21    21    19   ar
    22    22    21    1
    23    23     7    1
    24    24     6   ar
    25    25     7    2
    26    26    25    1
    27    27    25    1
    28    28    27   ar
    29    29    28    1
    30    30    28   ar
    31    31    30   ar
    32    32    31    1
    33    33    31   ar
    34    34    33    1
    35    35    27   ar
    36    36     8   ar
    37    37    36    1
    38    38    36   ar
    39    39    38    1
    40    40    38   ar
    41    41    40    1
    42    42    40   ar
    43    43    42   ar
    44    44    43    1
    45    45    43   ar
    46    46    45    1
    47    47    45   ar
    48    48    47    1
    49    49     9    1
    50    50     8   ar
    51    51     9    2
    52    52    51    1
    53    53    51    1
    54    54    53   ar
    55    55    54    1
    56    56    54   ar
    57    57    56   ar
    58    58    57    1
    59    59    57   ar
    60    60    59    1
    61    61     5    1
    62    16    24   ar
    63    21    23   ar
    64    23    24   ar
    65    33    35   ar
    66    42    50   ar
    67    47    49   ar
    68    49    50   ar
    69    53    61   ar
    70    59    61   ar
    71    62    70    2
    72    63    72    2
    73    64    75    1
    74    65    75    1
    75    66    75    1
    76    67    76    1
    77    68    76    1
    78    69    76    1
    79    71    62    2
    80    73    63    2
    81    74    62    1
    82    75    62    1
    83    76    63    1
    84    63    74    1
@<TRIPOS>SUBSTRUCTURE
     1 RES1        1 GROUP             0 ****  ****    0  
     2 RES2       62 GROUP             0 ****  ****    0  
@<TRIPOS>CRYSIN
   12.3582   19.5863   27.4013   90.0000   90.0000   90.0000    61     1
