@<TRIPOS>MOLECULE
DASXEE
    76    84     2     0     0
SMALL
USER_CHARGES
****
Generated from the CSD

@<TRIPOS>ATOM
     1 Fe1      6.2890   5.4288   8.4427   Fe        1 RES1   1.0000
     2 Cl1      3.3982   0.1869   4.4019   Cl        1 RES1   0.0000
     3 Cl2      9.0695  10.6969   4.3551   Cl        1 RES1   0.0000
     4 O1       6.7534   4.1084   7.1740   O.3       1 RES1   0.0000
     5 O2       5.8018   6.7375   7.1728   O.3       1 RES1   0.0000
     6 N1       5.7642   6.6920   9.8576   N.ar      1 RES1   0.0000
     7 N2       4.4089   4.9383   8.4826   N.2       1 RES1   0.0000
     8 N3       6.8402   4.1881   9.8750   N.ar      1 RES1   0.0000
     9 N4       8.1768   5.9146   8.4377   N.2       1 RES1   0.0000
    10 C1       6.5223   7.5542  10.5269   C.ar      1 RES1   0.0000
    11 H1       7.4340   7.5833  10.3458   H         1 RES1   0.0000
    12 C2       6.0011   8.4168  11.4905   C.ar      1 RES1   0.0000
    13 H2       6.5627   8.9964  11.9521   H         1 RES1   0.0000
    14 C3       4.6719   8.4049  11.7508   C.ar      1 RES1   0.0000
    15 H3       4.3207   8.9813  12.3907   H         1 RES1   0.0000
    16 C4       3.8241   7.5282  11.0579   C.ar      1 RES1   0.0000
    17 C5       2.4189   7.4448  11.2303   C.ar      1 RES1   0.0000
    18 H4       1.9944   7.9982  11.8454   H         1 RES1   0.0000
    19 C6       1.6907   6.5615  10.5028   C.ar      1 RES1   0.0000
    20 H5       0.7688   6.5317  10.6232   H         1 RES1   0.0000
    21 C7       2.2830   5.6942   9.5743   C.ar      1 RES1   0.0000
    22 H6       1.7597   5.0922   9.0959   H         1 RES1   0.0000
    23 C8       3.6383   5.7391   9.3770   C.ar      1 RES1   0.0000
    24 C9       4.4163   6.6634  10.1103   C.ar      1 RES1   0.0000
    25 C10      3.8578   4.0313   7.7463   C.2       1 RES1   0.0000
    26 H7       2.9340   3.9404   7.8024   H         1 RES1   0.0000
    27 C11      4.5498   3.1559   6.8527   C.ar      1 RES1   0.0000
    28 C12      3.7742   2.1948   6.1657   C.ar      1 RES1   0.0000
    29 H8       2.8550   2.1565   6.3044   H         1 RES1   0.0000
    30 C13      4.3715   1.3155   5.2924   C.ar      1 RES1   0.0000
    31 C14      5.7505   1.3604   5.0843   C.ar      1 RES1   0.0000
    32 H9       6.1541   0.7612   4.4983   H         1 RES1   0.0000
    33 C15      6.5023   2.2851   5.7450   C.ar      1 RES1   0.0000
    34 H10      7.4219   2.2922   5.6050   H         1 RES1   0.0000
    35 C16      5.9525   3.2275   6.6249   C.ar      1 RES1   0.0000
    36 C17      6.0871   3.3576  10.5732   C.ar      1 RES1   0.0000
    37 H11      5.1676   3.3539  10.4329   H         1 RES1   0.0000
    38 C18      6.6357   2.4783  11.5204   C.ar      1 RES1   0.0000
    39 H12      6.0817   1.9001  11.9929   H         1 RES1   0.0000
    40 C19      7.9736   2.4744  11.7466   C.ar      1 RES1   0.0000
    41 H13      8.3396   1.8881  12.3687   H         1 RES1   0.0000
    42 C20      8.8028   3.3610  11.0357   C.ar      1 RES1   0.0000
    43 C21     10.2067   3.4444  11.1915   C.ar      1 RES1   0.0000
    44 H14     10.6352   2.9038  11.8153   H         1 RES1   0.0000
    45 C22     10.9399   4.3158  10.4293   C.ar      1 RES1   0.0000
    46 H15     11.8639   4.3407  10.5264   H         1 RES1   0.0000
    47 C23     10.3214   5.1717   9.5053   C.ar      1 RES1   0.0000
    48 H16     10.8310   5.7715   9.0103   H         1 RES1   0.0000
    49 C24      8.9574   5.1187   9.3357   C.ar      1 RES1   0.0000
    50 C25      8.1993   4.2094  10.0948   C.ar      1 RES1   0.0000
    51 C26      8.7130   6.7999   7.6703   C.2       1 RES1   0.0000
    52 H17      9.6407   6.8703   7.6850   H         1 RES1   0.0000
    53 C27      8.0035   7.6831   6.7976   C.ar      1 RES1   0.0000
    54 C28      8.7566   8.6453   6.0911   C.ar      1 RES1   0.0000
    55 H18      9.6810   8.6689   6.1878   H         1 RES1   0.0000
    56 C29      8.1357   9.5461   5.2627   C.ar      1 RES1   0.0000
    57 C30      6.7492   9.5287   5.1153   C.ar      1 RES1   0.0000
    58 H19      6.3311  10.1471   4.5610   H         1 RES1   0.0000
    59 C31      6.0048   8.5981   5.7893   C.ar      1 RES1   0.0000
    60 H20      5.0801   8.6071   5.6918   H         1 RES1   0.0000
    61 C32      6.5884   7.6295   6.6224   C.ar      1 RES1   0.0000
    62 S1       1.9561   2.6402  12.5212   S.o2      2 RES2   0.0000
    63 S2       3.6546   0.9781  13.9990   S.o2      2 RES2   0.0000
    64 F1       0.5698   4.7279  13.1221   F         2 RES2   0.0000
    65 F2       1.5436   3.8034  14.8240   F         2 RES2   0.0000
    66 F3       2.6520   4.9643  13.4519   F         2 RES2   0.0000
    67 F4       5.1744   0.9661  16.0862   F         2 RES2   0.0000
    68 F5       5.6208   2.5079  14.7525   F         2 RES2   0.0000
    69 O3       0.8416   1.7804  12.8197   O.2       2 RES2   0.0000
    70 O4       2.0411   3.1408  11.2178   O.2       2 RES2   0.0000
    71 O5       2.5984   0.4002  14.7076   O.2       2 RES2   0.0000
    72 O6       4.6133   0.0789  13.4220   O.2       2 RES2   0.0000
    73 N5       3.3578   2.0998  12.9852   N.2       2 RES2  -1.0000
    74 C33      1.6546   4.1029  13.5525   C.3       2 RES2   0.0000
    75 C34      4.6071   1.8198  15.2484   C.3       2 RES2   0.0000
    76 F6       3.8864   2.6242  15.9581   F         2 RES2   0.0000
@<TRIPOS>BOND
     1     1     4    1
     2     2    30    1
     3     3    56    1
     4     4    35    1
     5     5     1    1
     6     6     1    1
     7     7     1    1
     8     8     1    1
     9     9     1    1
    10    10     6   ar
    11    11    10    1
    12    12    10   ar
    13    13    12    1
    14    14    12   ar
    15    15    14    1
    16    16    14   ar
    17    17    16   ar
    18    18    17    1
    19    19    17   ar
    20    20    19    1
    21    21    19   ar
    22    22    21    1
    23    23     7    1
    24    24     6   ar
    25    25     7    2
    26    26    25    1
    27    27    25    1
    28    28    27   ar
    29    29    28    1
    30    30    28   ar
    31    31    30   ar
    32    32    31    1
    33    33    31   ar
    34    34    33    1
    35    35    27   ar
    36    36     8   ar
    37    37    36    1
    38    38    36   ar
    39    39    38    1
    40    40    38   ar
    41    41    40    1
    42    42    40   ar
    43    43    42   ar
    44    44    43    1
    45    45    43   ar
    46    46    45    1
    47    47    45   ar
    48    48    47    1
    49    49     9    1
    50    50     8   ar
    51    51     9    2
    52    52    51    1
    53    53    51    1
    54    54    53   ar
    55    55    54    1
    56    56    54   ar
    57    57    56   ar
    58    58    57    1
    59    59    57   ar
    60    60    59    1
    61    61     5    1
    62    16    24   ar
    63    21    23   ar
    64    23    24   ar
    65    33    35   ar
    66    42    50   ar
    67    47    49   ar
    68    49    50   ar
    69    53    61   ar
    70    59    61   ar
    71    62    69    2
    72    63    71    2
    73    64    74    1
    74    65    74    1
    75    66    74    1
    76    67    75    1
    77    68    75    1
    78    70    62    2
    79    72    63    2
    80    73    62    1
    81    74    62    1
    82    75    63    1
    83    76    75    1
    84    63    73    1
@<TRIPOS>SUBSTRUCTURE
     1 RES1        1 GROUP             0 ****  ****    0  
     2 RES2       62 GROUP             0 ****  ****    0  
@<TRIPOS>CRYSIN
   12.4685   19.7160   27.7147   90.0000   90.0000   90.0000    61     1
