@<TRIPOS>MOLECULE
DAWWEE
    79    83     2     0     0
SMALL
NO_CHARGES
****
Generated from the CSD

@<TRIPOS>ATOM
     1 Fe1      4.6111   7.8002   6.2785   Fe        1 RES1   0.0000
     2 Cl1      6.3943   6.4688   6.9394   Cl        1 RES1   0.0000
     3 Cl2      5.5189   9.9452   7.1290   Cl        1 RES1   0.0000
     4 N1       2.7187   8.7752   5.5575   N.3       1 RES1   0.0000
     5 N2       3.6767   6.2044   5.1530   N.ar      1 RES1   0.0000
     6 N3       3.3762   7.9522   8.2352   N.pl3     1 RES1   0.0000
     7 H1       3.6802   9.0653   8.3986   H         1 RES1   0.0000
     8 N4       5.2606   9.0514   4.0988   N.pl3     1 RES1   0.0000
     9 H2       5.5545   9.9948   5.0767   H         1 RES1   0.0000
    10 C1       4.2477   5.0034   4.9119   C.ar      1 RES1   0.0000
    11 H3       5.0226   4.7789   5.3740   H         1 RES1   0.0000
    12 C2       3.7361   4.1038   4.0158   C.ar      1 RES1   0.0000
    13 H4       4.1535   3.2829   3.8845   H         1 RES1   0.0000
    14 C3       2.5793   4.4303   3.2992   C.ar      1 RES1   0.0000
    15 H5       2.2223   3.8413   2.6750   H         1 RES1   0.0000
    16 C4       1.9820   5.6487   3.5443   C.ar      1 RES1   0.0000
    17 H6       1.2090   5.8928   3.0875   H         1 RES1   0.0000
    18 C5       2.5473   6.5105   4.4833   C.ar      1 RES1   0.0000
    19 C6       1.8292   7.7884   4.8623   C.3       1 RES1   0.0000
    20 H7       1.4682   8.1974   4.0613   H         1 RES1   0.0000
    21 H8       1.0849   7.5705   5.4450   H         1 RES1   0.0000
    22 C7       1.9850   9.3087   6.7443   C.3       1 RES1   0.0000
    23 H9       1.0723   9.5175   6.4898   H         1 RES1   0.0000
    24 H10      2.4080  10.1299   7.0417   H         1 RES1   0.0000
    25 C8       1.9735   8.3183   7.8682   C.3       1 RES1   0.0000
    26 H11      1.5246   8.7029   8.6370   H         1 RES1   0.0000
    27 H12      1.4875   7.5242   7.5989   H         1 RES1   0.0000
    28 C9       3.4337   7.2123   9.4782   C.ar      1 RES1   0.0000
    29 C10      3.7808   7.8704  10.6623   C.ar      1 RES1   0.0000
    30 C11      3.8073   7.1521  11.8478   C.ar      1 RES1   0.0000
    31 H13      4.0403   7.5920  12.6341   H         1 RES1   0.0000
    32 C12      3.4978   5.8037  11.9014   C.ar      1 RES1   0.0000
    33 C13      3.1773   5.1711  10.7173   C.ar      1 RES1   0.0000
    34 H14      2.9878   4.2608  10.7347   H         1 RES1   0.0000
    35 C14      3.1252   5.8387   9.4943   C.ar      1 RES1   0.0000
    36 C15      4.1297   9.3427  10.6556   C.3       1 RES1   0.0000
    37 H15      3.3668   9.8524  10.3717   H         1 RES1   0.0000
    38 H16      4.8592   9.4938  10.0515   H         1 RES1   0.0000
    39 H17      4.3852   9.6142  11.5410   H         1 RES1   0.0000
    40 C16      3.5475   5.0353  13.1953   C.3       1 RES1   0.0000
    41 H18      3.6336   5.6486  13.9293   H         1 RES1   0.0000
    42 H19      4.3011   4.4411  13.1859   H         1 RES1   0.0000
    43 H20      2.7394   4.5262  13.2971   H         1 RES1   0.0000
    44 C17      2.7714   5.0807   8.2553   C.3       1 RES1   0.0000
    45 H21      2.8279   4.1382   8.4294   H         1 RES1   0.0000
    46 H22      3.3824   5.3131   7.5520   H         1 RES1   0.0000
    47 H23      1.8768   5.3049   7.9887   H         1 RES1   0.0000
    48 C18      3.0247   9.9004   4.6239   C.3       1 RES1   0.0000
    49 H24      3.4340  10.6261   5.1209   H         1 RES1   0.0000
    50 H25      2.1980  10.2307   4.2395   H         1 RES1   0.0000
    51 C19      3.9516   9.4743   3.5148   C.3       1 RES1   0.0000
    52 H26      3.5586   8.7367   3.0232   H         1 RES1   0.0000
    53 H27      4.0889  10.2108   2.9000   H         1 RES1   0.0000
    54 C20      6.3032   9.0953   3.0889   C.ar      1 RES1   0.0000
    55 C21      7.0713  10.2589   2.9509   C.ar      1 RES1   0.0000
    56 C22      8.0512  10.3195   1.9490   C.ar      1 RES1   0.0000
    57 H28      8.5569  11.0930   1.8498   H         1 RES1   0.0000
    58 C23      8.2758   9.2465   1.1078   C.ar      1 RES1   0.0000
    59 C24      7.4981   8.1105   1.2618   C.ar      1 RES1   0.0000
    60 H29      7.6338   7.3915   0.6872   H         1 RES1   0.0000
    61 C25      6.5199   8.0073   2.2477   C.ar      1 RES1   0.0000
    62 C26      6.8545  11.4513   3.8443   C.3       1 RES1   0.0000
    63 H30      5.9254  11.6936   3.8376   H         1 RES1   0.0000
    64 H31      7.3787  12.1898   3.5255   H         1 RES1   0.0000
    65 H32      7.1226  11.2328   4.7391   H         1 RES1   0.0000
    66 C27      9.3459   9.3488   0.0415   C.3       1 RES1   0.0000
    67 H33      9.3098  10.2184  -0.3657   H         1 RES1   0.0000
    68 H34      9.2006   8.6774  -0.6282   H         1 RES1   0.0000
    69 H35     10.2081   9.2195   0.4434   H         1 RES1   0.0000
    70 C28      5.7464   6.7237   2.4138   C.3       1 RES1   0.0000
    71 H36      5.9344   6.3413   3.2751   H         1 RES1   0.0000
    72 H37      6.0103   6.1066   1.7266   H         1 RES1   0.0000
    73 H38      4.8058   6.9003   2.3414   H         1 RES1   0.0000
    74 N5      -0.3997   5.8882  13.0399   N.1       2 RES2   0.0000
    75 C29     -0.2456   6.5634  12.1532   C.1       2 RES2   0.0000
    76 C30     -0.0332   7.4481  11.0079   C.3       2 RES2   0.0000
    77 H39      0.9001   7.4609  10.7802   H         2 RES2   0.0000
    78 H40     -0.3197   8.3362  11.2330   H         2 RES2   0.0000
    79 H41     -0.5408   7.1287  10.2578   H         2 RES2   0.0000
@<TRIPOS>BOND
     1     1     2    1
     2     3     1    1
     3     4     1    1
     4     5     1    1
     5     6     1    1
     6     7     6    1
     7     8     1    1
     8     9     8    1
     9    10     5   ar
    10    11    10    1
    11    12    10   ar
    12    13    12    1
    13    14    12   ar
    14    15    14    1
    15    16    14   ar
    16    17    16    1
    17    18     5   ar
    18    19     4    1
    19    20    19    1
    20    21    19    1
    21    22     4    1
    22    23    22    1
    23    24    22    1
    24    25     6    1
    25    26    25    1
    26    27    25    1
    27    28     6    1
    28    29    28   ar
    29    30    29   ar
    30    31    30    1
    31    32    30   ar
    32    33    32   ar
    33    34    33    1
    34    35    28   ar
    35    36    29    1
    36    37    36    1
    37    38    36    1
    38    39    36    1
    39    40    32    1
    40    41    40    1
    41    42    40    1
    42    43    40    1
    43    44    35    1
    44    45    44    1
    45    46    44    1
    46    47    44    1
    47    48     4    1
    48    49    48    1
    49    50    48    1
    50    51     8    1
    51    52    51    1
    52    53    51    1
    53    54     8    1
    54    55    54   ar
    55    56    55   ar
    56    57    56    1
    57    58    56   ar
    58    59    58   ar
    59    60    59    1
    60    61    54   ar
    61    62    55    1
    62    63    62    1
    63    64    62    1
    64    65    62    1
    65    66    58    1
    66    67    66    1
    67    68    66    1
    68    69    66    1
    69    70    61    1
    70    71    70    1
    71    72    70    1
    72    73    70    1
    73    16    18   ar
    74    18    19    1
    75    22    25    1
    76    33    35   ar
    77    48    51    1
    78    59    61   ar
    79    74    75    3
    80    75    76    1
    81    76    77    1
    82    78    76    1
    83    79    76    1
@<TRIPOS>SUBSTRUCTURE
     1 RES1        1 GROUP             0 ****  ****    0  
     2 RES2       74 GROUP             0 ****  ****    0  
@<TRIPOS>CRYSIN
    7.4106   15.2440   15.3110  115.7400   97.8600   99.8900     2     1
