@<TRIPOS>MOLECULE
DECMAD01
    86    94     2     0     0
SMALL
USER_CHARGES
****
Generated from the CSD

@<TRIPOS>ATOM
     1 Br1     10.9246  10.9246   8.1589   Br        1 RES1  -1.0000
     2 Fe1      7.7370   7.7370   8.1589   Fe        2 RES2   1.0000
     3 O1       7.5035   6.1123   9.0661   O.3       2 RES2   0.0000
     4 N1       6.7459   8.6845   9.4936   N.2       2 RES2   0.0000
     5 N2       7.9283   9.5896   7.2826   N.3       2 RES2   0.0000
     6 H1       8.8019   9.9526   7.5379   H         2 RES2   0.0000
     7 C1       6.4189   5.8218   9.7449   C.ar      2 RES2   0.0000
     8 C2       6.1123   4.4437   9.8755   C.ar      2 RES2   0.0000
     9 H2       6.6681   3.8163   9.4708   H         2 RES2   0.0000
    10 C3       5.0408   4.0160  10.5690   C.ar      2 RES2   0.0000
    11 H3       4.8783   3.1034  10.6357   H         2 RES2   0.0000
    12 C4       4.1591   4.9211  11.1939   C.ar      2 RES2   0.0000
    13 C5       3.0364   4.4875  11.9429   C.ar      2 RES2   0.0000
    14 H4       2.8814   3.5744  12.0350   H         2 RES2   0.0000
    15 C6       2.1839   5.3576  12.5287   C.ar      2 RES2   0.0000
    16 H5       1.4665   5.0460  13.0320   H         2 RES2   0.0000
    17 C7       2.3897   6.7196  12.3704   C.ar      2 RES2   0.0000
    18 H6       1.7928   7.3209  12.7554   H         2 RES2   0.0000
    19 C8       3.4613   7.1955  11.6574   C.ar      2 RES2   0.0000
    20 H7       3.5742   8.1141  11.5609   H         2 RES2   0.0000
    21 C9       4.3882   6.3225  11.0716   C.ar      2 RES2   0.0000
    22 C10      5.5634   6.7678  10.3324   C.ar      2 RES2   0.0000
    23 C11      5.8408   8.1692  10.2475   C.2       2 RES2   0.0000
    24 H8       5.3324   8.7459  10.7728   H         2 RES2   0.0000
    25 C12      6.8860  10.1414   9.3778   C.3       2 RES2   0.0000
    26 H9       7.7144  10.4379   9.7847   H         2 RES2   0.0000
    27 H10      6.1456  10.5907   9.8145   H         2 RES2   0.0000
    28 C13      6.8860  10.4363   7.9043   C.3       2 RES2   0.0000
    29 H11      6.0181  10.2360   7.5223   H         2 RES2   0.0000
    30 H12      7.0811  11.3746   7.7514   H         2 RES2   0.0000
    31 C14      7.8583   9.5765   5.7912   C.3       2 RES2   0.0000
    32 H13      7.1965   8.9210   5.5182   H         2 RES2   0.0000
    33 H14      8.7164   9.2878   5.4432   H         2 RES2   0.0000
    34 C15      7.5050  10.9093   5.1662   C.ar      2 RES2   0.0000
    35 C16      6.3926  11.0013   4.3764   C.ar      2 RES2   0.0000
    36 H15      5.8510  10.2553   4.2570   H         2 RES2   0.0000
    37 C17      6.0612  12.1954   3.7531   C.ar      2 RES2   0.0000
    38 H16      5.3116  12.2452   3.2045   H         2 RES2   0.0000
    39 C18      6.8422  13.2961   3.9473   C.ar      2 RES2   0.0000
    40 H17      6.6305  14.0981   3.5258   H         2 RES2   0.0000
    41 C19      7.9181  13.2202   4.7501   C.ar      2 RES2   0.0000
    42 H18      8.4293  13.9830   4.8957   H         2 RES2   0.0000
    43 C20      8.2802  12.0494   5.3587   C.ar      2 RES2   0.0000
    44 H19      9.0377  12.0157   5.8955   H         2 RES2   0.0000
    45 O1F      6.1123   7.5035   7.2516   O.3       2 RES2   0.0000
    46 N1F      8.6845   6.7459   6.8241   N.2       2 RES2   0.0000
    47 N2F      9.5896   7.9283   9.0351   N.3       2 RES2   0.0000
    48 H1F      9.9526   8.8019   8.7798   H         2 RES2   0.0000
    49 C1F      5.8218   6.4189   6.5728   C.ar      2 RES2   0.0000
    50 C2F      4.4437   6.1123   6.4422   C.ar      2 RES2   0.0000
    51 H2F      3.8163   6.6681   6.8469   H         2 RES2   0.0000
    52 C3F      4.0160   5.0408   5.7487   C.ar      2 RES2   0.0000
    53 H3F      3.1034   4.8783   5.6820   H         2 RES2   0.0000
    54 C4F      4.9211   4.1591   5.1238   C.ar      2 RES2   0.0000
    55 C5F      4.4875   3.0364   4.3748   C.ar      2 RES2   0.0000
    56 H4F      3.5744   2.8814   4.2827   H         2 RES2   0.0000
    57 C6F      5.3576   2.1839   3.7890   C.ar      2 RES2   0.0000
    58 H5F      5.0460   1.4665   3.2857   H         2 RES2   0.0000
    59 C7F      6.7196   2.3897   3.9473   C.ar      2 RES2   0.0000
    60 H6F      7.3209   1.7928   3.5623   H         2 RES2   0.0000
    61 C8F      7.1955   3.4613   4.6603   C.ar      2 RES2   0.0000
    62 H7F      8.1141   3.5742   4.7568   H         2 RES2   0.0000
    63 C9F      6.3225   4.3882   5.2461   C.ar      2 RES2   0.0000
    64 C10F     6.7678   5.5634   5.9853   C.ar      2 RES2   0.0000
    65 C11F     8.1692   5.8408   6.0702   C.2       2 RES2   0.0000
    66 H8F      8.7459   5.3324   5.5449   H         2 RES2   0.0000
    67 C12F    10.1414   6.8860   6.9399   C.3       2 RES2   0.0000
    68 H9F     10.4379   7.7144   6.5330   H         2 RES2   0.0000
    69 H10F    10.5907   6.1456   6.5032   H         2 RES2   0.0000
    70 C13F    10.4363   6.8860   8.4134   C.3       2 RES2   0.0000
    71 H11F    10.2360   6.0181   8.7954   H         2 RES2   0.0000
    72 H12F    11.3746   7.0811   8.5663   H         2 RES2   0.0000
    73 C14F     9.5765   7.8583  10.5265   C.3       2 RES2   0.0000
    74 H13F     8.9210   7.1965  10.7995   H         2 RES2   0.0000
    75 H14F     9.2878   8.7164  10.8745   H         2 RES2   0.0000
    76 C15F    10.9093   7.5050  11.1515   C.ar      2 RES2   0.0000
    77 C16F    11.0013   6.3926  11.9413   C.ar      2 RES2   0.0000
    78 H15F    10.2553   5.8510  12.0607   H         2 RES2   0.0000
    79 C17F    12.1954   6.0612  12.5646   C.ar      2 RES2   0.0000
    80 H16F    12.2452   5.3116  13.1132   H         2 RES2   0.0000
    81 C18F    13.2961   6.8422  12.3704   C.ar      2 RES2   0.0000
    82 H17F    14.0981   6.6305  12.7919   H         2 RES2   0.0000
    83 C19F    13.2202   7.9181  11.5676   C.ar      2 RES2   0.0000
    84 H18F    13.9830   8.4293  11.4220   H         2 RES2   0.0000
    85 C20F    12.0494   8.2802  10.9590   C.ar      2 RES2   0.0000
    86 H19F    12.0157   9.0377  10.4222   H         2 RES2   0.0000
@<TRIPOS>BOND
     1     2     3    1
     2     3     7    1
     3     4     2    1
     4     5     2    1
     5     6     5    1
     6     7     8   ar
     7     8     9    1
     8    10     8   ar
     9    11    10    1
    10    12    10   ar
    11    13    12   ar
    12    14    13    1
    13    15    13   ar
    14    16    15    1
    15    17    15   ar
    16    18    17    1
    17    19    17   ar
    18    20    19    1
    19    21    12   ar
    20    22     7   ar
    21    23     4    2
    22    24    23    1
    23    25     4    1
    24    26    25    1
    25    27    25    1
    26    28     5    1
    27    29    28    1
    28    30    28    1
    29    31     5    1
    30    32    31    1
    31    33    31    1
    32    34    31    1
    33    35    34   ar
    34    36    35    1
    35    37    35   ar
    36    38    37    1
    37    39    37   ar
    38    40    39    1
    39    41    39   ar
    40    42    41    1
    41    43    34   ar
    42    44    43    1
    43    45     2    1
    44    46     2    1
    45    47     2    1
    46    48    47    1
    47    49    45    1
    48    50    49   ar
    49    51    50    1
    50    52    50   ar
    51    53    52    1
    52    54    52   ar
    53    55    54   ar
    54    56    55    1
    55    57    55   ar
    56    58    57    1
    57    59    57   ar
    58    60    59    1
    59    61    59   ar
    60    62    61    1
    61    63    54   ar
    62    64    49   ar
    63    65    46    2
    64    66    65    1
    65    67    46    1
    66    68    67    1
    67    69    67    1
    68    70    47    1
    69    71    70    1
    70    72    70    1
    71    73    47    1
    72    74    73    1
    73    75    73    1
    74    76    73    1
    75    77    76   ar
    76    78    77    1
    77    79    77   ar
    78    80    79    1
    79    81    79   ar
    80    82    81    1
    81    83    81   ar
    82    84    83    1
    83    85    76   ar
    84    86    85    1
    85    19    21   ar
    86    21    22   ar
    87    22    23    1
    88    25    28    1
    89    41    43   ar
    90    61    63   ar
    91    63    64   ar
    92    64    65    1
    93    67    70    1
    94    83    85   ar
@<TRIPOS>SUBSTRUCTURE
     1 RES1        1 GROUP             0 ****  ****    0  
     2 RES2        2 GROUP             0 ****  ****    0  
@<TRIPOS>CRYSIN
   14.5983   14.5983   16.3177   90.0000   90.0000   90.0000    96     1
