@<TRIPOS>MOLECULE
DECMAD02
    86    94     2     0     0
SMALL
USER_CHARGES
****
Generated from the CSD

@<TRIPOS>ATOM
     1 Br1     10.9855  10.9855   8.2439   Br        1 RES1  -1.0000
     2 Fe1      7.7831   7.7831   8.2439   Fe        2 RES2   1.0000
     3 O1       6.1775   7.5436   7.3247   O.3       2 RES2   0.0000
     4 N1       8.7372   6.7820   6.9016   N.2       2 RES2   0.0000
     5 N2       9.6560   7.9700   9.1112   N.3       2 RES2   0.0000
     6 H1      10.0160   8.8456   8.8575   H         2 RES2   0.0000
     7 C1       5.8788   6.4647   6.6380   C.ar      2 RES2   0.0000
     8 C2       4.4983   6.1696   6.4962   C.ar      2 RES2   0.0000
     9 H2       3.8680   6.7300   6.8894   H         2 RES2   0.0000
    10 C3       4.0842   5.0931   5.8021   C.ar      2 RES2   0.0000
    11 H3       3.1716   4.9309   5.7232   H         2 RES2   0.0000
    12 C4       4.9873   4.2046   5.1920   C.ar      2 RES2   0.0000
    13 C5       4.5482   3.0811   4.4534   C.ar      2 RES2   0.0000
    14 H4       3.6348   2.9298   4.3599   H         2 RES2   0.0000
    15 C6       5.4074   2.2323   3.8862   C.ar      2 RES2   0.0000
    16 H5       5.0922   1.5085   3.3927   H         2 RES2   0.0000
    17 C7       6.7629   2.4320   4.0346   C.ar      2 RES2   0.0000
    18 H6       7.3600   1.8342   3.6443   H         2 RES2   0.0000
    19 C8       7.2460   3.5011   4.7485   C.ar      2 RES2   0.0000
    20 H7       8.1641   3.6061   4.8526   H         2 RES2   0.0000
    21 C9       6.3707   4.4351   5.3239   C.ar      2 RES2   0.0000
    22 C10      6.8275   5.6056   6.0609   C.ar      2 RES2   0.0000
    23 C11      8.2197   5.8802   6.1549   C.2       2 RES2   0.0000
    24 H8       8.7956   5.3674   5.6352   H         2 RES2   0.0000
    25 C12     10.1950   6.9317   7.0090   C.3       2 RES2   0.0000
    26 H9      10.4835   7.7614   6.5983   H         2 RES2   0.0000
    27 H10     10.6464   6.1933   6.5718   H         2 RES2   0.0000
    28 C13     10.4931   6.9376   8.4747   C.3       2 RES2   0.0000
    29 H11     10.2975   6.0684   8.8581   H         2 RES2   0.0000
    30 H12     11.4316   7.1334   8.6225   H         2 RES2   0.0000
    31 C14      9.6530   7.8951  10.6000   C.3       2 RES2   0.0000
    32 H13      8.9928   7.2397  10.8741   H         2 RES2   0.0000
    33 H14      9.3728   8.7553  10.9512   H         2 RES2   0.0000
    34 C15     10.9704   7.5339  11.2265   C.ar      2 RES2   0.0000
    35 C16     11.0702   6.4060  11.9965   C.ar      2 RES2   0.0000
    36 H15     10.3349   5.8457  12.0933   H         2 RES2   0.0000
    37 C17     12.2760   6.0917  12.6428   C.ar      2 RES2   0.0000
    38 H16     12.3288   5.3495  13.2006   H         2 RES2   0.0000
    39 C18     13.3466   6.8642  12.4499   C.ar      2 RES2   0.0000
    40 H17     14.1498   6.6457  12.8647   H         2 RES2   0.0000
    41 C19     13.2819   7.9554  11.6668   C.ar      2 RES2   0.0000
    42 H18     14.0411   8.4753  11.5331   H         2 RES2   0.0000
    43 C20     12.0983   8.3064  11.0600   C.ar      2 RES2   0.0000
    44 H19     12.0597   9.0727  10.5338   H         2 RES2   0.0000
    45 O1F      7.5436   6.1775   9.1631   O.3       2 RES2   0.0000
    46 N1F      6.7820   8.7372   9.5862   N.2       2 RES2   0.0000
    47 N2F      7.9700   9.6560   7.3766   N.3       2 RES2   0.0000
    48 H1F      8.8456  10.0160   7.6303   H         2 RES2   0.0000
    49 C1F      6.4647   5.8788   9.8498   C.ar      2 RES2   0.0000
    50 C2F      6.1696   4.4983   9.9916   C.ar      2 RES2   0.0000
    51 H2F      6.7300   3.8680   9.5984   H         2 RES2   0.0000
    52 C3F      5.0931   4.0842  10.6857   C.ar      2 RES2   0.0000
    53 H3F      4.9309   3.1716  10.7646   H         2 RES2   0.0000
    54 C4F      4.2046   4.9873  11.2958   C.ar      2 RES2   0.0000
    55 C5F      3.0811   4.5482  12.0344   C.ar      2 RES2   0.0000
    56 H4F      2.9298   3.6348  12.1279   H         2 RES2   0.0000
    57 C6F      2.2323   5.4074  12.6016   C.ar      2 RES2   0.0000
    58 H5F      1.5085   5.0922  13.0951   H         2 RES2   0.0000
    59 C7F      2.4320   6.7629  12.4532   C.ar      2 RES2   0.0000
    60 H6F      1.8342   7.3600  12.8435   H         2 RES2   0.0000
    61 C8F      3.5011   7.2460  11.7393   C.ar      2 RES2   0.0000
    62 H7F      3.6061   8.1641  11.6352   H         2 RES2   0.0000
    63 C9F      4.4351   6.3707  11.1639   C.ar      2 RES2   0.0000
    64 C10F     5.6056   6.8275  10.4269   C.ar      2 RES2   0.0000
    65 C11F     5.8802   8.2197  10.3329   C.2       2 RES2   0.0000
    66 H8F      5.3674   8.7956  10.8526   H         2 RES2   0.0000
    67 C12F     6.9317  10.1950   9.4788   C.3       2 RES2   0.0000
    68 H9F      7.7614  10.4835   9.8895   H         2 RES2   0.0000
    69 H10F     6.1933  10.6464   9.9160   H         2 RES2   0.0000
    70 C13F     6.9376  10.4931   8.0131   C.3       2 RES2   0.0000
    71 H11F     6.0684  10.2975   7.6297   H         2 RES2   0.0000
    72 H12F     7.1334  11.4316   7.8653   H         2 RES2   0.0000
    73 C14F     7.8951   9.6530   5.8878   C.3       2 RES2   0.0000
    74 H13F     7.2397   8.9928   5.6137   H         2 RES2   0.0000
    75 H14F     8.7553   9.3728   5.5366   H         2 RES2   0.0000
    76 C15F     7.5339  10.9704   5.2613   C.ar      2 RES2   0.0000
    77 C16F     6.4060  11.0702   4.4913   C.ar      2 RES2   0.0000
    78 H15F     5.8457  10.3349   4.3945   H         2 RES2   0.0000
    79 C17F     6.0917  12.2760   3.8450   C.ar      2 RES2   0.0000
    80 H16F     5.3495  12.3288   3.2872   H         2 RES2   0.0000
    81 C18F     6.8642  13.3466   4.0379   C.ar      2 RES2   0.0000
    82 H17F     6.6457  14.1498   3.6231   H         2 RES2   0.0000
    83 C19F     7.9554  13.2819   4.8210   C.ar      2 RES2   0.0000
    84 H18F     8.4753  14.0411   4.9547   H         2 RES2   0.0000
    85 C20F     8.3064  12.0983   5.4278   C.ar      2 RES2   0.0000
    86 H19F     9.0727  12.0597   5.9540   H         2 RES2   0.0000
@<TRIPOS>BOND
     1     2     3    1
     2     3     7    1
     3     4     2    1
     4     5     2    1
     5     6     5    1
     6     7     8   ar
     7     8     9    1
     8    10     8   ar
     9    11    10    1
    10    12    10   ar
    11    13    12   ar
    12    14    13    1
    13    15    13   ar
    14    16    15    1
    15    17    15   ar
    16    18    17    1
    17    19    17   ar
    18    20    19    1
    19    21    12   ar
    20    22     7   ar
    21    23     4    2
    22    24    23    1
    23    25     4    1
    24    26    25    1
    25    27    25    1
    26    28     5    1
    27    29    28    1
    28    30    28    1
    29    31     5    1
    30    32    31    1
    31    33    31    1
    32    34    31    1
    33    35    34   ar
    34    36    35    1
    35    37    35   ar
    36    38    37    1
    37    39    37   ar
    38    40    39    1
    39    41    39   ar
    40    42    41    1
    41    43    34   ar
    42    44    43    1
    43    45     2    1
    44    46     2    1
    45    47     2    1
    46    48    47    1
    47    49    45    1
    48    50    49   ar
    49    51    50    1
    50    52    50   ar
    51    53    52    1
    52    54    52   ar
    53    55    54   ar
    54    56    55    1
    55    57    55   ar
    56    58    57    1
    57    59    57   ar
    58    60    59    1
    59    61    59   ar
    60    62    61    1
    61    63    54   ar
    62    64    49   ar
    63    65    46    2
    64    66    65    1
    65    67    46    1
    66    68    67    1
    67    69    67    1
    68    70    47    1
    69    71    70    1
    70    72    70    1
    71    73    47    1
    72    74    73    1
    73    75    73    1
    74    76    73    1
    75    77    76   ar
    76    78    77    1
    77    79    77   ar
    78    80    79    1
    79    81    79   ar
    80    82    81    1
    81    83    81   ar
    82    84    83    1
    83    85    76   ar
    84    86    85    1
    85    19    21   ar
    86    21    22   ar
    87    22    23    1
    88    25    28    1
    89    41    43   ar
    90    61    63   ar
    91    63    64   ar
    92    64    65    1
    93    67    70    1
    94    83    85   ar
@<TRIPOS>SUBSTRUCTURE
     1 RES1        1 GROUP             0 ****  ****    0  
     2 RES2        2 GROUP             0 ****  ****    0  
@<TRIPOS>CRYSIN
   14.6859   14.6859   16.4878   90.0000   90.0000   90.0000    96     1
