@<TRIPOS>MOLECULE
DECMAD03
    86    94     2     0     0
SMALL
USER_CHARGES
****
Generated from the CSD

@<TRIPOS>ATOM
     1 Br1      3.9096  10.5883   8.1913   Br        1 RES1  -1.0000
     2 Fe1      0.6550   7.5011   8.1636   Fe        2 RES2   1.0000
     3 O1       0.3551   5.8460   8.9767   O.3       2 RES2   0.0000
     4 O2      -0.9358   7.3421   7.1830   O.3       2 RES2   0.0000
     5 N1      -0.3653   8.4263   9.5017   N.2       2 RES2   0.0000
     6 N2       0.9168   9.3635   7.3499   N.3       2 RES2   0.0000
     7 H1       1.7836   9.7014   7.6588   H         2 RES2   0.0000
     8 N3       1.6401   6.5402   6.8233   N.2       2 RES2   0.0000
     9 N4       2.4813   7.6215   9.1209   N.3       2 RES2   0.0000
    10 H2       2.8768   8.4954   8.9191   H         2 RES2   0.0000
    11 C1      -0.7568   5.5506   9.6264   C.ar      2 RES2   0.0000
    12 C2      -1.0813   4.1520   9.6718   C.ar      2 RES2   0.0000
    13 H3      -0.5415   3.5331   9.2355   H         2 RES2   0.0000
    14 C3      -2.1888   3.7358  10.3588   C.ar      2 RES2   0.0000
    15 H4      -2.3904   2.8286  10.3744   H         2 RES2   0.0000
    16 C4      -3.0416   4.6366  11.0475   C.ar      2 RES2   0.0000
    17 C5      -4.1462   4.1768  11.7961   C.ar      2 RES2   0.0000
    18 H5      -4.3100   3.2636  11.8501   H         2 RES2   0.0000
    19 C6      -4.9728   5.0383  12.4394   C.ar      2 RES2   0.0000
    20 H6      -5.6846   4.7185  12.9465   H         2 RES2   0.0000
    21 C7      -4.7429   6.4150  12.3308   C.ar      2 RES2   0.0000
    22 H7      -5.3263   7.0106  12.7419   H         2 RES2   0.0000
    23 C8      -3.6659   6.9040  11.6243   C.ar      2 RES2   0.0000
    24 H8      -3.5278   7.8222  11.5757   H         2 RES2   0.0000
    25 C9      -2.7680   6.0265  10.9713   C.ar      2 RES2   0.0000
    26 C10     -1.5834   6.4936  10.2568   C.ar      2 RES2   0.0000
    27 C11     -1.2909   7.8951  10.2243   C.2       2 RES2   0.0000
    28 H9      -1.8035   8.4594  10.7573   H         2 RES2   0.0000
    29 C12     -0.2052   9.8743   9.4320   C.3       2 RES2   0.0000
    30 H10      0.6115  10.1476   9.8791   H         2 RES2   0.0000
    31 H11     -0.9551  10.3200   9.8549   H         2 RES2   0.0000
    32 C13     -0.1441  10.2207   7.9607   C.3       2 RES2   0.0000
    33 H12     -0.9999  10.0473   7.5380   H         2 RES2   0.0000
    34 H13      0.0733  11.1586   7.8438   H         2 RES2   0.0000
    35 C14      0.9314   9.3912   5.8591   C.3       2 RES2   0.0000
    36 H14      0.3520   8.6853   5.5330   H         2 RES2   0.0000
    37 H15      1.8313   9.1934   5.5565   H         2 RES2   0.0000
    38 C15      0.4963  10.6878   5.2369   C.ar      2 RES2   0.0000
    39 C16     -0.6462  10.7039   4.4495   C.ar      2 RES2   0.0000
    40 H16     -1.1359   9.9217   4.3359   H         2 RES2   0.0000
    41 C17     -1.0697  11.8725   3.8305   C.ar      2 RES2   0.0000
    42 H17     -1.8249  11.8649   3.2883   H         2 RES2   0.0000
    43 C18     -0.3667  13.0484   4.0201   C.ar      2 RES2   0.0000
    44 H18     -0.6574  13.8351   3.6201   H         2 RES2   0.0000
    45 C19      0.7699  13.0484   4.8092   C.ar      2 RES2   0.0000
    46 H19      1.2437  13.8390   4.9353   H         2 RES2   0.0000
    47 C20      1.2079  11.8768   5.4119   C.ar      2 RES2   0.0000
    48 H20      1.9783  11.8837   5.9338   H         2 RES2   0.0000
    49 C21     -1.2297   6.2797   6.4619   C.ar      2 RES2   0.0000
    50 C22     -2.6181   6.0498   6.2286   C.ar      2 RES2   0.0000
    51 H21     -3.2476   6.6395   6.5756   H         2 RES2   0.0000
    52 C23     -3.0314   4.9757   5.5027   C.ar      2 RES2   0.0000
    53 H22     -3.9440   4.8418   5.3803   H         2 RES2   0.0000
    54 C24     -2.1219   4.0545   4.9275   C.ar      2 RES2   0.0000
    55 C25     -2.5657   2.9543   4.1529   C.ar      2 RES2   0.0000
    56 H23     -3.4743   2.8513   3.9863   H         2 RES2   0.0000
    57 C26     -1.6867   2.0447   3.6458   C.ar      2 RES2   0.0000
    58 H24     -1.9950   1.3255   3.1424   H         2 RES2   0.0000
    59 C27     -0.3202   2.2004   3.8872   C.ar      2 RES2   0.0000
    60 H25      0.2762   1.5650   3.5634   H         2 RES2   0.0000
    61 C28      0.1630   3.2905   4.6018   C.ar      2 RES2   0.0000
    62 H26      1.0789   3.3865   4.7318   H         2 RES2   0.0000
    63 C29     -0.7277   4.2583   5.1365   C.ar      2 RES2   0.0000
    64 C30     -0.2707   5.4138   5.8867   C.ar      2 RES2   0.0000
    65 C31      1.1293   5.6539   6.0325   C.2       2 RES2   0.0000
    66 H27      1.7130   5.1372   5.5259   H         2 RES2   0.0000
    67 C32      3.0795   6.6479   6.9820   C.3       2 RES2   0.0000
    68 H28      3.4009   7.4904   6.6230   H         2 RES2   0.0000
    69 H29      3.5302   5.9213   6.5250   H         2 RES2   0.0000
    70 C33      3.3225   6.5751   8.4857   C.3       2 RES2   0.0000
    71 H30      3.0783   5.6982   8.8226   H         2 RES2   0.0000
    72 H31      4.2590   6.7307   8.6825   H         2 RES2   0.0000
    73 C34      2.4275   7.4658  10.6084   C.3       2 RES2   0.0000
    74 H32      1.8087   6.7519  10.8257   H         2 RES2   0.0000
    75 H33      2.0822   8.2850  10.9960   H         2 RES2   0.0000
    76 C35      3.7707   7.1572  11.2338   C.ar      2 RES2   0.0000
    77 C36      3.9323   6.0294  11.9808   C.ar      2 RES2   0.0000
    78 H34      3.2244   5.4329  12.0704   H         2 RES2   0.0000
    79 C37      5.1358   5.7572  12.6111   C.ar      2 RES2   0.0000
    80 H35      5.2147   5.0066  13.1540   H         2 RES2   0.0000
    81 C38      6.2127   6.5897  12.4361   C.ar      2 RES2   0.0000
    82 H36      7.0208   6.4103  12.8585   H         2 RES2   0.0000
    83 C39      6.0774   7.7074  11.6178   C.ar      2 RES2   0.0000
    84 H37      6.8093   8.2618  11.4697   H         2 RES2   0.0000
    85 C40      4.8651   7.9970  11.0264   C.ar      2 RES2   0.0000
    86 H38      4.7766   8.7527  10.4905   H         2 RES2   0.0000
@<TRIPOS>BOND
     1     2     3    1
     2     3    11    1
     3     4     2    1
     4     5     2    1
     5     6     2    1
     6     7     6    1
     7     8     2    1
     8     9     2    1
     9    10     9    1
    10    11    12   ar
    11    12    13    1
    12    14    12   ar
    13    15    14    1
    14    16    14   ar
    15    17    16   ar
    16    18    17    1
    17    19    17   ar
    18    20    19    1
    19    21    19   ar
    20    22    21    1
    21    23    21   ar
    22    24    23    1
    23    25    16   ar
    24    26    11   ar
    25    27     5    2
    26    28    27    1
    27    29     5    1
    28    30    29    1
    29    31    29    1
    30    32     6    1
    31    33    32    1
    32    34    32    1
    33    35     6    1
    34    36    35    1
    35    37    35    1
    36    38    35    1
    37    39    38   ar
    38    40    39    1
    39    41    39   ar
    40    42    41    1
    41    43    41   ar
    42    44    43    1
    43    45    43   ar
    44    46    45    1
    45    47    38   ar
    46    48    47    1
    47    49     4    1
    48    50    49   ar
    49    51    50    1
    50    52    50   ar
    51    53    52    1
    52    54    52   ar
    53    55    54   ar
    54    56    55    1
    55    57    55   ar
    56    58    57    1
    57    59    57   ar
    58    60    59    1
    59    61    59   ar
    60    62    61    1
    61    63    54   ar
    62    64    49   ar
    63    65     8    2
    64    66    65    1
    65    67     8    1
    66    68    67    1
    67    69    67    1
    68    70     9    1
    69    71    70    1
    70    72    70    1
    71    73     9    1
    72    74    73    1
    73    75    73    1
    74    76    73    1
    75    77    76   ar
    76    78    77    1
    77    79    77   ar
    78    80    79    1
    79    81    79   ar
    80    82    81    1
    81    83    81   ar
    82    84    83    1
    83    85    76   ar
    84    86    85    1
    85    23    25   ar
    86    25    26   ar
    87    26    27    1
    88    29    32    1
    89    45    47   ar
    90    61    63   ar
    91    63    64   ar
    92    64    65    1
    93    67    70    1
    94    83    85   ar
@<TRIPOS>SUBSTRUCTURE
     1 RES1        1 GROUP             0 ****  ****    0  
     2 RES2        2 GROUP             0 ****  ****    0  
@<TRIPOS>CRYSIN
   14.5532   14.5532   16.2034   90.0000   90.0000   90.0000    78     1
