@<TRIPOS>MOLECULE
DECMAD
    86    94     2     0     0
SMALL
USER_CHARGES
****
Generated from the CSD

@<TRIPOS>ATOM
     1 Br1      3.6828   3.6828   8.2033   Br        1 RES1  -1.0000
     2 Fe1      6.8764   6.8764   8.2033   Fe        2 RES2   1.0000
     3 O1       8.4925   7.1104   7.2948   O.3       2 RES2   0.0000
     4 N1       5.9322   7.8670   6.8742   N.2       2 RES2   0.0000
     5 N2       5.0144   6.6829   9.0749   N.3       2 RES2   0.0000
     6 H1       4.6528   5.8082   8.8218   H         2 RES2   0.0000
     7 C1       8.7847   8.1978   6.6118   C.ar      2 RES2   0.0000
     8 C2      10.1781   8.4832   6.4756   C.ar      2 RES2   0.0000
     9 H2      10.8058   7.9183   6.8648   H         2 RES2   0.0000
    10 C3      10.5908   9.5677   5.7849   C.ar      2 RES2   0.0000
    11 H3      11.5024   9.7395   5.7204   H         2 RES2   0.0000
    12 C4       9.6833  10.4518   5.1598   C.ar      2 RES2   0.0000
    13 C5      10.1239  11.5670   4.4199   C.ar      2 RES2   0.0000
    14 H4      11.0370  11.7151   4.3262   H         2 RES2   0.0000
    15 C6       9.2618  12.4262   3.8473   C.ar      2 RES2   0.0000
    16 H5       9.5781  13.1485   3.3548   H         2 RES2   0.0000
    17 C7       7.9007  12.2271   3.9917   C.ar      2 RES2   0.0000
    18 H6       7.3032  12.8224   3.6022   H         2 RES2   0.0000
    19 C8       7.4264  11.1558   4.7087   C.ar      2 RES2   0.0000
    20 H7       6.5084  11.0468   4.8116   H         2 RES2   0.0000
    21 C9       8.2929  10.2249   5.2878   C.ar      2 RES2   0.0000
    22 C10      7.8450   9.0467   6.0261   C.ar      2 RES2   0.0000
    23 C11      6.4517   8.7700   6.1180   C.2       2 RES2   0.0000
    24 H8       5.8758   9.2787   5.5934   H         2 RES2   0.0000
    25 C12      4.4655   7.7236   6.9744   C.3       2 RES2   0.0000
    26 H9       4.1729   6.8941   6.5663   H         2 RES2   0.0000
    27 H10      4.0177   8.4639   6.5375   H         2 RES2   0.0000
    28 C13      4.1787   7.7221   8.4428   C.3       2 RES2   0.0000
    29 H11      4.3821   8.5906   8.8226   H         2 RES2   0.0000
    30 H12      3.2393   7.5327   8.5971   H         2 RES2   0.0000
    31 C14      5.0276   6.7620  10.5723   C.3       2 RES2   0.0000
    32 H13      5.6851   7.4223  10.8411   H         2 RES2   0.0000
    33 H14      5.3144   5.9042  10.9240   H         2 RES2   0.0000
    34 C15      3.7059   7.1191  11.1974   C.ar      2 RES2   0.0000
    35 C16      3.5976   8.2446  11.9718   C.ar      2 RES2   0.0000
    36 H15      4.3321   8.8060  12.0717   H         2 RES2   0.0000
    37 C17      2.3945   8.5564  12.6133   C.ar      2 RES2   0.0000
    38 H16      2.3436   9.2944  13.1764   H         2 RES2   0.0000
    39 C18      1.3085   7.7836  12.4132   C.ar      2 RES2   0.0000
    40 H17      0.5018   8.0029  12.8188   H         2 RES2   0.0000
    41 C19      1.3890   6.6902  11.6224   C.ar      2 RES2   0.0000
    42 H18      0.6343   6.1628  11.4900   H         2 RES2   0.0000
    43 C20      2.5716   6.3463  11.0137   C.ar      2 RES2   0.0000
    44 H19      2.6106   5.5901  10.4737   H         2 RES2   0.0000
    45 O1F      7.1104   8.4925   9.1117   O.3       2 RES2   0.0000
    46 N1F      7.8670   5.9322   9.5323   N.2       2 RES2   0.0000
    47 N2F      6.6829   5.0144   7.3316   N.3       2 RES2   0.0000
    48 H1F      5.8082   4.6528   7.5847   H         2 RES2   0.0000
    49 C1F      8.1978   8.7847   9.7947   C.ar      2 RES2   0.0000
    50 C2F      8.4832  10.1781   9.9309   C.ar      2 RES2   0.0000
    51 H2F      7.9183  10.8058   9.5417   H         2 RES2   0.0000
    52 C3F      9.5677  10.5908  10.6216   C.ar      2 RES2   0.0000
    53 H3F      9.7395  11.5024  10.6861   H         2 RES2   0.0000
    54 C4F     10.4518   9.6833  11.2467   C.ar      2 RES2   0.0000
    55 C5F     11.5670  10.1239  11.9866   C.ar      2 RES2   0.0000
    56 H4F     11.7151  11.0370  12.0803   H         2 RES2   0.0000
    57 C6F     12.4262   9.2618  12.5592   C.ar      2 RES2   0.0000
    58 H5F     13.1485   9.5781  13.0517   H         2 RES2   0.0000
    59 C7F     12.2271   7.9007  12.4148   C.ar      2 RES2   0.0000
    60 H6F     12.8224   7.3032  12.8043   H         2 RES2   0.0000
    61 C8F     11.1558   7.4264  11.6978   C.ar      2 RES2   0.0000
    62 H7F     11.0468   6.5084  11.5949   H         2 RES2   0.0000
    63 C9F     10.2249   8.2929  11.1187   C.ar      2 RES2   0.0000
    64 C10F     9.0467   7.8450  10.3804   C.ar      2 RES2   0.0000
    65 C11F     8.7700   6.4517  10.2885   C.2       2 RES2   0.0000
    66 H8F      9.2787   5.8758  10.8131   H         2 RES2   0.0000
    67 C12F     7.7236   4.4655   9.4321   C.3       2 RES2   0.0000
    68 H9F      6.8941   4.1729   9.8402   H         2 RES2   0.0000
    69 H10F     8.4639   4.0177   9.8690   H         2 RES2   0.0000
    70 C13F     7.7221   4.1787   7.9637   C.3       2 RES2   0.0000
    71 H11F     8.5906   4.3821   7.5839   H         2 RES2   0.0000
    72 H12F     7.5327   3.2393   7.8094   H         2 RES2   0.0000
    73 C14F     6.7620   5.0276   5.8342   C.3       2 RES2   0.0000
    74 H13F     7.4223   5.6851   5.5654   H         2 RES2   0.0000
    75 H14F     5.9042   5.3144   5.4825   H         2 RES2   0.0000
    76 C15F     7.1191   3.7059   5.2091   C.ar      2 RES2   0.0000
    77 C16F     8.2446   3.5976   4.4347   C.ar      2 RES2   0.0000
    78 H15F     8.8060   4.3321   4.3348   H         2 RES2   0.0000
    79 C17F     8.5564   2.3945   3.7932   C.ar      2 RES2   0.0000
    80 H16F     9.2944   2.3436   3.2301   H         2 RES2   0.0000
    81 C18F     7.7836   1.3085   3.9933   C.ar      2 RES2   0.0000
    82 H17F     8.0029   0.5018   3.5877   H         2 RES2   0.0000
    83 C19F     6.6902   1.3890   4.7841   C.ar      2 RES2   0.0000
    84 H18F     6.1628   0.6343   4.9165   H         2 RES2   0.0000
    85 C20F     6.3463   2.5716   5.3928   C.ar      2 RES2   0.0000
    86 H19F     5.5901   2.6106   5.9328   H         2 RES2   0.0000
@<TRIPOS>BOND
     1     2     3    1
     2     3     7    1
     3     4     2    1
     4     5     2    1
     5     6     5    1
     6     7     8   ar
     7     8     9    1
     8    10     8   ar
     9    11    10    1
    10    12    10   ar
    11    13    12   ar
    12    14    13    1
    13    15    13   ar
    14    16    15    1
    15    17    15   ar
    16    18    17    1
    17    19    17   ar
    18    20    19    1
    19    21    12   ar
    20    22     7   ar
    21    23     4    2
    22    24    23    1
    23    25     4    1
    24    26    25    1
    25    27    25    1
    26    28     5    1
    27    29    28    1
    28    30    28    1
    29    31     5    1
    30    32    31    1
    31    33    31    1
    32    34    31    1
    33    35    34   ar
    34    36    35    1
    35    37    35   ar
    36    38    37    1
    37    39    37   ar
    38    40    39    1
    39    41    39   ar
    40    42    41    1
    41    43    34   ar
    42    44    43    1
    43    45     2    1
    44    46     2    1
    45    47     2    1
    46    48    47    1
    47    49    45    1
    48    50    49   ar
    49    51    50    1
    50    52    50   ar
    51    53    52    1
    52    54    52   ar
    53    55    54   ar
    54    56    55    1
    55    57    55   ar
    56    58    57    1
    57    59    57   ar
    58    60    59    1
    59    61    59   ar
    60    62    61    1
    61    63    54   ar
    62    64    49   ar
    63    65    46    2
    64    66    65    1
    65    67    46    1
    66    68    67    1
    67    69    67    1
    68    70    47    1
    69    71    70    1
    70    72    70    1
    71    73    47    1
    72    74    73    1
    73    75    73    1
    74    76    73    1
    75    77    76   ar
    76    78    77    1
    77    79    77   ar
    78    80    79    1
    79    81    79   ar
    80    82    81    1
    81    83    81   ar
    82    84    83    1
    83    85    76   ar
    84    86    85    1
    85    19    21   ar
    86    21    22   ar
    87    22    23    1
    88    25    28    1
    89    41    43   ar
    90    61    63   ar
    91    63    64   ar
    92    64    65    1
    93    67    70    1
    94    83    85   ar
@<TRIPOS>SUBSTRUCTURE
     1 RES1        1 GROUP             0 ****  ****    0  
     2 RES2        2 GROUP             0 ****  ****    0  
@<TRIPOS>CRYSIN
   14.6363   14.6363   16.4065   90.0000   90.0000   90.0000    96     1
