@<TRIPOS>MOLECULE
DEFNUX
   130   146     2     0     0
SMALL
USER_CHARGES
****
Generated from the CSD

@<TRIPOS>ATOM
     1 Fe1      6.7361  15.4938   8.9160   Fe        1 RES1  -1.0000
     2 N1       5.8903  16.9895   6.0049   N.2       1 RES1   0.0000
     3 N2       6.5996  14.9302   7.0650   N.2       1 RES1   0.0000
     4 N3       7.3343  12.6230   7.2674   N.2       1 RES1   0.0000
     5 N4       7.3052  13.7084   9.4331   N.2       1 RES1   0.0000
     6 C1       6.2564  15.7151   5.9942   C.2       1 RES1   0.0000
     7 C2       6.3413  14.9407   4.7674   C.ar      1 RES1   0.0000
     8 C3       6.1169  15.2535   3.4228   C.ar      1 RES1   0.0000
     9 C4       6.2766  14.2622   2.5045   C.ar      1 RES1   0.0000
    10 C5       6.6453  12.9650   2.8602   C.ar      1 RES1   0.0000
    11 C6       6.9072  12.6619   4.1780   C.ar      1 RES1   0.0000
    12 C7       6.7352  13.6604   5.1356   C.ar      1 RES1   0.0000
    13 C8       6.9101  13.6741   6.5827   C.2       1 RES1   0.0000
    14 C9       7.5212  12.6628   8.5683   C.2       1 RES1   0.0000
    15 C10      8.0165  11.5242   9.3163   C.ar      1 RES1   0.0000
    16 C11      8.3872  10.2355   8.9454   C.ar      1 RES1   0.0000
    17 C12      8.8309   9.3741   9.9074   C.ar      1 RES1   0.0000
    18 C13      8.8910   9.7674  11.2573   C.ar      1 RES1   0.0000
    19 C14      8.5202  11.0437  11.6487   C.ar      1 RES1   0.0000
    20 C15      8.0861  11.9102  10.6573   C.ar      1 RES1   0.0000
    21 C16      7.6324  13.3039  10.7063   C.2       1 RES1   0.0000
    22 C17      8.6295  15.9243   8.5602   C.1       1 RES1   0.0000
    23 N5       9.7406  16.1133   8.3356   N.1       1 RES1   0.0000
    24 H1       5.8940  16.1127   3.1794   H         1 RES1   0.0000
    25 H2       6.2173  14.4336   1.6655   H         1 RES1   0.0000
    26 H3       6.7084  12.3100   2.1175   H         1 RES1   0.0000
    27 H4       7.1088  11.8666   4.3769   H         1 RES1   0.0000
    28 H5       8.3236   9.9792   8.1724   H         1 RES1   0.0000
    29 H6       9.1283   8.5202   9.6792   H         1 RES1   0.0000
    30 H7       9.2336   9.2206  11.9037   H         1 RES1   0.0000
    31 H8       8.5380  11.2810  12.6010   H         1 RES1   0.0000
    32 N2A      6.8725  16.0574  10.7669   N.2       1 RES1   0.0000
    33 N4A      6.1669  17.2792   8.3989   N.2       1 RES1   0.0000
    34 C17A     4.8426  15.0633   9.2717   C.1       1 RES1   0.0000
    35 C16A     5.8397  17.6836   7.1257   C.2       1 RES1   0.0000
    36 N1A      7.5818  13.9981  11.8271   N.2       1 RES1   0.0000
    37 C1A      7.2158  15.2725  11.8377   C.2       1 RES1   0.0000
    38 C8A      6.5620  17.3134  11.2493   C.2       1 RES1   0.0000
    39 C9A      5.9509  18.3247   9.2637   C.2       1 RES1   0.0000
    40 N5A      3.7315  14.8743   9.4964   N.1       1 RES1   0.0000
    41 C15A     5.3860  19.0773   7.1747   C.2       1 RES1   0.0000
    42 C2A      7.1308  16.0469  13.0646   C.ar      1 RES1   0.0000
    43 N3A      6.1378  18.3646  10.5645   N.2       1 RES1   0.0000
    44 C7A      6.7370  17.3272  12.6964   C.ar      1 RES1   0.0000
    45 C10A     5.4556  19.4634   8.5157   C.2       1 RES1   0.0000
    46 C14A     4.9519  19.9439   6.1832   C.2       1 RES1   0.0000
    47 C3A      7.3552  15.7340  14.4091   C.ar      1 RES1   0.0000
    48 C6A      6.5649  18.3256  13.6539   C.ar      1 RES1   0.0000
    49 C11A     5.0849  20.7520   8.8866   C.2       1 RES1   0.0000
    50 C13A     4.5811  21.2202   6.5746   C.2       1 RES1   0.0000
    51 H8A      4.9341  19.7065   5.2310   H         1 RES1   0.0000
    52 C4A      7.1955  16.7253  15.3275   C.ar      1 RES1   0.0000
    53 H1A      7.5781  14.8749  14.6525   H         1 RES1   0.0000
    54 C5A      6.8268  18.0226  14.9717   C.ar      1 RES1   0.0000
    55 H4A      6.3633  19.1210  13.4551   H         1 RES1   0.0000
    56 C12A     4.6412  21.6134   7.9245   C.2       1 RES1   0.0000
    57 H5A      5.1485  21.0083   9.6596   H         1 RES1   0.0000
    58 H7A      4.2386  21.7669   5.9282   H         1 RES1   0.0000
    59 H2A      7.2549  16.5540  16.1665   H         1 RES1   0.0000
    60 H3A      6.7637  18.6775  15.7144   H         1 RES1   0.0000
    61 H6A      4.3438  22.4674   8.1528   H         1 RES1   0.0000
    62 P1       9.1121   6.7980   5.4530   P.3       2 RES2   0.0000
    63 N6       9.8380   7.7469   4.4580   N.1       2 RES2   1.0000
    64 C18     10.2060   6.3749   6.8002   C.ar      2 RES2   0.0000
    65 C19     10.3468   5.0748   7.2701   C.ar      2 RES2   0.0000
    66 C20     11.3012   4.7981   8.2393   C.ar      2 RES2   0.0000
    67 C21     12.1085   5.7884   8.7127   C.ar      2 RES2   0.0000
    68 C22     11.9406   7.0838   8.3008   C.ar      2 RES2   0.0000
    69 C23     11.0116   7.3841   7.3245   C.ar      2 RES2   0.0000
    70 C24      7.6527   7.6052   6.1235   C.ar      2 RES2   0.0000
    71 C25      7.1290   7.2460   7.3691   C.ar      2 RES2   0.0000
    72 C26      5.9943   7.8738   7.8398   C.ar      2 RES2   0.0000
    73 C27      5.3900   8.8498   7.0891   C.ar      2 RES2   0.0000
    74 C28      5.9014   9.1951   5.8631   C.ar      2 RES2   0.0000
    75 C29      7.0296   8.5846   5.3603   C.ar      2 RES2   0.0000
    76 C30      8.6037   5.2757   4.6452   C.ar      2 RES2   0.0000
    77 C31      9.4475   4.7198   3.6957   C.ar      2 RES2   0.0000
    78 C32      9.1148   3.5560   3.0528   C.ar      2 RES2   0.0000
    79 C33      7.9104   2.9439   3.3488   C.ar      2 RES2   0.0000
    80 C34      7.0628   3.4735   4.2984   C.ar      2 RES2   0.0000
    81 C35      7.4125   4.6409   4.9626   C.ar      2 RES2   0.0000
    82 H9       9.7760   4.3441   6.9598   H         2 RES2   0.0000
    83 H10     11.4828   3.8683   8.5344   H         2 RES2   0.0000
    84 H11     12.8200   5.5762   9.3484   H         2 RES2   0.0000
    85 H12     12.4577   7.8734   8.6360   H         2 RES2   0.0000
    86 H13     11.0050   8.2943   6.9982   H         2 RES2   0.0000
    87 H14      7.4862   6.5848   7.8710   H         2 RES2   0.0000
    88 H15      5.6651   7.6411   8.6449   H         2 RES2   0.0000
    89 H16      4.6241   9.2483   7.4707   H         2 RES2   0.0000
    90 H17      5.4879   9.7359   5.4200   H         2 RES2   0.0000
    91 H18      7.4397   8.7685   4.4803   H         2 RES2   0.0000
    92 H19     10.2409   5.1417   3.4817   H         2 RES2   0.0000
    93 H20      9.7242   3.1614   2.3538   H         2 RES2   0.0000
    94 H21      7.5850   2.2600   2.7934   H         2 RES2   0.0000
    95 H22      6.2136   3.0928   4.5712   H         2 RES2   0.0000
    96 H23      6.7206   4.9511   5.6813   H         2 RES2   0.0000
    97 P1A     10.5640   8.6958   3.4630   P.3       2 RES2   0.0000
    98 C18A     9.4701   9.1189   2.1158   C.ar      2 RES2   0.0000
    99 C24A    12.0233   7.8886   2.7925   C.ar      2 RES2   0.0000
   100 C30A    11.0724  10.2181   4.2708   C.ar      2 RES2   0.0000
   101 C19A     9.3293  10.4190   1.6459   C.ar      2 RES2   0.0000
   102 C23A     8.6645   8.1097   1.5915   C.ar      2 RES2   0.0000
   103 C25A    12.5471   8.2477   1.5469   C.ar      2 RES2   0.0000
   104 C29A    12.6465   6.9092   3.5557   C.ar      2 RES2   0.0000
   105 C31A    10.2286  10.7740   5.2203   C.ar      2 RES2   0.0000
   106 C35A    12.2635  10.8529   3.9533   C.ar      2 RES2   0.0000
   107 C20A     8.3749  10.6957   0.6767   C.ar      2 RES2   0.0000
   108 H9A      9.9001  11.1497   1.9562   H         2 RES2   0.0000
   109 C22A     7.7354   8.4100   0.6152   C.ar      2 RES2   0.0000
   110 H13A     8.6711   7.1995   1.9178   H         2 RES2   0.0000
   111 C26A    13.6818   7.6200   1.0762   C.ar      2 RES2   0.0000
   112 H14A    12.1899   8.9090   1.0450   H         2 RES2   0.0000
   113 C28A    13.7747   6.2987   3.0528   C.ar      2 RES2   0.0000
   114 H18A    12.2363   6.7253   4.4357   H         2 RES2   0.0000
   115 C32A    10.5612  11.9377   5.8631   C.ar      2 RES2   0.0000
   116 H19A     9.4352  10.3521   5.4343   H         2 RES2   0.0000
   117 C34A    12.6133  12.0203   4.6176   C.ar      2 RES2   0.0000
   118 H23A    12.9554  10.5426   3.2347   H         2 RES2   0.0000
   119 C21A     7.5675   9.7054   0.2033   C.ar      2 RES2   0.0000
   120 H10A     8.1932  11.6255   0.3816   H         2 RES2   0.0000
   121 H12A     7.2183   7.6203   0.2800   H         2 RES2   0.0000
   122 C27A    14.2861   6.6440   1.8269   C.ar      2 RES2   0.0000
   123 H15A    14.0110   7.8526   0.2710   H         2 RES2   0.0000
   124 H17A    14.1881   5.7579   3.4960   H         2 RES2   0.0000
   125 C33A    11.7656  12.5499   5.5671   C.ar      2 RES2   0.0000
   126 H20A     9.9519  12.3324   6.5622   H         2 RES2   0.0000
   127 H22A    13.4625  12.4010   4.3448   H         2 RES2   0.0000
   128 H11A     6.8561   9.9176  -0.4324   H         2 RES2   0.0000
   129 H16A    15.0520   6.2455   1.4453   H         2 RES2   0.0000
   130 H21A    12.0910  13.2338   6.1226   H         2 RES2   0.0000
@<TRIPOS>BOND
     1     1     3    1
     2     2     6    2
     3     3     6    1
     4     4    13    1
     5     5     1    1
     6     6     7    1
     7     7     8   ar
     8     8     9   ar
     9     9    10   ar
    10    10    11   ar
    11    11    12   ar
    12    12     7   ar
    13    13     3    2
    14    14     4    2
    15    15    14    1
    16    16    15   ar
    17    17    16   ar
    18    18    17   ar
    19    19    18   ar
    20    20    15   ar
    21    21     5    1
    22    22     1    1
    23    23    22    3
    24    24     8    1
    25    25     9    1
    26    26    10    1
    27    27    11    1
    28    28    16    1
    29    29    17    1
    30    30    18    1
    31    31    19    1
    32    32     1    1
    33    33     1    1
    34    34     1    1
    35    35     2    1
    36    36    21    2
    37    37    32    2
    38    38    32    1
    39    39    33    1
    40    40    34    3
    41    41    35    2
    42    42    37    1
    43    43    38    2
    44    44    38    1
    45    45    39    2
    46    46    41    1
    47    47    42   ar
    48    48    44   ar
    49    49    45    1
    50    50    46    2
    51    51    46    1
    52    52    47   ar
    53    53    47    1
    54    54    48   ar
    55    55    48    1
    56    56    49    2
    57    57    49    1
    58    58    50    1
    59    59    52    1
    60    60    54    1
    61    61    56    1
    62     5    14    1
    63    12    13    1
    64    19    20   ar
    65    20    21    1
    66    33    35    1
    67    36    37    1
    68    39    43    1
    69    41    45    1
    70    42    44   ar
    71    50    56    1
    72    52    54   ar
    73    62    63    2
    74    63    97    2
    75    64    62    1
    76    65    64   ar
    77    66    65   ar
    78    67    66   ar
    79    68    67   ar
    80    69    64   ar
    81    70    62    1
    82    71    70   ar
    83    72    71   ar
    84    73    72   ar
    85    74    73   ar
    86    75    70   ar
    87    76    62    1
    88    77    76   ar
    89    78    77   ar
    90    79    78   ar
    91    80    79   ar
    92    81    76   ar
    93    82    65    1
    94    83    66    1
    95    84    67    1
    96    85    68    1
    97    86    69    1
    98    87    71    1
    99    88    72    1
   100    89    73    1
   101    90    74    1
   102    91    75    1
   103    92    77    1
   104    93    78    1
   105    94    79    1
   106    95    80    1
   107    96    81    1
   108    97    98    1
   109    98   101   ar
   110    99    97    1
   111   100    97    1
   112   101   107   ar
   113   102    98   ar
   114   103    99   ar
   115   104    99   ar
   116   105   100   ar
   117   106   100   ar
   118   107   119   ar
   119   108   101    1
   120   109   102   ar
   121   110   102    1
   122   111   103   ar
   123   112   103    1
   124   113   104   ar
   125   114   104    1
   126   115   105   ar
   127   116   105    1
   128   117   106   ar
   129   118   106    1
   130   119   109   ar
   131   120   107    1
   132   121   109    1
   133   122   111   ar
   134   123   111    1
   135   124   113    1
   136   125   115   ar
   137   126   115    1
   138   127   117    1
   139   128   119    1
   140   129   122    1
   141   130   125    1
   142    68    69   ar
   143    74    75   ar
   144    80    81   ar
   145   113   122   ar
   146   117   125   ar
@<TRIPOS>SUBSTRUCTURE
     1 RES1        1 GROUP             0 ****  ****    0  
     2 RES2       62 GROUP             0 ****  ****    0  
@<TRIPOS>CRYSIN
   12.9400   12.3200   10.3220   65.2200   68.2400   76.3400     2     1
