@<TRIPOS>MOLECULE
DELFEI
    56    60     4     0     0
SMALL
USER_CHARGES
****
Generated from the CSD

@<TRIPOS>ATOM
     1 I1       5.6265   3.3665  -2.1177   I         1 RES1   0.0000
     2 I2       3.6153   2.2625  -3.7469   I         1 RES1   0.0000
     3 I3       1.6788   0.7583  -5.5431   I         2 RES2  -1.0000
     4 I4       2.4514  -2.0387  -4.3675   I         3 RES3   0.0000
     5 I5       3.1804  -4.5384  -3.4367   I         3 RES3   0.0000
     6 Fe1      4.5210  -6.5362   1.5999   Fe        4 RES4   1.0000
     7 N1       2.8602  -5.5826   1.4363   N.2       4 RES4   0.0000
     8 N2       3.7619  -8.2368   2.2610   N.2       4 RES4   0.0000
     9 N3       6.1588  -7.4953   1.7691   N.2       4 RES4   0.0000
    10 N4       5.2608  -4.8202   1.0504   N.2       4 RES4   0.0000
    11 N5       4.4389  -7.1415  -0.2719   N.ar      4 RES4   0.0000
    12 N6       4.6293  -5.9050   3.4750   N.ar      4 RES4   0.0000
    13 O1       1.6541  -6.1585   1.6585   O.3       4 RES4   0.0000
    14 O2       2.4807  -8.4147   2.4122   O.3       4 RES4   0.0000
    15 O3       7.3803  -6.9628   1.4272   O.3       4 RES4   0.0000
    16 O4       6.5374  -4.6277   0.9387   O.3       4 RES4   0.0000
    17 C1       2.8949  -4.2966   1.1508   C.2       4 RES4   0.0000
    18 C2       4.7417  -9.1339   2.5160   C.2       4 RES4   0.0000
    19 C3       6.1339  -8.7323   2.2452   C.2       4 RES4   0.0000
    20 C4       4.3255  -3.8629   0.9590   C.2       4 RES4   0.0000
    21 C5       1.7559  -3.4208   1.0154   C.ar      4 RES4   0.0000
    22 C6       4.2977 -10.5327   3.0350   C.ar      4 RES4   0.0000
    23 C7       7.2896  -9.5629   2.5498   C.ar      4 RES4   0.0000
    24 C8       4.7657  -2.4386   0.7108   C.ar      4 RES4   0.0000
    25 C9       1.0594  -3.4406  -0.2144   C.ar      4 RES4   0.0000
    26 C10     -0.0895  -2.5871  -0.3610   C.ar      4 RES4   0.0000
    27 C11     -0.4776  -1.8122   0.7559   C.ar      4 RES4   0.0000
    28 C12      0.1693  -1.8370   1.9632   C.ar      4 RES4   0.0000
    29 C13      1.3557  -2.6925   2.1437   C.ar      4 RES4   0.0000
    30 C14      3.4064 -10.5856   4.0956   C.ar      4 RES4   0.0000
    31 C15      3.0527 -11.9424   4.5243   C.ar      4 RES4   0.0000
    32 C16      3.7010 -13.0016   3.8699   C.ar      4 RES4   0.0000
    33 C17      4.4764 -12.9191   2.7755   C.ar      4 RES4   0.0000
    34 C18      4.9158 -11.5878   2.3129   C.ar      4 RES4   0.0000
    35 C19      8.2779  -9.8019   1.6134   C.ar      4 RES4   0.0000
    36 C20      9.4144 -10.5571   1.9632   C.ar      4 RES4   0.0000
    37 C21      9.5009 -10.9776   3.3396   C.ar      4 RES4   0.0000
    38 C22      8.5534 -10.7451   4.2309   C.ar      4 RES4   0.0000
    39 C23      7.3793 -10.0109   3.9263   C.ar      4 RES4   0.0000
    40 C24      5.6920  -1.8873   1.5683   C.ar      4 RES4   0.0000
    41 C25      6.1849  -0.5470   1.2636   C.ar      4 RES4   0.0000
    42 C26      5.4831   0.1822   0.2595   C.ar      4 RES4   0.0000
    43 C27      4.6670  -0.3914  -0.6093   C.ar      4 RES4   0.0000
    44 C28      4.0433  -1.7841  -0.4287   C.ar      4 RES4   0.0000
    45 C29      3.2714  -7.8191  -0.7221   C.ar      4 RES4   0.0000
    46 C30      3.1455  -8.2206  -2.0196   C.ar      4 RES4   0.0000
    47 C31      4.2687  -7.9158  -2.9109   C.ar      4 RES4   0.0000
    48 C32      5.3851  -7.1892  -2.4596   C.ar      4 RES4   0.0000
    49 C33      5.3403  -6.8034  -1.1283   C.ar      4 RES4   0.0000
    50 C34      6.4103  -6.8555  -3.5314   C.3       4 RES4   0.0000
    51 C35      3.7138  -5.8902   4.3663   C.ar      4 RES4   0.0000
    52 C36      3.8003  -5.3679   5.6413   C.ar      4 RES4   0.0000
    53 C37      4.9630  -4.9030   6.0926   C.ar      4 RES4   0.0000
    54 C38      6.0576  -4.9879   5.2689   C.ar      4 RES4   0.0000
    55 C39      5.9133  -5.4859   3.9714   C.ar      4 RES4   0.0000
    56 C40      7.4984  -4.4870   5.7315   C.3       4 RES4   0.0000
@<TRIPOS>BOND
     1     1     2    1
     2     4     5    1
     3     6     7    1
     4     7    13    1
     5     8     6    1
     6     9     6    1
     7    10     6    1
     8    11     6    1
     9    12     6    1
    10    14     8    1
    11    15     9    1
    12    16    10    1
    13    17     7    2
    14    18     8    2
    15    19     9    2
    16    20    10    2
    17    21    17    1
    18    22    18    1
    19    23    19    1
    20    24    20    1
    21    25    21   ar
    22    26    25   ar
    23    27    26   ar
    24    28    27   ar
    25    29    21   ar
    26    30    22   ar
    27    31    30   ar
    28    32    31   ar
    29    33    32   ar
    30    34    22   ar
    31    35    23   ar
    32    36    35   ar
    33    37    36   ar
    34    38    37   ar
    35    39    23   ar
    36    40    24   ar
    37    41    40   ar
    38    42    41   ar
    39    43    42   ar
    40    44    24   ar
    41    45    11   ar
    42    46    45   ar
    43    47    46   ar
    44    48    47   ar
    45    49    11   ar
    46    50    48    1
    47    51    12   ar
    48    52    51   ar
    49    53    52   ar
    50    54    53   ar
    51    55    12   ar
    52    56    54    1
    53    17    20    1
    54    18    19    1
    55    28    29   ar
    56    33    34   ar
    57    38    39   ar
    58    43    44   ar
    59    48    49   ar
    60    54    55   ar
@<TRIPOS>SUBSTRUCTURE
     1 RES1        1 GROUP             0 ****  ****    0  
     2 RES2        3 GROUP             0 ****  ****    0  
     3 RES3        4 GROUP             0 ****  ****    0  
     4 RES4        6 GROUP             0 ****  ****    0  
@<TRIPOS>CRYSIN
   14.9950   13.8740   12.5900  113.3500   98.6900   96.8200     2     1
