@<TRIPOS>MOLECULE
DEMBOP
    79    86     1     0     0
SMALL
NO_CHARGES
****
Generated from the CSD

@<TRIPOS>ATOM
     1 Fe1      4.3414   4.1207   1.0492   Fe        1 RES1   0.0000
     2 S1       3.0292   7.0968  -2.4216   S.2       1 RES1   0.0000
     3 S2       6.5524   1.0666  -1.8115   S.2       1 RES1   0.0000
     4 N1       2.5751   3.1430   1.3360   N.ar      1 RES1   0.0000
     5 N2       3.9719   5.4356   2.6452   N.2       1 RES1   0.0000
     6 C1       2.7698   5.5214   3.4302   C.ar      1 RES1   0.0000
     7 C2       6.1124   2.6475   3.1802   C.ar      1 RES1   0.0000
     8 C3       3.3590   6.0651  -1.1876   C.1       1 RES1   0.0000
     9 N3       4.8148   2.7933   2.5888   N.2       1 RES1   0.0000
    10 C4       5.0047   6.0780   3.0499   C.2       1 RES1   0.0000
    11 H1       4.9730   6.6231   3.8277   H         1 RES1   0.0000
    12 C5       3.8050   2.1904   3.1021   C.2       1 RES1   0.0000
    13 H2       3.8939   1.6496   3.8780   H         1 RES1   0.0000
    14 N4       6.1210   5.1239   1.2152   N.ar      1 RES1   0.0000
    15 N5       5.0546   2.8854  -0.3254   N.2       1 RES1   0.0000
    16 C6       2.5208   2.3692   2.4430   C.ar      1 RES1   0.0000
    17 C7       0.4025   5.8069   3.5107   C.ar      1 RES1   0.0000
    18 H3      -0.4276   5.9540   3.0729   H         1 RES1   0.0000
    19 C8       1.5743   5.7449   2.7877   C.ar      1 RES1   0.0000
    20 H4       1.5557   5.8560   1.8451   H         1 RES1   0.0000
    21 C9       0.4558   5.6498   4.8727   C.ar      1 RES1   0.0000
    22 C10      1.4610   3.2733   0.6173   C.ar      1 RES1   0.0000
    23 H5       1.4923   3.7881  -0.1812   H         1 RES1   0.0000
    24 C11      7.1656   2.2755   2.3600   C.ar      1 RES1   0.0000
    25 H6       7.0085   2.0707   1.4459   H         1 RES1   0.0000
    26 C12      5.6644   2.1313  -0.9510   C.1       1 RES1   0.0000
    27 C13      1.6470   5.4291   5.5251   C.ar      1 RES1   0.0000
    28 H7       1.6671   5.3282   6.4695   H         1 RES1   0.0000
    29 C14      6.3480   2.9489   4.5087   C.ar      1 RES1   0.0000
    30 H8       5.6313   3.2113   5.0756   H         1 RES1   0.0000
    31 C15      6.2244   5.9439   2.2761   C.ar      1 RES1   0.0000
    32 C16      7.6417   2.8638   5.0102   C.ar      1 RES1   0.0000
    33 H9       7.8096   3.0700   5.9210   H         1 RES1   0.0000
    34 N6      10.2167   2.2166   5.8002   N.2       1 RES1   0.0000
    35 C17     14.2029   1.6770   7.0247   C.ar      1 RES1   0.0000
    36 H10     15.0914   1.5170   7.3216   H         1 RES1   0.0000
    37 N7       3.5960   5.3527  -0.3053   N.2       1 RES1   0.0000
    38 C18      1.3563   1.7809   2.8716   C.ar      1 RES1   0.0000
    39 H11      1.3448   1.2632   3.6667   H         1 RES1   0.0000
    40 C19      8.6766   2.4817   4.1950   C.ar      1 RES1   0.0000
    41 N8      10.0783   2.3569   4.5858   N.2       1 RES1   0.0000
    42 N9      -1.6588   5.6872   5.2111   N.2       1 RES1   0.0000
    43 N10     -0.7186   5.7709   5.8858   N.2       1 RES1   0.0000
    44 C20      0.2649   2.6922   0.9863   C.ar      1 RES1   0.0000
    45 H12     -0.5074   2.8076   0.4462   H         1 RES1   0.0000
    46 C21     11.6293   2.0722   6.1659   C.ar      1 RES1   0.0000
    47 C22      8.4422   2.2019   2.8733   C.ar      1 RES1   0.0000
    48 H13      9.1648   1.9568   2.3080   H         1 RES1   0.0000
    49 C23      2.7979   5.3585   4.7989   C.ar      1 RES1   0.0000
    50 H14      3.6249   5.1955   5.2383   H         1 RES1   0.0000
    51 C24      0.1997   1.9510   2.1302   C.ar      1 RES1   0.0000
    52 H15     -0.6200   1.5617   2.4103   H         1 RES1   0.0000
    53 C25     12.6818   2.3490   5.3004   C.ar      1 RES1   0.0000
    54 H16     12.5169   2.6648   4.4198   H         1 RES1   0.0000
    55 C26      7.1805   5.0052   0.4244   C.ar      1 RES1   0.0000
    56 H17      7.1154   4.4515  -0.3439   H         1 RES1   0.0000
    57 C27     13.1551   1.4333   7.8566   C.ar      1 RES1   0.0000
    58 H18     13.3138   1.1190   8.7389   H         1 RES1   0.0000
    59 C28     13.9811   2.1529   5.7516   C.ar      1 RES1   0.0000
    60 H19     14.7174   2.3476   5.1830   H         1 RES1   0.0000
    61 C29     -2.8966   5.8661   6.1374   C.ar      1 RES1   0.0000
    62 C30     11.8667   1.6424   7.4289   C.ar      1 RES1   0.0000
    63 H20     11.1397   1.4853   8.0193   H         1 RES1   0.0000
    64 C31      8.3607   5.6469   0.6693   C.ar      1 RES1   0.0000
    65 H21      9.0938   5.5373   0.0755   H         1 RES1   0.0000
    66 C32      7.3914   6.6044   2.5999   C.ar      1 RES1   0.0000
    67 H22      7.4413   7.1552   3.3714   H         1 RES1   0.0000
    68 C33     -5.2428   6.2929   7.4859   C.ar      1 RES1   0.0000
    69 H23     -6.0708   6.4328   7.9304   H         1 RES1   0.0000
    70 C34     -4.0623   5.6252   5.5168   C.ar      1 RES1   0.0000
    71 H24     -4.0772   5.3195   4.6177   H         1 RES1   0.0000
    72 C35     -5.2261   5.8286   6.1994   C.ar      1 RES1   0.0000
    73 H25     -6.0504   5.6411   5.7667   H         1 RES1   0.0000
    74 C36     -4.0606   6.5568   8.1384   C.ar      1 RES1   0.0000
    75 H26     -4.0620   6.8827   9.0308   H         1 RES1   0.0000
    76 C37     -2.8409   6.3333   7.4507   C.ar      1 RES1   0.0000
    77 H27     -2.0055   6.4991   7.8734   H         1 RES1   0.0000
    78 C38      8.4857   6.4443   1.7713   C.ar      1 RES1   0.0000
    79 H28      9.3087   6.8798   1.9642   H         1 RES1   0.0000
@<TRIPOS>BOND
     1     1     4    1
     2     2     8    2
     3     3    26    2
     4     4    16   ar
     5     5     1    1
     6     6     5    1
     7     7     9    1
     8     8    37    2
     9     9     1    1
    10    10     5    2
    11    11    10    1
    12    12     9    2
    13    13    12    1
    14    14     1    1
    15    15     1    1
    16    16    12    1
    17    17    18    1
    18    19     6   ar
    19    20    19    1
    20    21    17   ar
    21    22     4   ar
    22    23    22    1
    23    24     7   ar
    24    25    24    1
    25    26    15    2
    26    27    21   ar
    27    28    27    1
    28    29     7   ar
    29    30    29    1
    30    31    10    1
    31    32    29   ar
    32    33    32    1
    33    34    41    2
    34    35    36    1
    35    37     1    1
    36    38    16   ar
    37    39    38    1
    38    40    32   ar
    39    41    40    1
    40    42    43    2
    41    43    21    1
    42    44    22   ar
    43    45    44    1
    44    46    34    1
    45    47    24   ar
    46    48    47    1
    47    49     6   ar
    48    50    49    1
    49    51    38   ar
    50    52    51    1
    51    53    46   ar
    52    54    53    1
    53    55    14   ar
    54    56    55    1
    55    57    35   ar
    56    58    57    1
    57    59    35   ar
    58    60    59    1
    59    61    42    1
    60    62    46   ar
    61    63    62    1
    62    64    55   ar
    63    65    64    1
    64    66    31   ar
    65    67    66    1
    66    68    69    1
    67    70    61   ar
    68    71    70    1
    69    72    68   ar
    70    73    72    1
    71    74    68   ar
    72    75    74    1
    73    76    61   ar
    74    77    76    1
    75    78    64   ar
    76    79    78    1
    77    14    31   ar
    78    17    19   ar
    79    27    49   ar
    80    40    47   ar
    81    44    51   ar
    82    53    59   ar
    83    57    62   ar
    84    66    78   ar
    85    70    72   ar
    86    74    76   ar
@<TRIPOS>SUBSTRUCTURE
     1 RES1        1 GROUP             0 ****  ****    0  
@<TRIPOS>CRYSIN
   15.0573   14.4200   16.7947   90.0000   92.8890   90.0000    14     1
