@<TRIPOS>MOLECULE
DENYAZ
    84    87     4     0     0
SMALL
USER_CHARGES
****
Generated from the CSD

@<TRIPOS>ATOM
     1 C1      10.1889   7.7236  10.5932   C.3       1 RES1   0.0000
     2 H1      10.4313   6.7714  10.4705   H         1 RES1   0.0000
     3 H2      11.0068   8.2209  10.8411   H         1 RES1   0.0000
     4 C2       9.1574  10.1235   9.5243   C.3       1 RES1   0.0000
     5 H3       8.1865  10.2797   9.4114   H         1 RES1   0.0000
     6 H4       9.3555  10.2056  10.4913   H         1 RES1   0.0000
     7 C3       9.8974  11.2477   8.7990   C.3       1 RES1   0.0000
     8 C4       9.4392  12.5834   9.4139   C.3       1 RES1   0.0000
     9 H5       8.4664  12.6687   9.3206   H         1 RES1   0.0000
    10 H6       9.8785  13.3244   8.9487   H         1 RES1   0.0000
    11 H7       9.6789  12.6054  10.3637   H         1 RES1   0.0000
    12 C5       9.5529  11.2609   7.3067   C.3       1 RES1   0.0000
    13 H8       8.6251  11.5799   7.1840   H         1 RES1   0.0000
    14 H9      10.1587  11.8831   6.8318   H         1 RES1   0.0000
    15 C6       8.8421   9.4900   5.8869   C.2       1 RES1   0.0000
    16 H10      8.1516  10.0307   5.5212   H         1 RES1   0.0000
    17 C7       9.0336   8.1165   5.5285   C.2       1 RES1   0.0000
    18 C8       9.9799   6.1929   5.6292   C.2       1 RES1   0.0000
    19 H11     10.5638   5.4826   5.8672   H         1 RES1   0.0000
    20 C9       8.9499   6.1039   4.7419   C.2       1 RES1   0.0000
    21 H12      8.6972   5.3310   4.2510   H         1 RES1   0.0000
    22 C10      7.1863   7.6867   3.8804   C.3       1 RES1   0.0000
    23 H13      6.6523   8.3518   4.3627   H         1 RES1   0.0000
    24 H14      6.6410   6.8910   3.7098   H         1 RES1   0.0000
    25 H15      7.4871   8.0644   3.0275   H         1 RES1   0.0000
    26 C11     11.4385  11.1544   8.9843   C.3       1 RES1   0.0000
    27 H16     11.8788  11.8435   8.4260   H         1 RES1   0.0000
    28 H17     11.6667  11.3368   9.9305   H         1 RES1   0.0000
    29 C12     12.9735   9.3638   9.2175   C.2       1 RES1   0.0000
    30 H18     13.4847   9.8606   9.8458   H         1 RES1   0.0000
    31 C13     13.2740   8.0086   8.8457   C.2       1 RES1   0.0000
    32 C14     12.9365   6.1551   7.7939   C.2       1 RES1   0.0000
    33 H19     12.5566   5.4945   7.2258   H         1 RES1   0.0000
    34 C15     14.0794   6.0070   8.5241   C.2       1 RES1   0.0000
    35 H20     14.6301   5.2343   8.5573   H         1 RES1   0.0000
    36 C16     15.4085   7.4809  10.0692   C.3       1 RES1   0.0000
    37 H21     16.0574   8.0332   9.5857   H         1 RES1   0.0000
    38 H22     15.8365   6.6459  10.3514   H         1 RES1   0.0000
    39 H23     15.0899   7.9675  10.8583   H         1 RES1   0.0000
    40 C17      9.1712   7.8468  11.6854   C.ar      1 RES1   0.0000
    41 C18      7.9785   7.1387  11.6388   C.ar      1 RES1   0.0000
    42 H24      7.8251   6.5276  10.9282   H         1 RES1   0.0000
    43 C19      7.0050   7.3078  12.6168   C.ar      1 RES1   0.0000
    44 H25      6.1901   6.8214  12.5702   H         1 RES1   0.0000
    45 C20      7.2297   8.1827  13.6538   C.ar      1 RES1   0.0000
    46 H26      6.5657   8.3025  14.3227   H         1 RES1   0.0000
    47 C21      8.4076   8.8861  13.7299   C.ar      1 RES1   0.0000
    48 H27      8.5555   9.4850  14.4527   H         1 RES1   0.0000
    49 C22      9.3934   8.7230  12.7457   C.ar      1 RES1   0.0000
    50 H28     10.2076   9.2083  12.8021   H         1 RES1   0.0000
    51 C23     12.7577   9.7824   5.1027   C.1       1 RES1   0.0000
    52 C24     13.4704  10.4566   4.0375   C.3       1 RES1   0.0000
    53 H29     14.4145  10.1934   4.0596   H         1 RES1   0.0000
    54 H30     13.3990  11.4260   4.1602   H         1 RES1   0.0000
    55 H31     13.0819  10.2060   3.1748   H         1 RES1   0.0000
    56 N1       9.6899   9.9231   6.7447   N.2       1 RES1   0.0000
    57 N2      10.0372   7.4569   6.1176   N.2       1 RES1   0.0000
    58 N3       8.3517   7.3173   4.6891   N.pl3     1 RES1   0.0000
    59 N4      11.9417   9.8347   8.6113   N.2       1 RES1   0.0000
    60 N5      12.4244   7.3993   8.0050   N.2       1 RES1   0.0000
    61 N6      14.2822   7.1788   9.1979   N.pl3     1 RES1   0.0000
    62 N7      12.1887   9.2476   5.9090   N.1       1 RES1   0.0000
    63 S1       9.5103   8.3931   9.0245   S.3       1 RES1   0.0000
    64 Fe1     11.0355   8.6564   7.3618   Fe        1 RES1   2.0000
    65 C25     12.8933   0.8137  12.0143   C.1       2 RES2   0.0000
    66 C26     13.3884   1.4492  13.1838   C.3       2 RES2   0.0000
    67 H32     13.1947   0.8923  13.9655   H         2 RES2   0.0000
    68 H33     12.9535   2.3217  13.2893   H         2 RES2   0.0000
    69 H34     14.3559   1.5749  13.1016   H         2 RES2   0.0000
    70 N8      12.5377   0.2870  11.0460   N.1       2 RES2   0.0000
    71 F1       4.0057   4.1232  11.1282   F         3 RES3   0.0000
    72 F2       4.6263   1.9773  10.8460   F         3 RES3   0.0000
    73 F3       6.1072   4.7785  10.6631   F         3 RES3   0.0000
    74 F4       6.7237   2.6524  10.4165   F         3 RES3   0.0000
    75 F5       4.9926   3.4926   9.2322   F         3 RES3   0.0000
    76 F6       5.7472   3.3100  12.3088   F         3 RES3   0.0000
    77 P1       5.3703   3.3611  10.7887   P.3       3 RES3  -1.0000
    78 F7      11.2686   2.0303   3.7589   F         4 RES4   0.0000
    79 F8      11.5750   3.2635   5.6402   F         4 RES4   0.0000
    80 F9       9.4988   3.0483   4.7579   F         4 RES4   0.0000
    81 F10      9.6845   0.8000   4.8143   F         4 RES4   0.0000
    82 F11     10.0056   2.0197   6.7042   F         4 RES4   0.0000
    83 F12     11.7563   1.0140   5.7016   F         4 RES4   0.0000
    84 P2      10.6422   2.0316   5.2223   P.3       4 RES4  -1.0000
@<TRIPOS>BOND
     1     1     2    1
     2     3     1    1
     3     4     5    1
     4     6     4    1
     5     7     4    1
     6     8     7    1
     7     9     8    1
     8    10     8    1
     9    11     8    1
    10    12     7    1
    11    13    12    1
    12    14    12    1
    13    15    16    1
    14    17    15    1
    15    18    19    1
    16    20    18    2
    17    21    20    1
    18    22    23    1
    19    24    22    1
    20    25    22    1
    21    26     7    1
    22    27    26    1
    23    28    26    1
    24    29    30    1
    25    31    29    1
    26    32    33    1
    27    34    32    2
    28    35    34    1
    29    36    37    1
    30    38    36    1
    31    39    36    1
    32    40     1    1
    33    41    40   ar
    34    42    41    1
    35    43    41   ar
    36    44    43    1
    37    45    43   ar
    38    46    45    1
    39    47    45   ar
    40    48    47    1
    41    49    40   ar
    42    50    49    1
    43    51    52    1
    44    52    53    1
    45    54    52    1
    46    55    52    1
    47    56    12    1
    48    57    17    2
    49    58    17    1
    50    59    26    1
    51    60    31    2
    52    61    31    1
    53    62    51    3
    54    63     1    1
    55    64    56    1
    56     4    63    1
    57    15    56    2
    58    18    57    1
    59    20    58    1
    60    22    58    1
    61    29    59    2
    62    32    60    1
    63    34    61    1
    64    36    61    1
    65    47    49   ar
    66    57    64    1
    67    59    64    1
    68    60    64    1
    69    62    64    1
    70    63    64    1
    71    65    66    1
    72    66    67    1
    73    68    66    1
    74    69    66    1
    75    70    65    3
    76    71    77    1
    77    72    77    1
    78    73    77    1
    79    74    77    1
    80    75    77    1
    81    76    77    1
    82    78    84    1
    83    79    84    1
    84    80    84    1
    85    81    84    1
    86    82    84    1
    87    83    84    1
@<TRIPOS>SUBSTRUCTURE
     1 RES1        1 GROUP             0 ****  ****    0  
     2 RES2       65 GROUP             0 ****  ****    0  
     3 RES3       71 GROUP             0 ****  ****    0  
     4 RES4       78 GROUP             0 ****  ****    0  
@<TRIPOS>CRYSIN
   11.2287   12.2948   12.7375   88.3690   74.4650   84.9590     2     1
