@<TRIPOS>MOLECULE
DEPMUJ
   140   144     2     0     0
SMALL
USER_CHARGES
****
Generated from the CSD

@<TRIPOS>ATOM
     1 Sn1     10.6275   4.3750   3.7427   Sn        1 RES1   1.0000
     2 O1      11.7646   4.1247   2.0949   O.2       1 RES1   0.0000
     3 O2      10.7565   2.3532   4.0266   O.2       1 RES1   0.0000
     4 O3      12.3521   4.7081   4.7744   O.2       1 RES1   0.0000
     5 O4      10.4398   6.3510   3.3496   O.2       1 RES1   0.0000
     6 O5       8.8296   4.0813   2.8476   O.2       1 RES1   0.0000
     7 O6       9.6410   4.5389   5.5150   O.2       1 RES1   0.0000
     8 C1      11.5121   4.4655   6.9884   C.2       1 RES1   0.0000
     9 H1      11.7688   4.3510   7.8961   H         1 RES1   0.0000
    10 C2      13.8160   3.6104   1.0342   C.3       1 RES1   0.0000
    11 C3       6.5259   4.4249   2.3765   C.3       1 RES1   0.0000
    12 C4      11.7787   0.2006   4.2177   C.3       1 RES1   0.0000
    13 C5      10.1392   4.5109   6.7110   C.2       1 RES1   0.0000
    14 C6      12.7162   2.0369   2.7245   C.2       1 RES1   0.0000
    15 H2      13.4537   1.4555   2.5810   H         1 RES1   0.0000
    16 C7      11.7333   1.6029   3.6330   C.2       1 RES1   0.0000
    17 C8      14.0132   4.6160   6.4342   C.3       1 RES1   0.0000
    18 C9      12.5349   4.5732   6.0457   C.2       1 RES1   0.0000
    19 C10      9.4583   8.4912   3.2265   C.3       1 RES1   0.0000
    20 C11     13.0955   0.0327   4.9977   C.3       1 RES1   0.0000
    21 H3      13.8540   0.1457   4.3867   H         1 RES1   0.0000
    22 H4      13.1279  -0.8611   5.3968   H         1 RES1   0.0000
    23 H5      13.1444   0.7090   5.7059   H         1 RES1   0.0000
    24 C12     15.0825   2.7517   1.2312   C.3       1 RES1   0.0000
    25 H6      15.3868   2.8267   2.1599   H         1 RES1   0.0000
    26 H7      15.7885   3.0676   0.6296   H         1 RES1   0.0000
    27 H8      14.8770   1.8146   1.0299   H         1 RES1   0.0000
    28 C13      8.1031   6.3490   2.8944   C.2       1 RES1   0.0000
    29 H9       7.3367   6.9048   2.8232   H         1 RES1   0.0000
    30 C14     14.2881   4.0396   7.8239   C.3       1 RES1   0.0000
    31 H10     13.8172   4.5730   8.4977   H         1 RES1   0.0000
    32 H11     15.2510   4.0626   8.0029   H         1 RES1   0.0000
    33 H12     13.9709   3.1126   7.8617   H         1 RES1   0.0000
    34 C15      6.5197   2.9077   2.4480   C.3       1 RES1   0.0000
    35 H13      7.1863   2.5482   1.8264   H         1 RES1   0.0000
    36 H14      5.6316   2.5722   2.2050   H         1 RES1   0.0000
    37 H15      6.7374   2.6223   3.3607   H         1 RES1   0.0000
    38 C16      9.3192   6.9818   3.1448   C.2       1 RES1   0.0000
    39 C17      9.8065   8.8439   4.6768   C.3       1 RES1   0.0000
    40 H16      9.0826   8.5481   5.2676   H         1 RES1   0.0000
    41 H17      9.9178   9.8148   4.7586   H         1 RES1   0.0000
    42 H18     10.6400   8.3973   4.9315   H         1 RES1   0.0000
    43 C18     10.5972  -0.0368   5.1550   C.3       1 RES1   0.0000
    44 H19     10.6242   0.6148   5.8865   H         1 RES1   0.0000
    45 H20     10.6509  -0.9438   5.5243   H         1 RES1   0.0000
    46 H21      9.7600   0.0640   4.6573   H         1 RES1   0.0000
    47 C19     12.7172   3.2221   2.0228   C.2       1 RES1   0.0000
    48 C20      7.9033   4.9838   2.7391   C.2       1 RES1   0.0000
    49 C21      5.4719   5.0245   3.3138   C.3       1 RES1   0.0000
    50 H22      5.7014   4.8108   4.2429   H         1 RES1   0.0000
    51 H23      4.5927   4.6482   3.1005   H         1 RES1   0.0000
    52 H24      5.4477   5.9973   3.1994   H         1 RES1   0.0000
    53 C22      6.2041   4.8446   0.9309   C.3       1 RES1   0.0000
    54 H25      6.2724   5.8184   0.8504   H         1 RES1   0.0000
    55 H26      5.2943   4.5603   0.7035   H         1 RES1   0.0000
    56 H27      6.8414   4.4202   0.3190   H         1 RES1   0.0000
    57 C23     13.2652   3.4231  -0.3813   C.3       1 RES1   0.0000
    58 H28     12.9547   2.4999  -0.4924   H         1 RES1   0.0000
    59 H29     13.9721   3.6099  -1.0345   H         1 RES1   0.0000
    60 H30     12.5168   4.0388  -0.5254   H         1 RES1   0.0000
    61 C24     14.8362   3.8295   5.3949   C.3       1 RES1   0.0000
    62 H31     14.5514   2.8913   5.3949   H         1 RES1   0.0000
    63 H32     15.7873   3.8820   5.6233   H         1 RES1   0.0000
    64 H33     14.6916   4.2140   4.5051   H         1 RES1   0.0000
    65 C25     14.1949   5.0772   1.2693   C.3       1 RES1   0.0000
    66 H34     13.4246   5.6492   1.0713   H         1 RES1   0.0000
    67 H35     14.9412   5.3193   0.6810   H         1 RES1   0.0000
    68 H36     14.4625   5.1997   2.2034   H         1 RES1   0.0000
    69 C26     11.7230  -0.8239   3.0660   C.3       1 RES1   0.0000
    70 H37     10.8898  -0.7056   2.5643   H         1 RES1   0.0000
    71 H38     11.7555  -1.7317   3.4353   H         1 RES1   0.0000
    72 H39     12.4872  -0.6867   2.4690   H         1 RES1   0.0000
    73 C27     10.6116   8.9239   2.3051   C.3       1 RES1   0.0000
    74 H40     11.4348   8.4650   2.5741   H         1 RES1   0.0000
    75 H41     10.7403   9.8932   2.3769   H         1 RES1   0.0000
    76 H42     10.3950   8.6910   1.3787   H         1 RES1   0.0000
    77 C28      8.1785   9.2350   2.8118   C.3       1 RES1   0.0000
    78 H43      7.9303   8.9736   1.8999   H         1 RES1   0.0000
    79 H44      8.3381  10.2012   2.8421   H         1 RES1   0.0000
    80 H45      7.4523   9.0035   3.4269   H         1 RES1   0.0000
    81 C29     14.4192   6.0997   6.3751   C.3       1 RES1   0.0000
    82 H46     14.2588   6.4466   5.4734   H         1 RES1   0.0000
    83 H47     15.3704   6.1868   6.5950   H         1 RES1   0.0000
    84 H48     13.8869   6.6094   7.0214   H         1 RES1   0.0000
    85 C30      9.0733   4.5558   7.7935   C.3       1 RES1   0.0000
    86 C31      8.1564   3.3562   7.5824   C.3       1 RES1   0.0000
    87 H49      7.7834   3.3865   6.6762   H         1 RES1   0.0000
    88 H50      7.4266   3.3848   8.2363   H         1 RES1   0.0000
    89 H51      8.6673   2.5291   7.6983   H         1 RES1   0.0000
    90 C32      9.6419   4.5234   9.2059   C.3       1 RES1   0.0000
    91 H52     10.1545   3.6983   9.3333   H         1 RES1   0.0000
    92 H53      8.9068   4.5545   9.8538   H         1 RES1   0.0000
    93 H54     10.2280   5.2969   9.3396   H         1 RES1   0.0000
    94 C33      8.2996   5.8751   7.6015   C.3       1 RES1   0.0000
    95 H55      8.9058   6.6327   7.7416   H         1 RES1   0.0000
    96 H56      7.5650   5.9206   8.2477   H         1 RES1   0.0000
    97 H57      7.9373   5.9118   6.6913   H         1 RES1   0.0000
    98 Fe1      5.1432  12.0262   4.0107   Fe        2 RES2   0.0000
    99 O7       4.5413  13.1614   2.3735   O.2       2 RES2   0.0000
   100 O8       4.8212  10.3596   2.7889   O.2       2 RES2   0.0000
   101 O9       5.6910  10.6230   5.4600   O.2       2 RES2   0.0000
   102 O10      3.1840  11.6990   4.6843   O.2       2 RES2   0.0000
   103 O11      5.4875  13.6630   5.2389   O.2       2 RES2   0.0000
   104 O12      7.0692  12.3837   3.2905   O.2       2 RES2  -1.0000
   105 C34      4.2461  13.8740   0.1760   C.3       2 RES2   0.0000
   106 C35      4.3942  12.7522   1.1965   C.2       2 RES2   0.0000
   107 C36      4.3257  11.4378   0.7285   C.2       2 RES2   0.0000
   108 H58      4.1513  11.2794  -0.1918   H         2 RES2   0.0000
   109 C37      4.5080  10.3512   1.5878   C.2       2 RES2   0.0000
   110 C38      1.2602  10.5079   5.2440   C.3       2 RES2   0.0000
   111 C39      2.7877  10.6378   5.2254   C.2       2 RES2   0.0000
   112 C40      3.5499   9.6203   5.7986   C.2       2 RES2   0.0000
   113 H59      3.1104   8.8555   6.1506   H         2 RES2   0.0000
   114 C41      4.9297   9.6966   5.8672   C.2       2 RES2   0.0000
   115 C42      5.6904   8.5249   6.4894   C.3       2 RES2   0.0000
   116 F1       6.9568  15.3564   7.2286   F         2 RES2   0.0000
   117 C43      6.3731  14.5489   5.0851   C.2       2 RES2   0.0000
   118 C44      7.4271  14.5624   4.1796   C.2       2 RES2   0.0000
   119 H60      7.9736  15.3363   4.1126   H         2 RES2   0.0000
   120 C45      7.6976  13.4685   3.3726   C.2       2 RES2   0.0000
   121 F2       3.1193  14.5894   0.3927   F         2 RES2   0.0000
   122 F3       4.2085  13.4666  -1.0938   F         2 RES2   0.0000
   123 F4       5.2647  14.7430   0.2778   F         2 RES2   0.0000
   124 F5       0.8236   9.3215   5.6583   F         2 RES2   0.0000
   125 F6       0.7217  11.4207   6.0510   F         2 RES2   0.0000
   126 F7       0.7471  10.7075   4.0335   F         2 RES2   0.0000
   127 F8       4.9288   7.7345   7.2435   F         2 RES2   0.0000
   128 F9       6.2301   7.7515   5.5387   F         2 RES2   0.0000
   129 F10      6.6933   8.9258   7.2628   F         2 RES2   0.0000
   130 C46      6.2944  15.6937   6.1193   C.3       2 RES2   0.0000
   131 F11      6.8204  16.8124   5.6907   F         2 RES2   0.0000
   132 F12      5.0650  15.9323   6.5280   F         2 RES2   0.0000
   133 C47      4.2675   8.9452   1.0119   C.3       2 RES2   0.0000
   134 F13      3.7315   8.9298  -0.1884   F         2 RES2   0.0000
   135 F14      5.4153   8.2894   0.8928   F         2 RES2   0.0000
   136 F15      3.5057   8.2349   1.7823   F         2 RES2   0.0000
   137 C48      8.9241  13.5207   2.4607   C.3       2 RES2   0.0000
   138 F16      9.5468  14.6941   2.4571   F         2 RES2   0.0000
   139 F17      9.8435  12.6211   2.8642   F         2 RES2   0.0000
   140 F18      8.6212  13.2170   1.2194   F         2 RES2   0.0000
@<TRIPOS>BOND
     1     1     2    1
     2     2    47   un
     3     3     1    1
     4     4     1    1
     5     5     1    1
     6     6     1    1
     7     7     1    1
     8     8     9    1
     9    10    24    1
    10    11    34    1
    11    12    16    1
    12    13     7   un
    13    14    15    1
    14    16     3   un
    15    17    18    1
    16    18     4   un
    17    19    38    1
    18    20    12    1
    19    21    20    1
    20    22    20    1
    21    23    20    1
    22    24    25    1
    23    26    24    1
    24    27    24    1
    25    28    29    1
    26    30    17    1
    27    31    30    1
    28    32    30    1
    29    33    30    1
    30    34    35    1
    31    36    34    1
    32    37    34    1
    33    38     5   un
    34    39    19    1
    35    40    39    1
    36    41    39    1
    37    42    39    1
    38    43    12    1
    39    44    43    1
    40    45    43    1
    41    46    43    1
    42    47    10    1
    43    48     6   un
    44    49    11    1
    45    50    49    1
    46    51    49    1
    47    52    49    1
    48    53    11    1
    49    54    53    1
    50    55    53    1
    51    56    53    1
    52    57    10    1
    53    58    57    1
    54    59    57    1
    55    60    57    1
    56    61    17    1
    57    62    61    1
    58    63    61    1
    59    64    61    1
    60    65    10    1
    61    66    65    1
    62    67    65    1
    63    68    65    1
    64    69    12    1
    65    70    69    1
    66    71    69    1
    67    72    69    1
    68    73    19    1
    69    74    73    1
    70    75    73    1
    71    76    73    1
    72    77    19    1
    73    78    77    1
    74    79    77    1
    75    80    77    1
    76    81    17    1
    77    82    81    1
    78    83    81    1
    79    84    81    1
    80    85    13    1
    81    86    85    1
    82    87    86    1
    83    88    86    1
    84    89    86    1
    85    90    85    1
    86    91    90    1
    87    92    90    1
    88    93    90    1
    89    94    85    1
    90    95    94    1
    91    96    94    1
    92    97    94    1
    93     8    13   un
    94     8    18   un
    95    11    48    1
    96    14    16   un
    97    14    47   un
    98    28    38   un
    99    28    48   un
   100    98    99    1
   101    99   106   un
   102   100    98    1
   103   101    98    1
   104   102    98    1
   105   103    98    1
   106   104    98    1
   107   105   106    1
   108   106   107   un
   109   107   108    1
   110   109   100   un
   111   110   111    1
   112   111   102   un
   113   112   111   un
   114   113   112    1
   115   114   101   un
   116   115   114    1
   117   116   130    1
   118   117   103   un
   119   118   117   un
   120   119   118    1
   121   120   104   un
   122   121   105    1
   123   122   105    1
   124   123   105    1
   125   124   110    1
   126   125   110    1
   127   126   110    1
   128   127   115    1
   129   128   115    1
   130   129   115    1
   131   130   117    1
   132   131   130    1
   133   132   130    1
   134   133   109    1
   135   134   133    1
   136   135   133    1
   137   136   133    1
   138   137   120    1
   139   138   137    1
   140   139   137    1
   141   140   137    1
   142   107   109   un
   143   112   114   un
   144   118   120   un
@<TRIPOS>SUBSTRUCTURE
     1 RES1        1 GROUP             0 ****  ****    0  
     2 RES2       98 GROUP             0 ****  ****    0  
@<TRIPOS>CRYSIN
   12.4216   15.2140   16.5438   83.1440   74.7430   84.1930     2     1
