@<TRIPOS>MOLECULE
DEQDIP
    70    72     2     0     0
SMALL
USER_CHARGES
****
Generated from the CSD

@<TRIPOS>ATOM
     1 Fe1      1.0874   6.1355   9.0098   Fe        1 RES1   2.0000
     2 N1      -0.8667   6.1355   8.0419   N.1       1 RES1   0.0000
     3 N2       1.9387   6.1355   7.0082   N.1       1 RES1   0.0000
     4 N3       3.1387   6.1355   9.6723   N.1       1 RES1   0.0000
     5 N4       0.9327   8.2508   9.0078   N.1       1 RES1   0.0000
     6 N5       0.4180   6.1355  11.0899   N.1       1 RES1   0.0000
     7 C1       0.2795  10.7516   9.1444   C.3       1 RES1   0.0000
     8 H1      -0.5292  10.8991   8.6471   H         1 RES1   0.0000
     9 H2       0.9831  11.2918   8.7779   H         1 RES1   0.0000
    10 H3       0.1381  10.9900  10.0638   H         1 RES1   0.0000
    11 C2       0.6529   9.3503   9.0597   C.1       1 RES1   0.0000
    12 C3       4.2514   6.1355   9.8940   C.1       1 RES1   0.0000
    13 C4       0.2316   6.1355  12.2138   C.1       1 RES1   0.0000
    14 C5      -1.5795   6.1355   7.1670   C.1       1 RES1   0.0000
    15 C6      -0.0091   6.1355  13.6524   C.3       1 RES1   0.0000
    16 C7       3.3466   6.1355   4.8511   C.3       1 RES1   0.0000
    17 C8       5.6805   6.1355  10.1820   C.3       1 RES1   0.0000
    18 C9       2.5488   6.1355   6.0570   C.1       1 RES1   0.0000
    19 C10     -2.4675   6.1355   6.0161   C.3       1 RES1   0.0000
    20 N4G      0.9327   4.0202   9.0078   N.1       1 RES1   0.0000
    21 C1G      0.2795   1.5194   9.1444   C.3       1 RES1   0.0000
    22 H1G     -0.5292   1.3719   8.6471   H         1 RES1   0.0000
    23 H2G      0.9831   0.9792   8.7779   H         1 RES1   0.0000
    24 H3G      0.1381   1.2811  10.0638   H         1 RES1   0.0000
    25 C2G      0.6529   2.9208   9.0597   C.1       1 RES1   0.0000
    26 F1       4.3154  16.3232   9.7066   F         2 RES2   0.0000
    27 F2       0.9778  15.2176  12.7899   F         2 RES2   0.0000
    28 F3       6.1141  12.4632  11.5518   F         2 RES2   0.0000
    29 F4       2.7765  14.8094   7.6054   F         2 RES2   0.0000
    30 F5       7.4333  13.9861   7.2917   F         2 RES2   0.0000
    31 F6       5.0540  15.6264   3.6170   F         2 RES2   0.0000
    32 F7       3.2792  11.7851  10.6047   F         2 RES2   0.0000
    33 F8       7.9866  13.3367  13.2345   F         2 RES2   0.0000
    34 F9       7.6518  11.7881   9.3666   F         2 RES2   0.0000
    35 F10      3.1794  12.0610   7.8364   F         2 RES2   0.0000
    36 F11      9.2677  15.6927  12.7649   F         2 RES2   0.0000
    37 F12      7.4053  14.9160   4.7905   F         2 RES2   0.0000
    38 F13      3.3202   9.5157   7.0358   F         2 RES2   0.0000
    39 F14      2.4747  17.0739  11.4637   F         2 RES2   0.0000
    40 F15      1.4175  12.5683  12.3076   F         2 RES2   0.0000
    41 F16      5.5799   8.0616   7.4623   F         2 RES2   0.0000
    42 F17      6.9227  16.2302   8.7728   F         2 RES2   0.0000
    43 F18      7.7096   9.2345   8.6900   F         2 RES2   0.0000
    44 F19      2.7582  15.5813   5.0764   F         2 RES2   0.0000
    45 F20      8.7046  17.0894  10.5014   F         2 RES2   0.0000
    46 C11      1.9074  14.8266  11.9017   C.ar      2 RES2   0.0000
    47 C12      5.1211  14.3689   7.6038   C.ar      2 RES2   0.0000
    48 C13      3.9674  14.7918   6.9621   C.ar      2 RES2   0.0000
    49 C14      3.9073  14.0108  10.0425   C.ar      2 RES2   0.0000
    50 C15      2.6608  15.7651  11.2315   C.ar      2 RES2   0.0000
    51 C16      3.6166  15.3413  10.3321   C.ar      2 RES2   0.0000
    52 C17      3.1182  13.1207  10.7554   C.ar      2 RES2   0.0000
    53 C18      8.3689  15.2259  11.8832   C.ar      2 RES2   0.0000
    54 C19      2.1369  13.4969  11.6609   C.ar      2 RES2   0.0000
    55 C20      4.3807  10.0922   7.6364   C.ar      2 RES2   0.0000
    56 C21      6.2562  14.4146   6.7972   C.ar      2 RES2   0.0000
    57 C22      7.7099  14.0420  12.1215   C.ar      2 RES2   0.0000
    58 C23      6.7612  13.6079  11.2213   C.ar      2 RES2   0.0000
    59 C24      5.5198   9.3523   7.8514   C.ar      2 RES2   0.0000
    60 C25      8.0781  15.9229  10.7410   C.ar      2 RES2   0.0000
    61 C26      5.3804  12.0666   8.7035   C.ar      2 RES2   0.0000
    62 C27      3.9279  15.2166   5.6472   C.ar      2 RES2   0.0000
    63 C28      7.1383  15.4416   9.8494   C.ar      2 RES2   0.0000
    64 C29      6.4439  14.2545  10.0308   C.ar      2 RES2   0.0000
    65 C30      5.0827  15.2551   4.9111   C.ar      2 RES2   0.0000
    66 C31      4.3355  11.4013   8.0609   C.ar      2 RES2   0.0000
    67 C32      6.5167  11.2808   8.8377   C.ar      2 RES2   0.0000
    68 C33      6.5951   9.9506   8.4609   C.ar      2 RES2   0.0000
    69 C34      6.2661  14.8705   5.4975   C.ar      2 RES2   0.0000
    70 B1       5.2132  13.6680   9.0900   B         2 RES2  -1.0000
@<TRIPOS>BOND
     1     1     2    1
     2     2    14    3
     3     3     1    1
     4     4     1    1
     5     5     1    1
     6     6     1    1
     7     7     8    1
     8     9     7    1
     9    10     7    1
    10    11     5    3
    11    12     4    3
    12    13     6    3
    13    14    19    1
    14    15    13    1
    15    16    18    1
    16    17    12    1
    17    18     3    3
    18    20     1    1
    19    21    22    1
    20    23    21    1
    21    24    21    1
    22    25    20    3
    23     7    11    1
    24    21    25    1
    25    26    51    1
    26    27    46    1
    27    28    58    1
    28    29    48    1
    29    30    56    1
    30    31    65    1
    31    32    52    1
    32    33    57    1
    33    34    67    1
    34    35    66    1
    35    36    53    1
    36    37    69    1
    37    38    55    1
    38    39    50    1
    39    40    54    1
    40    41    59    1
    41    42    63    1
    42    43    68    1
    43    44    62    1
    44    45    60    1
    45    46    50   ar
    46    47    48   ar
    47    48    62   ar
    48    49    51   ar
    49    50    51   ar
    50    52    49   ar
    51    53    57   ar
    52    54    46   ar
    53    55    59   ar
    54    56    47   ar
    55    57    58   ar
    56    58    64   ar
    57    59    68   ar
    58    60    53   ar
    59    61    66   ar
    60    62    65   ar
    61    63    60   ar
    62    64    63   ar
    63    65    69   ar
    64    66    55   ar
    65    67    61   ar
    66    68    67   ar
    67    69    56   ar
    68    70    47    1
    69    49    70    1
    70    52    54   ar
    71    61    70    1
    72    64    70    1
@<TRIPOS>SUBSTRUCTURE
     1 RES1        1 GROUP             0 ****  ****    0  
     2 RES2       26 GROUP             0 ****  ****    0  
@<TRIPOS>CRYSIN
   17.9405   24.5421   14.0694   90.0000   90.0000   90.0000    62     1
