@<TRIPOS>MOLECULE
DEQPAT01
   108   122     2     0     0
SMALL
USER_CHARGES
****
Generated from the CSD

@<TRIPOS>ATOM
     1 P1      16.2435  16.2435   1.9119   P.3       1 RES1   1.0000
     2 C19     14.8656  16.5987   0.8244   C.ar      1 RES1   0.0000
     3 C20     15.0025  17.5906  -0.1262   C.ar      1 RES1   0.0000
     4 H11     15.7782  18.1041  -0.1518   H         1 RES1   0.0000
     5 C21     13.9976  17.8202  -1.0355   C.ar      1 RES1   0.0000
     6 H12     14.0889  18.4992  -1.6647   H         1 RES1   0.0000
     7 C22     12.8649  17.0578  -1.0187   C.ar      1 RES1   0.0000
     8 H13     12.1836  17.2260  -1.6279   H         1 RES1   0.0000
     9 C23     12.7349  16.0616  -0.1231   C.ar      1 RES1   0.0000
    10 H14     11.9667  15.5367  -0.1285   H         1 RES1   0.0000
    11 C24     13.7310  15.8082   0.8084   C.ar      1 RES1   0.0000
    12 H15     13.6369  15.1107   1.4171   H         1 RES1   0.0000
    13 C19A    17.6214  15.8883   0.8244   C.ar      1 RES1   0.0000
    14 C20A    17.4845  14.8964  -0.1262   C.ar      1 RES1   0.0000
    15 H11A    16.7088  14.3829  -0.1518   H         1 RES1   0.0000
    16 C21A    18.4894  14.6668  -1.0355   C.ar      1 RES1   0.0000
    17 H12A    18.3981  13.9878  -1.6647   H         1 RES1   0.0000
    18 C22A    19.6221  15.4292  -1.0187   C.ar      1 RES1   0.0000
    19 H13A    20.3034  15.2610  -1.6279   H         1 RES1   0.0000
    20 C23A    19.7521  16.4254  -0.1231   C.ar      1 RES1   0.0000
    21 H14A    20.5203  16.9503  -0.1285   H         1 RES1   0.0000
    22 C24A    18.7560  16.6788   0.8084   C.ar      1 RES1   0.0000
    23 H15A    18.8501  17.3763   1.4171   H         1 RES1   0.0000
    24 C19F    16.5987  17.6214   2.9994   C.ar      1 RES1   0.0000
    25 C20F    17.5906  17.4845   3.9500   C.ar      1 RES1   0.0000
    26 H11F    18.1041  16.7088   3.9756   H         1 RES1   0.0000
    27 C21F    17.8202  18.4894   4.8593   C.ar      1 RES1   0.0000
    28 H12F    18.4992  18.3981   5.4885   H         1 RES1   0.0000
    29 C22F    17.0578  19.6221   4.8425   C.ar      1 RES1   0.0000
    30 H13F    17.2260  20.3034   5.4517   H         1 RES1   0.0000
    31 C23F    16.0616  19.7521   3.9469   C.ar      1 RES1   0.0000
    32 H14F    15.5367  20.5203   3.9523   H         1 RES1   0.0000
    33 C24F    15.8082  18.7560   3.0154   C.ar      1 RES1   0.0000
    34 H15F    15.1107  18.8501   2.4067   H         1 RES1   0.0000
    35 C19G    15.8883  14.8656   2.9994   C.ar      1 RES1   0.0000
    36 C20G    14.8964  15.0025   3.9500   C.ar      1 RES1   0.0000
    37 H11G    14.3829  15.7782   3.9756   H         1 RES1   0.0000
    38 C21G    14.6668  13.9976   4.8593   C.ar      1 RES1   0.0000
    39 H12G    13.9878  14.0889   5.4885   H         1 RES1   0.0000
    40 C22G    15.4292  12.8649   4.8425   C.ar      1 RES1   0.0000
    41 H13G    15.2610  12.1836   5.4517   H         1 RES1   0.0000
    42 C23G    16.4254  12.7349   3.9469   C.ar      1 RES1   0.0000
    43 H14G    16.9503  11.9667   3.9523   H         1 RES1   0.0000
    44 C24G    16.6788  13.7310   3.0154   C.ar      1 RES1   0.0000
    45 H15G    17.3763  13.6369   2.4067   H         1 RES1   0.0000
    46 Fe1     10.8290  10.8290   0.0000   Fe        2 RES2   0.0000
    47 Br1     12.9413  12.0912   0.7990   Br        2 RES2  -1.0000
    48 N1      11.0817   9.2668   1.3276   N.2       2 RES2   0.0000
    49 N2       9.6185  11.8004   1.3743   N.2       2 RES2   0.0000
    50 C1      12.4832   7.8378  -0.0818   C.2       2 RES2   0.0000
    51 H1      12.9190   7.0168  -0.1089   H         2 RES2   0.0000
    52 C2      11.7644   8.0994   1.0607   C.2       2 RES2   0.0000
    53 C3      11.5645   7.1783   2.1681   C.ar      2 RES2   0.0000
    54 C4      11.9873   5.8654   2.3708   C.ar      2 RES2   0.0000
    55 H2      12.5371   5.4354   1.7564   H         2 RES2   0.0000
    56 C5      11.5610   5.2285   3.5148   C.ar      2 RES2   0.0000
    57 H3      11.8108   4.3458   3.6667   H         2 RES2   0.0000
    58 C6      10.7640   5.8808   4.4471   C.ar      2 RES2   0.0000
    59 H4      10.5068   5.4317   5.2199   H         2 RES2   0.0000
    60 C7      10.3447   7.1731   4.2521   C.ar      2 RES2   0.0000
    61 H5       9.8104   7.6043   4.8792   H         2 RES2   0.0000
    62 C8      10.7454   7.8166   3.0873   C.ar      2 RES2   0.0000
    63 C9      10.4441   9.1282   2.5283   C.2       2 RES2   0.0000
    64 C10      9.5980  10.0649   3.0988   C.2       2 RES2   0.0000
    65 H6       9.2488   9.8496   3.9337   H         2 RES2   0.0000
    66 C11      9.2129  11.2821   2.5711   C.2       2 RES2   0.0000
    67 C12      8.2922  12.2246   3.2082   C.ar      2 RES2   0.0000
    68 C13      7.6093  12.1826   4.4173   C.ar      2 RES2   0.0000
    69 H7       7.6705  11.4495   4.9859   H         2 RES2   0.0000
    70 C14      6.8268  13.2937   4.7377   C.ar      2 RES2   0.0000
    71 H8       6.3699  13.3075   5.5473   H         2 RES2   0.0000
    72 C15      6.7118  14.3809   3.8766   C.ar      2 RES2   0.0000
    73 H9       6.1812  15.1037   4.1189   H         2 RES2   0.0000
    74 C16      7.3750  14.3976   2.6736   C.ar      2 RES2   0.0000
    75 H10      7.2851  15.1164   2.0905   H         2 RES2   0.0000
    76 C17      8.1872  13.3080   2.3478   C.ar      2 RES2   0.0000
    77 C18      9.0186  13.0165   1.1946   C.2       2 RES2   0.0000
    78 N1D     10.5763  12.3912  -1.3276   N.2       2 RES2   0.0000
    79 N2D     12.0395   9.8576  -1.3743   N.2       2 RES2   0.0000
    80 C1D      9.1748  13.8202   0.0818   C.2       2 RES2   0.0000
    81 H1D      8.7390  14.6412   0.1089   H         2 RES2   0.0000
    82 C2D      9.8936  13.5586  -1.0607   C.2       2 RES2   0.0000
    83 C3D     10.0935  14.4797  -2.1681   C.2       2 RES2   0.0000
    84 C4D      9.6707  15.7926  -2.3708   C.2       2 RES2   0.0000
    85 H2D      9.1209  16.2226  -1.7564   H         2 RES2   0.0000
    86 C5D     10.0970  16.4295  -3.5148   C.2       2 RES2   0.0000
    87 H3D      9.8472  17.3122  -3.6667   H         2 RES2   0.0000
    88 C6D     10.8940  15.7772  -4.4471   C.2       2 RES2   0.0000
    89 H4D     11.1512  16.2263  -5.2199   H         2 RES2   0.0000
    90 C7D     11.3133  14.4849  -4.2521   C.2       2 RES2   0.0000
    91 H5D     11.8476  14.0537  -4.8792   H         2 RES2   0.0000
    92 C8D     10.9126  13.8414  -3.0873   C.2       2 RES2   0.0000
    93 C9D     11.2139  12.5298  -2.5283   C.2       2 RES2   0.0000
    94 C10D    12.0600  11.5931  -3.0988   C.2       2 RES2   0.0000
    95 H6D     12.4092  11.8084  -3.9337   H         2 RES2   0.0000
    96 C11D    12.4451  10.3759  -2.5711   C.2       2 RES2   0.0000
    97 C12D    13.3658   9.4334  -3.2082   C.ar      2 RES2   0.0000
    98 C13D    14.0487   9.4754  -4.4173   C.ar      2 RES2   0.0000
    99 H7D     13.9875  10.2085  -4.9859   H         2 RES2   0.0000
   100 C14D    14.8312   8.3643  -4.7377   C.ar      2 RES2   0.0000
   101 H8D     15.2881   8.3505  -5.5473   H         2 RES2   0.0000
   102 C15D    14.9462   7.2771  -3.8766   C.ar      2 RES2   0.0000
   103 H9D     15.4768   6.5543  -4.1189   H         2 RES2   0.0000
   104 C16D    14.2830   7.2604  -2.6736   C.ar      2 RES2   0.0000
   105 H10D    14.3729   6.5416  -2.0905   H         2 RES2   0.0000
   106 C17D    13.4708   8.3500  -2.3478   C.ar      2 RES2   0.0000
   107 C18D    12.6394   8.6415  -1.1946   C.2       2 RES2   0.0000
   108 Br1D     8.7167   9.5668  -0.7990   Br        2 RES2   0.0000
@<TRIPOS>BOND
     1     1     2    1
     2     2     3   ar
     3     3     4    1
     4     5     3   ar
     5     6     5    1
     6     7     5   ar
     7     8     7    1
     8     9     7   ar
     9    10     9    1
    10    11     2   ar
    11    12    11    1
    12    13     1    1
    13    14    13   ar
    14    15    14    1
    15    16    14   ar
    16    17    16    1
    17    18    16   ar
    18    19    18    1
    19    20    18   ar
    20    21    20    1
    21    22    13   ar
    22    23    22    1
    23    24     1    1
    24    25    24   ar
    25    26    25    1
    26    27    25   ar
    27    28    27    1
    28    29    27   ar
    29    30    29    1
    30    31    29   ar
    31    32    31    1
    32    33    24   ar
    33    34    33    1
    34    35     1    1
    35    36    35   ar
    36    37    36    1
    37    38    36   ar
    38    39    38    1
    39    40    38   ar
    40    41    40    1
    41    42    40   ar
    42    43    42    1
    43    44    35   ar
    44    45    44    1
    45     9    11   ar
    46    20    22   ar
    47    31    33   ar
    48    42    44   ar
    49    46    47    1
    50    48    46    1
    51    49    46    1
    52    50    51    1
    53    52    48    1
    54    53    52    1
    55    54    53   ar
    56    55    54    1
    57    56    54   ar
    58    57    56    1
    59    58    56   ar
    60    59    58    1
    61    60    58   ar
    62    61    60    1
    63    62    53   ar
    64    63    48    1
    65    64    63    2
    66    65    64    1
    67    66    49    2
    68    67    66    1
    69    68    67   ar
    70    69    68    1
    71    70    68   ar
    72    71    70    1
    73    72    70   ar
    74    73    72    1
    75    74    72   ar
    76    75    74    1
    77    76    67   ar
    78    77    49    1
    79    78    46    1
    80    79    46    1
    81    80    77    2
    82    81    80    1
    83    82    78    1
    84    83    82    2
    85    84    83    1
    86    85    84    1
    87    86    84    2
    88    87    86    1
    89    88    86    1
    90    89    88    1
    91    90    88    2
    92    91    90    1
    93    92    83    1
    94    93    78    1
    95    94    93    1
    96    95    94    1
    97    96    79    1
    98    97    96    1
    99    98    97   ar
   100    99    98    1
   101   100    98   ar
   102   101   100    1
   103   102   100   ar
   104   103   102    1
   105   104   102   ar
   106   105   104    1
   107   106    97   ar
   108   107    50    1
   109   108    46    1
   110    50    52    2
   111    60    62   ar
   112    62    63    1
   113    64    66    1
   114    74    76   ar
   115    76    77    1
   116    79   107    2
   117    80    82    1
   118    90    92    1
   119    92    93    2
   120    94    96    2
   121   104   106   ar
   122   106   107    1
@<TRIPOS>SUBSTRUCTURE
     1 RES1        1 GROUP             0 ****  ****    0  
     2 RES2       46 GROUP             0 ****  ****    0  
