@<TRIPOS>MOLECULE
DERSUS
   152   155     6     0     0
SMALL
USER_CHARGES
****
Generated from the CSD

@<TRIPOS>ATOM
     1 Fe1      9.6555  15.5780   6.6350   Fe        1 RES1   0.0000
     2 N1       8.6244  15.9015   8.2527   N.2       1 RES1   0.0000
     3 N2       7.4243  15.3076   8.5309   N.2       1 RES1   0.0000
     4 N3       7.8055  16.8154  10.0768   N.2       1 RES1   0.0000
     5 N4       6.9603  15.8472   9.6142   N.2       1 RES1   0.0000
     6 C1       8.8155  16.8167   9.2086   C.2       1 RES1   0.0000
     7 N5       9.9086  17.6318   9.2908   N.pl3     1 RES1   0.0000
     8 H1       9.9219  18.0878   9.9772   H         1 RES1   0.0000
     9 C2      10.7788  17.8096   8.2386   C.2       1 RES1   0.0000
    10 N6      11.7786  18.6773   8.2543   N.2       1 RES1   0.0000
    11 N7      12.3460  18.5560   7.0149   N.2       1 RES1   0.0000
    12 N8      11.7155  17.6682   6.3073   N.2       1 RES1   0.0000
    13 N9      10.5921  15.3631   4.9055   N.2       1 RES1   0.0000
    14 N10     10.7010  17.1631   7.0659   N.2       1 RES1   0.0000
    15 N11     11.6801  14.5683   4.6991   N.2       1 RES1   0.0000
    16 N12     12.0673  14.7205   3.4556   N.2       1 RES1   0.0000
    17 N13     11.2516  15.6010   2.8047   N.2       1 RES1   0.0000
    18 C3      10.3655  15.9603   3.7335   C.2       1 RES1   0.0000
    19 N14      9.3271  16.8216   3.4608   N.pl3     1 RES1   0.0000
    20 H2       9.2957  17.1412   2.6421   H         1 RES1   0.0000
    21 C4       8.3723  17.0954   4.3702   C.cat     1 RES1   0.0000
    22 N15      7.2818  17.8418   4.1587   N.pl3     1 RES1   0.0000
    23 H3       6.9019  18.2789   3.4181   H         1 RES1   0.0000
    24 N16      6.5786  17.8938   5.3184   N.2       1 RES1   0.0000
    25 N17      7.2078  17.2020   6.1942   N.2       1 RES1   0.0000
    26 N18      8.3488  16.6733   5.6323   N.2       1 RES1   0.0000
    27 N19      8.6524  13.9361   6.3773   N.2       1 RES1  -1.0000
    28 N20      7.5667  13.8074   5.5581   N.2       1 RES1   0.0000
    29 N21      6.9763  12.6805   5.8433   N.2       1 RES1   0.0000
    30 N22      7.6494  12.0184   6.8374   N.2       1 RES1   0.0000
    31 C5       8.6587  12.8312   7.1372   C.2       1 RES1   0.0000
    32 N23      9.6125  12.5486   8.0814   N.pl3     1 RES1   0.0000
    33 H4       9.4947  11.8578   8.6138   H         1 RES1   0.0000
    34 C6      10.7435  13.3127   8.2196   C.2       1 RES1   0.0000
    35 N24     11.7982  12.9571   8.9477   N.2       1 RES1   0.0000
    36 N25     12.6600  14.0068   8.8291   N.2       1 RES1   0.0000
    37 N26     12.1627  14.9361   8.0642   N.2       1 RES1   0.0000
    38 N27     10.9235  14.5204   7.6548   N.2       1 RES1  -1.0000
    39 O1      12.3797  20.5923  10.3366   O.3       2 RES2   0.0000
    40 H5      11.9430  20.3585  10.9565   H         2 RES2   0.0000
    41 H6      12.2378  19.9900   9.7555   H         2 RES2   0.0000
    42 O2       6.1944  18.9993   2.0267   O.3       3 RES3   0.0000
    43 H7       5.5752  19.5985   1.9031   H         3 RES3   0.0000
    44 H8       6.7471  19.0642   1.4781   H         3 RES3   0.0000
    45 O3       4.0761  20.8055   1.5223   O.3       4 RES4   0.0000
    46 H9       3.8958  21.5791   1.7922   H         4 RES4   0.0000
    47 H10      3.5481  20.6579   0.9608   H         4 RES4   0.0000
    48 N28      9.9429  10.9270   3.0650   N.4       5 RES5   1.0000
    49 C7       8.7858   9.9414   2.9124   C.3       5 RES5   0.0000
    50 H11      8.4726   9.9643   1.9734   H         5 RES5   0.0000
    51 H12      9.1221   9.0278   3.0928   H         5 RES5   0.0000
    52 C8       7.5987  10.2101   3.8253   C.3       5 RES5   0.0000
    53 H13      7.3931  11.1786   3.8184   H         5 RES5   0.0000
    54 H14      7.8346   9.9545   4.7523   H         5 RES5   0.0000
    55 C9       6.3696   9.4301   3.3849   C.3       5 RES5   0.0000
    56 H15      6.5742   8.4613   3.3984   H         5 RES5   0.0000
    57 H16      6.1395   9.6802   2.4546   H         5 RES5   0.0000
    58 C10      5.1745   9.7088   4.2939   C.3       5 RES5   0.0000
    59 H17      4.9881  10.6710   4.3051   H         5 RES5   0.0000
    60 H18      5.3778   9.4056   5.2041   H         5 RES5   0.0000
    61 H19      4.3885   9.2280   3.9588   H         5 RES5   0.0000
    62 C11      9.5260  12.3542   2.7267   C.3       5 RES5   0.0000
    63 H20      8.9627  12.6964   3.4654   H         5 RES5   0.0000
    64 H21     10.3406  12.9158   2.6914   H         5 RES5   0.0000
    65 C12      8.7646  12.5364   1.4223   C.3       5 RES5   0.0000
    66 H22      7.8561  12.1512   1.5067   H         5 RES5   0.0000
    67 H23      9.2345  12.0650   0.6898   H         5 RES5   0.0000
    68 C13      8.6682  14.0324   1.1019   C.3       5 RES5   0.0000
    69 H24      8.2784  14.5051   1.8797   H         5 RES5   0.0000
    70 H25      9.5790  14.3908   0.9550   H         5 RES5   0.0000
    71 C14      7.8169  14.3173  -0.1293   C.3       5 RES5   0.0000
    72 H26      7.8623  15.2724  -0.3451   H         5 RES5   0.0000
    73 H27      6.8864  14.0671   0.0504   H         5 RES5   0.0000
    74 H28      8.1540  13.7953  -0.8879   H         5 RES5   0.0000
    75 C15     11.0313  10.4296   2.1185   C.3       5 RES5   0.0000
    76 H29     11.2407   9.4905   2.3517   H         5 RES5   0.0000
    77 H30     10.6670  10.4320   1.1979   H         5 RES5   0.0000
    78 C16     12.3305  11.2262   2.1218   C.3       5 RES5   0.0000
    79 H31     12.5659  11.4783   3.0499   H         5 RES5   0.0000
    80 H32     12.2151  12.0570   1.5958   H         5 RES5   0.0000
    81 C17     13.4577  10.3822   1.5151   C.3       5 RES5   0.0000
    82 H33     13.1320   9.9751   0.6726   H         5 RES5   0.0000
    83 H34     14.2145  10.9782   1.2865   H         5 RES5   0.0000
    84 C18     13.9632   9.2765   2.4278   C.3       5 RES5   0.0000
    85 H35     14.6635   8.7675   1.9688   H         5 RES5   0.0000
    86 H36     13.2223   8.6782   2.6585   H         5 RES5   0.0000
    87 H37     14.3306   9.6718   3.2464   H         5 RES5   0.0000
    88 C19     10.4391  10.9664   4.5060   C.3       5 RES5   0.0000
    89 H38     11.0421  11.7455   4.6090   H         5 RES5   0.0000
    90 H39      9.6623  11.1108   5.1017   H         5 RES5   0.0000
    91 C20     11.1764   9.7256   4.9696   C.3       5 RES5   0.0000
    92 H40     10.6395   8.9215   4.7550   H         5 RES5   0.0000
    93 H41     12.0406   9.6550   4.4928   H         5 RES5   0.0000
    94 C21     11.4231   9.7878   6.4593   C.3       5 RES5   0.0000
    95 H42     10.5555   9.7355   6.9342   H         5 RES5   0.0000
    96 H43     11.8404  10.6561   6.6835   H         5 RES5   0.0000
    97 C22     12.3218   8.6639   6.9434   C.3       5 RES5   0.0000
    98 H44     11.8898   7.8007   6.7701   H         5 RES5   0.0000
    99 H45     12.4796   8.7620   7.9055   H         5 RES5   0.0000
   100 H46     13.1777   8.7011   6.4669   H         5 RES5   0.0000
   101 N29      3.3624  15.1494   5.6061   N.4       6 RES6   1.0000
   102 C23      4.4488  14.6685   4.6564   C.3       6 RES6   0.0000
   103 H47      4.8951  15.4618   4.2669   H         6 RES6   0.0000
   104 H48      5.1270  14.1758   5.1832   H         6 RES6   0.0000
   105 C24      3.9867  13.7770   3.5234   C.3       6 RES6   0.0000
   106 H49      3.3277  14.2643   2.9674   H         6 RES6   0.0000
   107 H50      3.5416  12.9744   3.8940   H         6 RES6   0.0000
   108 C25      5.1682  13.3470   2.6517   C.3       6 RES6   0.0000
   109 H51      5.6161  14.1513   2.2874   H         6 RES6   0.0000
   110 H52      5.8242  12.8573   3.2081   H         6 RES6   0.0000
   111 C26      4.7206  12.4599   1.5058   C.3       6 RES6   0.0000
   112 H53      4.0614  12.9384   0.9612   H         6 RES6   0.0000
   113 H54      4.3159  11.6425   1.8653   H         6 RES6   0.0000
   114 H55      5.4944  12.2257   0.9531   H         6 RES6   0.0000
   115 C27      4.0498  15.8884   6.7254   C.3       6 RES6   0.0000
   116 H56      4.5752  16.6290   6.3297   H         6 RES6   0.0000
   117 H57      4.6903  15.2695   7.1570   H         6 RES6   0.0000
   118 C28      3.1457  16.4681   7.8026   C.3       6 RES6   0.0000
   119 H58      2.2861  16.7408   7.3953   H         6 RES6   0.0000
   120 H59      2.9559  15.7703   8.4784   H         6 RES6   0.0000
   121 C29      3.7687  17.6479   8.4733   C.3       6 RES6   0.0000
   122 H60      4.6334  17.3658   8.8646   H         6 RES6   0.0000
   123 H61      3.9610  18.3343   7.7875   H         6 RES6   0.0000
   124 C30      2.9433  18.2674   9.5467   C.3       6 RES6   0.0000
   125 H62      2.1399  18.6663   9.1518   H         6 RES6   0.0000
   126 H63      3.4651  18.9644   9.9980   H         6 RES6   0.0000
   127 H64      2.6829  17.5822  10.1963   H         6 RES6   0.0000
   128 C31      2.5497  13.9949   6.1378   C.3       6 RES6   0.0000
   129 H65      2.1197  13.5344   5.3738   H         6 RES6   0.0000
   130 H66      1.8297  14.3549   6.7130   H         6 RES6   0.0000
   131 C32      3.3405  12.9751   6.9342   C.3       6 RES6   0.0000
   132 H67      3.5906  13.3574   7.8113   H         6 RES6   0.0000
   133 H68      4.1717  12.7437   6.4484   H         6 RES6   0.0000
   134 C33      2.4962  11.7085   7.1430   C.3       6 RES6   0.0000
   135 H69      1.6165  11.9575   7.5233   H         6 RES6   0.0000
   136 H70      2.3400  11.2672   6.2710   H         6 RES6   0.0000
   137 C34      3.1954  10.7504   8.0760   C.3       6 RES6   0.0000
   138 H71      2.6038   9.9927   8.2705   H         6 RES6   0.0000
   139 H72      3.4208  11.2110   8.9106   H         6 RES6   0.0000
   140 H73      4.0162  10.4215   7.6523   H         6 RES6   0.0000
   141 C35      2.3919  16.0761   4.8704   C.3       6 RES6   0.0000
   142 H74      2.0531  15.5940   4.0749   H         6 RES6   0.0000
   143 H75      1.6172  16.2411   5.4649   H         6 RES6   0.0000
   144 C36      2.9179  17.4038   4.4177   C.3       6 RES6   0.0000
   145 H76      3.7410  17.2541   3.8878   H         6 RES6   0.0000
   146 H77      3.1696  17.9337   5.2156   H         6 RES6   0.0000
   147 C37      1.9454  18.2236   3.5807   C.3       6 RES6   0.0000
   148 H78      1.0573  18.1943   4.0160   H         6 RES6   0.0000
   149 H79      2.2476  19.1661   3.5831   H         6 RES6   0.0000
   150 C38      1.8007  17.8114   2.2560   C.2       6 RES6   0.0000
   151 H80      2.2925  17.0644   1.9333   H         6 RES6   0.0000
   152 H81      1.2094  18.2762   1.6751   H         6 RES6   0.0000
@<TRIPOS>BOND
     1     1     2    1
     2     2     3    1
     3     3     5    2
     4     4     5    1
     5     6     2    1
     6     7     6    1
     7     8     7    1
     8     9     7    1
     9    10     9    2
    10    11    10    1
    11    12    11    2
    12    13     1    1
    13    14     1    1
    14    15    13    1
    15    16    15    2
    16    17    16    1
    17    18    13    1
    18    19    18    1
    19    20    19    1
    20    21    19    1
    21    22    21    1
    22    23    22    1
    23    24    22    1
    24    25    24    2
    25    26     1    1
    26    27     1    1
    27    28    27    1
    28    29    28    2
    29    30    29    1
    30    31    27    1
    31    32    31    1
    32    33    32    1
    33    34    32    1
    34    35    34    2
    35    36    35    1
    36    37    36    2
    37    38     1    1
    38     4     6    2
    39     9    14    1
    40    12    14    1
    41    17    18    2
    42    21    26    2
    43    25    26    1
    44    30    31    2
    45    34    38    1
    46    37    38    1
    47    39    40    1
    48    41    39    1
    49    42    43    1
    50    44    42    1
    51    45    46    1
    52    47    45    1
    53    48    49    1
    54    49    50    1
    55    51    49    1
    56    52    49    1
    57    53    52    1
    58    54    52    1
    59    55    52    1
    60    56    55    1
    61    57    55    1
    62    58    55    1
    63    59    58    1
    64    60    58    1
    65    61    58    1
    66    62    48    1
    67    63    62    1
    68    64    62    1
    69    65    62    1
    70    66    65    1
    71    67    65    1
    72    68    65    1
    73    69    68    1
    74    70    68    1
    75    71    68    1
    76    72    71    1
    77    73    71    1
    78    74    71    1
    79    75    48    1
    80    76    75    1
    81    77    75    1
    82    78    75    1
    83    79    78    1
    84    80    78    1
    85    81    78    1
    86    82    81    1
    87    83    81    1
    88    84    81    1
    89    85    84    1
    90    86    84    1
    91    87    84    1
    92    88    48    1
    93    89    88    1
    94    90    88    1
    95    91    88    1
    96    92    91    1
    97    93    91    1
    98    94    91    1
    99    95    94    1
   100    96    94    1
   101    97    94    1
   102    98    97    1
   103    99    97    1
   104   100    97    1
   105   101   102    1
   106   102   103    1
   107   104   102    1
   108   105   102    1
   109   106   105    1
   110   107   105    1
   111   108   105    1
   112   109   108    1
   113   110   108    1
   114   111   108    1
   115   112   111    1
   116   113   111    1
   117   114   111    1
   118   115   101    1
   119   116   115    1
   120   117   115    1
   121   118   115    1
   122   119   118    1
   123   120   118    1
   124   121   118    1
   125   122   121    1
   126   123   121    1
   127   124   121    1
   128   125   124    1
   129   126   124    1
   130   127   124    1
   131   128   101    1
   132   129   128    1
   133   130   128    1
   134   131   128    1
   135   132   131    1
   136   133   131    1
   137   134   131    1
   138   135   134    1
   139   136   134    1
   140   137   134    1
   141   138   137    1
   142   139   137    1
   143   140   137    1
   144   141   101    1
   145   142   141    1
   146   143   141    1
   147   144   141    1
   148   145   144    1
   149   146   144    1
   150   147   144    1
   151   148   147    1
   152   149   147    1
   153   150   147    1
   154   151   150    1
   155   152   150    1
@<TRIPOS>SUBSTRUCTURE
     1 RES1        1 GROUP             0 ****  ****    0  
     2 RES2       39 GROUP             0 ****  ****    0  
     3 RES3       42 GROUP             0 ****  ****    0  
     4 RES4       45 GROUP             0 ****  ****    0  
     5 RES5       48 GROUP             0 ****  ****    0  
     6 RES6      101 GROUP             0 ****  ****    0  
@<TRIPOS>CRYSIN
   12.3900   23.0300   18.7200   90.0000   99.2540   90.0000    14     1
