@<TRIPOS>MOLECULE
DEXLAU
    92    94     2     0     0
SMALL
USER_CHARGES
****
Generated from the CSD

@<TRIPOS>ATOM
     1 Fe1      0.9550   6.9155   0.0000   Fe        1 RES1   0.0000
     2 P1       0.8601   6.4876   2.1844   P.3       1 RES1   0.0000
     3 P2       2.6435   8.2906   0.2768   P.3       1 RES1   0.0000
     4 O1       0.3516   3.8699   2.1973   O.3       1 RES1   0.0000
     5 O2      -1.0959   2.7214   3.4635   O.2       1 RES1   0.0000
     6 O3       0.3386   7.4520   4.6070   O.3       1 RES1   0.0000
     7 O4      -0.4812   9.4351   5.2600   O.2       1 RES1   0.0000
     8 O5       1.7624  10.3724   1.6576   O.3       1 RES1   0.0000
     9 O6       2.1094  12.5437   1.3155   O.2       1 RES1   0.0000
    10 N1       3.6559   6.5064   2.2105   N.3       1 RES1   0.0000
    11 N2      -0.5735   5.6175  -0.3098   N.2       1 RES1   0.0000
    12 N3      -0.8511   4.4669  -0.4314   N.1       1 RES1   1.0000
    13 N4      -1.2430   3.3785  -0.5476   N.3       1 RES1  -1.0000
    14 C1       2.4914   6.1887   3.0151   C.3       1 RES1   0.0000
    15 H1       2.5250   6.7288   3.8440   H         1 RES1   0.0000
    16 H2       2.5410   5.2350   3.2767   H         1 RES1   0.0000
    17 C2       3.7055   7.8967   1.7669   C.3       1 RES1   0.0000
    18 H3       4.6450   8.1243   1.5530   H         1 RES1   0.0000
    19 H4       3.4218   8.4770   2.5169   H         1 RES1   0.0000
    20 C3       3.8976   8.2791  -1.1351   C.3       1 RES1   0.0000
    21 H5       3.9274   9.1866  -1.5296   H         1 RES1   0.0000
    22 H6       4.7914   8.0939  -0.7531   H         1 RES1   0.0000
    23 C4      -0.1571   5.0805   2.7904   C.3       1 RES1   0.0000
    24 H7      -0.1045   5.0234   3.7771   H         1 RES1   0.0000
    25 H8      -1.1050   5.2115   2.5354   H         1 RES1   0.0000
    26 C5      -0.2456   2.7329   2.6242   C.2       1 RES1   0.0000
    27 C6       0.2806   1.5344   1.8971   C.3       1 RES1   0.0000
    28 H9      -0.2539   0.7483   2.1337   H         1 RES1   0.0000
    29 H10      1.2148   1.3831   2.1504   H         1 RES1   0.0000
    30 H11      0.2250   1.6888   0.9305   H         1 RES1   0.0000
    31 C7       0.1068   7.8095   3.2243   C.3       1 RES1   0.0000
    32 H12      0.5231   8.6845   3.0223   H         1 RES1   0.0000
    33 H13     -0.8648   7.8740   3.0458   H         1 RES1   0.0000
    34 C8       0.0580   8.4008   5.5313   C.2       1 RES1   0.0000
    35 C9       0.4675   7.9682   6.9007   C.3       1 RES1   0.0000
    36 H14      1.0326   8.6582   7.3065   H         1 RES1   0.0000
    37 H15      0.9700   7.1285   6.8413   H         1 RES1   0.0000
    38 H16     -0.3302   7.8325   7.4538   H         1 RES1   0.0000
    39 C10      2.5082  10.1099   0.4605   C.3       1 RES1   0.0000
    40 H17      3.4096  10.5143   0.5238   H         1 RES1   0.0000
    41 H18      2.0445  10.4991  -0.3230   H         1 RES1   0.0000
    42 C11      1.6236  11.6839   1.9721   C.2       1 RES1   0.0000
    43 C12      0.7740  11.8598   3.1773   C.3       1 RES1   0.0000
    44 H19      0.9525  12.7370   3.5779   H         1 RES1   0.0000
    45 H20      0.9807  11.1561   3.8273   H         1 RES1   0.0000
    46 H21     -0.1701  11.8020   2.9219   H         1 RES1   0.0000
    47 P1A      0.8601   7.3434  -2.1844   P.3       1 RES1   0.0000
    48 P2A      2.6435   5.5404  -0.2768   P.3       1 RES1   0.0000
    49 O1A      0.3516   9.9611  -2.1973   O.3       1 RES1   0.0000
    50 O2A     -1.0959  11.1096  -3.4635   O.2       1 RES1   0.0000
    51 O3A      0.3386   6.3790  -4.6070   O.3       1 RES1   0.0000
    52 O4A     -0.4812   4.3959  -5.2600   O.2       1 RES1   0.0000
    53 O5A      1.7624   3.4586  -1.6576   O.3       1 RES1   0.0000
    54 O6A      2.1094   1.2873  -1.3155   O.2       1 RES1   0.0000
    55 N1A      3.6559   7.3246  -2.2105   N.3       1 RES1   0.0000
    56 N2A     -0.5735   8.2135   0.3098   N.2       1 RES1   0.0000
    57 N3A     -0.8511   9.3641   0.4314   N.1       1 RES1   1.0000
    58 N4A     -1.2430  10.4525   0.5476   N.3       1 RES1  -1.0000
    59 C1A      2.4914   7.6423  -3.0151   C.3       1 RES1   0.0000
    60 H1A      2.5250   7.1022  -3.8440   H         1 RES1   0.0000
    61 H2A      2.5410   8.5960  -3.2767   H         1 RES1   0.0000
    62 C2A      3.7055   5.9343  -1.7669   C.3       1 RES1   0.0000
    63 H3A      4.6450   5.7067  -1.5530   H         1 RES1   0.0000
    64 H4A      3.4218   5.3540  -2.5169   H         1 RES1   0.0000
    65 C3A      3.8976   5.5519   1.1351   C.3       1 RES1   0.0000
    66 H5A      3.9274   4.6444   1.5296   H         1 RES1   0.0000
    67 H6A      4.7914   5.7371   0.7531   H         1 RES1   0.0000
    68 C4A     -0.1571   8.7505  -2.7904   C.3       1 RES1   0.0000
    69 H7A     -0.1045   8.8076  -3.7771   H         1 RES1   0.0000
    70 H8A     -1.1050   8.6195  -2.5354   H         1 RES1   0.0000
    71 C5A     -0.2456  11.0981  -2.6242   C.2       1 RES1   0.0000
    72 C6A      0.2806  12.2966  -1.8971   C.3       1 RES1   0.0000
    73 H9A     -0.2539  13.0827  -2.1337   H         1 RES1   0.0000
    74 H10A     1.2148  12.4479  -2.1504   H         1 RES1   0.0000
    75 H11A     0.2250  12.1422  -0.9305   H         1 RES1   0.0000
    76 C7A      0.1068   6.0215  -3.2243   C.3       1 RES1   0.0000
    77 H12A     0.5231   5.1465  -3.0223   H         1 RES1   0.0000
    78 H13A    -0.8648   5.9570  -3.0458   H         1 RES1   0.0000
    79 C8A      0.0580   5.4302  -5.5313   C.2       1 RES1   0.0000
    80 C9A      0.4675   5.8628  -6.9007   C.3       1 RES1   0.0000
    81 H14A     1.0326   5.1728  -7.3065   H         1 RES1   0.0000
    82 H15A     0.9700   6.7025  -6.8413   H         1 RES1   0.0000
    83 H16A    -0.3302   5.9985  -7.4538   H         1 RES1   0.0000
    84 C10A     2.5082   3.7211  -0.4605   C.3       1 RES1   0.0000
    85 H17A     3.4096   3.3167  -0.5238   H         1 RES1   0.0000
    86 H18A     2.0445   3.3319   0.3230   H         1 RES1   0.0000
    87 C11A     1.6236   2.1471  -1.9721   C.2       1 RES1   0.0000
    88 C12A     0.7740   1.9712  -3.1773   C.3       1 RES1   0.0000
    89 H19A     0.9525   1.0940  -3.5779   H         1 RES1   0.0000
    90 H20A     0.9807   2.6749  -3.8273   H         1 RES1   0.0000
    91 H21A    -0.1701   2.0290  -2.9219   H         1 RES1   0.0000
    92 O7       5.2368  10.5268   3.2399   O.3       2 RES2   0.0000
@<TRIPOS>BOND
     1     1     2    1
     2     2    14    1
     3     3     1    1
     4     4    23    1
     5     5    26    2
     6     6    31    1
     7     7    34    2
     8     8    39    1
     9     9    42    2
    10    10    14    1
    11    11     1    1
    12    12    11    2
    13    13    12    2
    14    14    15    1
    15    16    14    1
    16    17     3    1
    17    18    17    1
    18    19    17    1
    19    20     3    1
    20    21    20    1
    21    22    20    1
    22    23     2    1
    23    24    23    1
    24    25    23    1
    25    26     4    1
    26    27    26    1
    27    28    27    1
    28    29    27    1
    29    30    27    1
    30    31     2    1
    31    32    31    1
    32    33    31    1
    33    34     6    1
    34    35    34    1
    35    36    35    1
    36    37    35    1
    37    38    35    1
    38    39     3    1
    39    40    39    1
    40    41    39    1
    41    42     8    1
    42    43    42    1
    43    44    43    1
    44    45    43    1
    45    46    43    1
    46    47     1    1
    47    48     1    1
    48    49    68    1
    49    50    71    2
    50    51    76    1
    51    52    79    2
    52    53    84    1
    53    54    87    2
    54    55    20    1
    55    56     1    1
    56    57    56    2
    57    58    57    2
    58    59    47    1
    59    60    59    1
    60    61    59    1
    61    62    48    1
    62    63    62    1
    63    64    62    1
    64    65    10    1
    65    66    65    1
    66    67    65    1
    67    68    47    1
    68    69    68    1
    69    70    68    1
    70    71    49    1
    71    72    71    1
    72    73    72    1
    73    74    72    1
    74    75    72    1
    75    76    47    1
    76    77    76    1
    77    78    76    1
    78    79    51    1
    79    80    79    1
    80    81    80    1
    81    82    80    1
    82    83    80    1
    83    84    48    1
    84    85    84    1
    85    86    84    1
    86    87    53    1
    87    88    87    1
    88    89    88    1
    89    90    88    1
    90    91    88    1
    91    10    17    1
    92    48    65    1
    93    55    59    1
    94    55    62    1
@<TRIPOS>SUBSTRUCTURE
     1 RES1        1 GROUP             0 ****  ****    0  
     2 RES2       92 GROUP             0 ****  ****    0  
@<TRIPOS>CRYSIN
    7.6260   13.8310   16.7350   90.0000   90.0000   90.0000    34     2
