@<TRIPOS>MOLECULE
DEXPAX04
    88    94     3     0     0
SMALL
USER_CHARGES
****
Generated from the CSD

@<TRIPOS>ATOM
     1 C1      -0.4780   0.4400   2.8506   C.ar      1 RES1   0.0000
     2 C2      -0.2479   1.8269   2.8119   C.ar      1 RES1   0.0000
     3 C3      -0.6182   2.6312   3.9161   C.ar      1 RES1   0.0000
     4 C4      -1.2045   2.0891   5.0336   C.ar      1 RES1   0.0000
     5 C5      -1.4382   0.7269   5.0880   C.ar      1 RES1   0.0000
     6 C6      -1.0717  -0.1056   4.0274   C.ar      1 RES1   0.0000
     7 C7       0.4250   2.4270   1.7186   C.2       1 RES1   0.0000
     8 C8       1.4854   2.6382  -0.3967   C.3       1 RES1   0.0000
     9 C9       2.8587   2.0011  -0.3072   C.3       1 RES1   0.0000
    10 C10      3.0011   0.6178  -0.8176   C.3       1 RES1   0.0000
    11 C11      2.8043  -0.8835   1.1719   C.3       1 RES1   0.0000
    12 C12      2.7026  -1.7318  -0.0169   C.3       1 RES1   0.0000
    13 C13     -1.7523  -2.0891   5.1376   C.3       1 RES1   0.0000
    14 C14     -1.6677  -3.4989   4.9453   C.3       1 RES1   0.0000
    15 N1       0.5910   1.9290   0.5273   N.2       1 RES1   0.0000
    16 N2       2.1482  -0.3221  -0.0447   N.3       1 RES1   0.0000
    17 O1      -0.1286  -0.3731   1.8819   O.3       1 RES1   0.0000
    18 O2      -1.2093  -1.4502   3.9911   O.3       1 RES1   0.0000
    19 Fe1      0.0000   0.0000   0.0000   Fe        1 RES1   1.0000
    20 H1      -0.4333   3.6221   3.8641   H         1 RES1   0.0000
    21 H2      -1.4246   2.6946   5.7786   H         1 RES1   0.0000
    22 H3      -1.8562   0.3608   5.8717   H         1 RES1   0.0000
    23 H4       0.7735   3.3334   1.8577   H         1 RES1   0.0000
    24 H5       1.1920   2.5819  -1.3013   H         1 RES1   0.0000
    25 H6       1.5501   3.5851  -0.1742   H         1 RES1   0.0000
    26 H7       3.1292   1.9420   0.6386   H         1 RES1   0.0000
    27 H8       3.5216   2.5802  -0.7438   H         1 RES1   0.0000
    28 H9       3.9160   0.3397  -0.8127   H         1 RES1   0.0000
    29 H10      2.7107   0.6230  -1.7488   H         1 RES1   0.0000
    30 H11      3.6668  -0.5702   1.4973   H         1 RES1   0.0000
    31 H12      2.2828  -1.0613   1.9955   H         1 RES1   0.0000
    32 H13      2.0787  -2.5538  -0.0447   H         1 RES1   0.0000
    33 H14      3.4644  -2.0627  -0.5430   H         1 RES1   0.0000
    34 H15     -1.2912  -1.7758   5.9600   H         1 RES1   0.0000
    35 H16     -2.6863  -1.8040   5.2803   H         1 RES1   0.0000
    36 H17     -0.9275  -3.9846   5.5307   H         1 RES1   0.0000
    37 H18     -1.4833  -3.8350   4.0020   H         1 RES1   0.0000
    38 H19     -2.6137  -3.8562   5.2840   H         1 RES1   0.0000
    39 N1D     -0.5910  -1.9290  -0.5273   N.2       1 RES1   0.0000
    40 N2D     -2.1482   0.3221   0.0447   N.3       1 RES1   0.0000
    41 O1D      0.1286   0.3731  -1.8819   O.3       1 RES1   0.0000
    42 C7D     -0.4250  -2.4270  -1.7186   C.2       1 RES1   0.0000
    43 C8D     -1.4854  -2.6382   0.3967   C.3       1 RES1   0.0000
    44 C10D    -3.0011  -0.6178   0.8176   C.3       1 RES1   0.0000
    45 C11D    -2.8043   0.8835  -1.1719   C.3       1 RES1   0.0000
    46 C12D    -2.7026   1.7318   0.0169   C.3       1 RES1   0.0000
    47 C1D      0.4780  -0.4400  -2.8506   C.ar      1 RES1   0.0000
    48 C2D      0.2479  -1.8269  -2.8119   C.ar      1 RES1   0.0000
    49 H4D     -0.7735  -3.3334  -1.8577   H         1 RES1   0.0000
    50 C9D     -2.8587  -2.0011   0.3072   C.3       1 RES1   0.0000
    51 H5D     -1.1920  -2.5819   1.3013   H         1 RES1   0.0000
    52 H6D     -1.5501  -3.5851   0.1742   H         1 RES1   0.0000
    53 H9D     -3.9160  -0.3397   0.8127   H         1 RES1   0.0000
    54 H10D    -2.7107  -0.6230   1.7488   H         1 RES1   0.0000
    55 H11D    -3.6668   0.5702  -1.4973   H         1 RES1   0.0000
    56 H12D    -2.2828   1.0613  -1.9955   H         1 RES1   0.0000
    57 H13D    -2.0787   2.5538   0.0447   H         1 RES1   0.0000
    58 H14D    -3.4644   2.0627   0.5430   H         1 RES1   0.0000
    59 C6D      1.0717   0.1056  -4.0274   C.ar      1 RES1   0.0000
    60 C3D      0.6182  -2.6312  -3.9161   C.ar      1 RES1   0.0000
    61 H7D     -3.1292  -1.9420  -0.6386   H         1 RES1   0.0000
    62 H8D     -3.5216  -2.5802   0.7438   H         1 RES1   0.0000
    63 C5D      1.4382  -0.7269  -5.0880   C.ar      1 RES1   0.0000
    64 O2D      1.2093   1.4502  -3.9911   O.3       1 RES1   0.0000
    65 C4D      1.2045  -2.0891  -5.0336   C.ar      1 RES1   0.0000
    66 H1D      0.4333  -3.6221  -3.8641   H         1 RES1   0.0000
    67 H3D      1.8562  -0.3608  -5.8717   H         1 RES1   0.0000
    68 C13D     1.7523   2.0891  -5.1376   C.3       1 RES1   0.0000
    69 H2D      1.4246  -2.6946  -5.7786   H         1 RES1   0.0000
    70 C14D     1.6677   3.4989  -4.9453   C.3       1 RES1   0.0000
    71 H15D     1.2912   1.7758  -5.9600   H         1 RES1   0.0000
    72 H16D     2.6863   1.8040  -5.2803   H         1 RES1   0.0000
    73 H17D     0.9275   3.9846  -5.5307   H         1 RES1   0.0000
    74 H18D     1.4833   3.8350  -4.0020   H         1 RES1   0.0000
    75 H19D     2.6137   3.8562  -5.2840   H         1 RES1   0.0000
    76 C15      5.2195  -4.0163  -3.1614   C.ar      2 RES2   0.0000
    77 C16      4.5373  -2.9621  -3.2860   C.ar      2 RES2   0.0000
    78 C17      5.1165  -1.7547  -3.1348   C.ar      2 RES2   0.0000
    79 H20      3.5902  -3.0994  -3.4650   H         2 RES2   0.0000
    80 C15A     6.6166  -4.0163  -2.8857   C.ar      2 RES2   0.0000
    81 C17A     6.7196  -1.7547  -2.9123   C.ar      2 RES2   0.0000
    82 C16A     7.2988  -2.9621  -2.7611   C.ar      2 RES2   0.0000
    83 H20A     8.2459  -3.0994  -2.5821   H         2 RES2   0.0000
    84 O3      -1.2231   3.7981  10.1277   O.2       3 RES3   0.0000
    85 O4       0.1980   2.2862   9.4710   O.2       3 RES3   0.0000
    86 Cl1     -0.7942   3.0114   9.0707   Cl        3 RES3   0.0000
    87 O3A     -0.3652   3.7981   8.0136   O.2       3 RES3   0.0000
    88 O4A     -1.7863   2.2862   8.6704   O.3       3 RES3  -1.0000
@<TRIPOS>BOND
     1     1     2   ar
     2     2     3   ar
     3     3     4   ar
     4     4     5   ar
     5     5     6   ar
     6     6     1   ar
     7     7     2    1
     8     8     9    1
     9     9    10    1
    10    10    16    1
    11    11    12    1
    12    12    16    1
    13    13    14    1
    14    14    36    1
    15    15     7    2
    16    16    11    1
    17    17     1    1
    18    18     6    1
    19    19    15    1
    20    20     3    1
    21    21     4    1
    22    22     5    1
    23    23     7    1
    24    24     8    1
    25    25     8    1
    26    26     9    1
    27    27     9    1
    28    28    10    1
    29    29    10    1
    30    30    11    1
    31    31    11    1
    32    32    12    1
    33    33    12    1
    34    34    13    1
    35    35    13    1
    36    37    14    1
    37    38    14    1
    38    39    19    1
    39    40    19    1
    40    41    19    1
    41    42    39    2
    42    43    39    1
    43    44    40    1
    44    45    40    1
    45    46    40    1
    46    47    41    1
    47    48    42    1
    48    49    42    1
    49    50    43    1
    50    51    43    1
    51    52    43    1
    52    53    44    1
    53    54    44    1
    54    55    45    1
    55    56    45    1
    56    57    46    1
    57    58    46    1
    58    59    47   ar
    59    60    48   ar
    60    61    50    1
    61    62    50    1
    62    63    59   ar
    63    64    59    1
    64    65    60   ar
    65    66    60    1
    66    67    63    1
    67    68    64    1
    68    69    65    1
    69    70    68    1
    70    71    68    1
    71    72    68    1
    72    73    70    1
    73    74    70    1
    74    75    70    1
    75     8    15    1
    76    13    18    1
    77    16    19    1
    78    17    19    1
    79    44    50    1
    80    45    46    1
    81    47    48   ar
    82    63    65   ar
    83    76    77   ar
    84    77    78   ar
    85    78    81   ar
    86    79    77    1
    87    80    76   ar
    88    81    82   ar
    89    82    80   ar
    90    83    82    1
    91    84    86    2
    92    85    86    2
    93    86    87    2
    94    88    86    1
@<TRIPOS>SUBSTRUCTURE
     1 RES1        1 GROUP             0 ****  ****    0  
     2 RES2       76 GROUP             0 ****  ****    0  
     3 RES3       84 GROUP             0 ****  ****    0  
