@<TRIPOS>MOLECULE
DEXPAX05
    92    98     3     0     0
SMALL
USER_CHARGES
****
Generated from the CSD

@<TRIPOS>ATOM
     1 Fe1      4.2337   4.4005   0.0000   Fe        1 RES1   1.0000
     2 O1       4.3553   4.7877  -1.8781   O.3       1 RES1   0.0000
     3 O2       5.4279   5.8527  -3.9986   O.3       1 RES1   0.0000
     4 N1       3.6449   2.4748  -0.5368   N.2       1 RES1   0.0000
     5 N2       2.0886   4.7578   0.0386   N.3       1 RES1   0.0000
     6 C1       4.7239   3.9604  -2.8455   C.ar      1 RES1   0.0000
     7 C2       4.5050   2.5769  -2.8081   C.ar      1 RES1   0.0000
     8 C3       4.8533   1.7584  -3.8973   C.ar      1 RES1   0.0000
     9 C4       5.4461   2.3023  -4.9937   C.ar      1 RES1   0.0000
    10 C5       5.6768   3.6806  -5.0613   C.ar      1 RES1   0.0000
    11 C6       5.3075   4.5044  -4.0167   C.ar      1 RES1   0.0000
    12 C7       3.8160   1.9661  -1.7032   C.2       1 RES1   0.0000
    13 C8       2.7395   1.7496   0.3848   C.3       1 RES1   0.0000
    14 C9       1.3615   2.3710   0.2955   C.3       1 RES1   0.0000
    15 C10      1.2462   3.7968   0.8226   C.3       1 RES1   0.0000
    16 C11      1.4389   5.2876  -1.1592   C.3       1 RES1   0.0000
    17 C12      1.5649   6.1431   0.0181   C.3       1 RES1   0.0000
    18 C13      5.9861   6.4740  -5.1638   C.3       1 RES1   0.0000
    19 C14      5.9022   7.9015  -4.9612   C.3       1 RES1   0.0000
    20 H1       4.6757   0.8255  -3.8671   H         1 RES1   0.0000
    21 H2       5.7030   1.7444  -5.7175   H         1 RES1   0.0000
    22 H3       6.0895   4.0520  -5.8308   H         1 RES1   0.0000
    23 H4       3.4531   1.1019  -1.8515   H         1 RES1   0.0000
    24 H5       2.6941   0.8343   0.1375   H         1 RES1   0.0000
    25 H6       3.0641   1.8218   1.2750   H         1 RES1   0.0000
    26 H7       1.1011   2.3745  -0.6188   H         1 RES1   0.0000
    27 H8       0.7623   1.8260   0.7913   H         1 RES1   0.0000
    28 H9       1.5292   3.8126   1.7297   H         1 RES1   0.0000
    29 H10      0.3392   4.0713   0.7696   H         1 RES1   0.0000
    30 H11      0.5857   4.9620  -1.4185   H         1 RES1   0.0000
    31 H12      1.9566   5.4707  -1.9348   H         1 RES1   0.0000
    32 H13      2.1657   6.8789   0.0096   H         1 RES1   0.0000
    33 H14      0.7941   6.3702   0.5271   H         1 RES1   0.0000
    34 H15      6.8936   6.2117  -5.2700   H         1 RES1   0.0000
    35 H16      5.4925   6.2241  -5.9358   H         1 RES1   0.0000
    36 H17      6.2639   8.3504  -5.7150   H         1 RES1   0.0000
    37 H18      6.3932   8.1409  -4.1844   H         1 RES1   0.0000
    38 H19      4.9914   8.1515  -4.8490   H         1 RES1   0.0000
    39 O1E      4.1122   4.0133   1.8781   O.3       1 RES1   0.0000
    40 N1E      4.8226   6.3262   0.5368   N.2       1 RES1   0.0000
    41 N2E      6.3789   4.0432  -0.0386   N.3       1 RES1   0.0000
    42 C1E      3.7436   4.8406   2.8455   C.ar      1 RES1   0.0000
    43 C7E      4.6515   6.8349   1.7032   C.2       1 RES1   0.0000
    44 C8E      5.7280   7.0514  -0.3848   C.3       1 RES1   0.0000
    45 C10E     7.2213   5.0042  -0.8226   C.3       1 RES1   0.0000
    46 C11E     7.0286   3.5134   1.1592   C.3       1 RES1   0.0000
    47 C12E     6.9026   2.6579  -0.0181   C.3       1 RES1   0.0000
    48 C2E      3.9625   6.2241   2.8081   C.ar      1 RES1   0.0000
    49 C6E      3.1600   4.2966   4.0167   C.ar      1 RES1   0.0000
    50 H4E      5.0144   7.6991   1.8515   H         1 RES1   0.0000
    51 C9E      7.1060   6.4300  -0.2955   C.3       1 RES1   0.0000
    52 H5E      5.7734   7.9667  -0.1375   H         1 RES1   0.0000
    53 H6E      5.4034   6.9792  -1.2750   H         1 RES1   0.0000
    54 H9E      6.9383   4.9884  -1.7297   H         1 RES1   0.0000
    55 H10E     8.1283   4.7297  -0.7696   H         1 RES1   0.0000
    56 H11E     7.8818   3.8390   1.4185   H         1 RES1   0.0000
    57 H12E     6.5109   3.3303   1.9348   H         1 RES1   0.0000
    58 H13E     6.3018   1.9221  -0.0096   H         1 RES1   0.0000
    59 H14E     7.6734   2.4308  -0.5271   H         1 RES1   0.0000
    60 C3E      3.6142   7.0426   3.8973   C.ar      1 RES1   0.0000
    61 O2E      3.0396   2.9483   3.9986   O.3       1 RES1   0.0000
    62 C5E      2.7907   5.1204   5.0613   C.ar      1 RES1   0.0000
    63 H7E      7.3664   6.4265   0.6188   H         1 RES1   0.0000
    64 H8E      7.7052   6.9750  -0.7913   H         1 RES1   0.0000
    65 C4E      3.0214   6.4987   4.9937   C.ar      1 RES1   0.0000
    66 H1E      3.7918   7.9755   3.8671   H         1 RES1   0.0000
    67 C13E     2.4814   2.3270   5.1638   C.3       1 RES1   0.0000
    68 H3E      2.3780   4.7490   5.8308   H         1 RES1   0.0000
    69 H2E      2.7645   7.0566   5.7175   H         1 RES1   0.0000
    70 C14E     2.5653   0.8995   4.9612   C.3       1 RES1   0.0000
    71 H15E     1.5739   2.5893   5.2700   H         1 RES1   0.0000
    72 H16E     2.9750   2.5769   5.9358   H         1 RES1   0.0000
    73 H17E     2.2036   0.4506   5.7150   H         1 RES1   0.0000
    74 H18E     2.0743   0.6601   4.1844   H         1 RES1   0.0000
    75 H19E     3.4761   0.6495   4.8490   H         1 RES1   0.0000
    76 Cl1     -1.6770   1.3775   3.0155   Cl        2 RES2   0.0000
    77 O3      -1.2297   0.5721   1.9553   O.2       2 RES2   0.0000
    78 O4      -0.6575   2.0876   3.4691   O.2       2 RES2   0.0000
    79 O3B     -2.1244   0.5721   4.0758   O.2       2 RES2   0.0000
    80 O4B     -2.6966   2.0876   2.5620   O.3       2 RES2  -1.0000
    81 C15     -1.0541   6.1202   3.0951   C.ar      3 RES3   0.0000
    82 C16     -0.3653   7.1851   3.1965   C.ar      3 RES3   0.0000
    83 C17     -1.0028   8.3557   3.1157   C.ar      3 RES3   0.0000
    84 H20     -0.6033   5.2859   3.1434   H         3 RES3   0.0000
    85 H21      0.5756   7.1482   3.3255   H         3 RES3   0.0000
    86 H22     -0.5258   9.1724   3.1989   H         3 RES3   0.0000
    87 C15B    -2.3000   6.1202   2.9359   C.ar      3 RES3   0.0000
    88 C17B    -2.3513   8.3557   2.9154   C.ar      3 RES3   0.0000
    89 C16B    -2.9888   7.1851   2.8346   C.ar      3 RES3   0.0000
    90 H20B    -2.7507   5.2859   2.8877   H         3 RES3   0.0000
    91 H22B    -2.8283   9.1724   2.8322   H         3 RES3   0.0000
    92 H21B    -3.9297   7.1482   2.7055   H         3 RES3   0.0000
@<TRIPOS>BOND
     1     1     2    1
     2     2     6    1
     3     3    11    1
     4     4     1    1
     5     5     1    1
     6     6     7   ar
     7     7     8   ar
     8     8     9   ar
     9     9    10   ar
    10    10    11   ar
    11    11     6   ar
    12    12     4    2
    13    13     4    1
    14    14    13    1
    15    15     5    1
    16    16     5    1
    17    17     5    1
    18    18     3    1
    19    19    18    1
    20    20     8    1
    21    21     9    1
    22    22    10    1
    23    23    12    1
    24    24    13    1
    25    25    13    1
    26    26    14    1
    27    27    14    1
    28    28    15    1
    29    29    15    1
    30    30    16    1
    31    31    16    1
    32    32    17    1
    33    33    17    1
    34    34    18    1
    35    35    18    1
    36    36    19    1
    37    37    19    1
    38    38    19    1
    39    39     1    1
    40    40     1    1
    41    41     1    1
    42    42    39    1
    43    43    40    2
    44    44    40    1
    45    45    41    1
    46    46    41    1
    47    47    41    1
    48    48    42   ar
    49    49    42   ar
    50    50    43    1
    51    51    44    1
    52    52    44    1
    53    53    44    1
    54    54    45    1
    55    55    45    1
    56    56    46    1
    57    57    46    1
    58    58    47    1
    59    59    47    1
    60    60    48   ar
    61    61    49    1
    62    62    49   ar
    63    63    51    1
    64    64    51    1
    65    65    60   ar
    66    66    60    1
    67    67    61    1
    68    68    62    1
    69    69    65    1
    70    70    67    1
    71    71    67    1
    72    72    67    1
    73    73    70    1
    74    74    70    1
    75    75    70    1
    76     7    12    1
    77    14    15    1
    78    16    17    1
    79    43    48    1
    80    45    51    1
    81    46    47    1
    82    62    65   ar
    83    76    77    2
    84    78    76    2
    85    79    76    2
    86    80    76    1
    87    81    82   ar
    88    82    83   ar
    89    83    86    1
    90    84    81    1
    91    85    82    1
    92    87    81   ar
    93    88    83   ar
    94    89    87   ar
    95    90    87    1
    96    91    88    1
    97    92    89    1
    98    88    89   ar
@<TRIPOS>SUBSTRUCTURE
     1 RES1        1 GROUP             0 ****  ****    0  
     2 RES2       76 GROUP             0 ****  ****    0  
     3 RES3       81 GROUP             0 ****  ****    0  
@<TRIPOS>CRYSIN
   16.9350   17.6020   13.8020   90.0000  119.0800   90.0000    15     1
