@<TRIPOS>MOLECULE
DIDROX
    76    78     1     0     0
SMALL
NO_CHARGES
****
Generated from the CSD

@<TRIPOS>ATOM
     1 Fe1      0.1271   3.9364   2.9115   Fe        1 RES1   0.0000
     2 S1       0.2564   5.8124   1.3241   S.2       1 RES1   0.0000
     3 P1       0.1271   7.0188   2.9115   P.3       1 RES1   0.0000
     4 S2       0.6542   2.4101   1.0144   S.2       1 RES1   0.0000
     5 P2       2.4995   2.4236   1.7457   P.3       1 RES1   0.0000
     6 S3       2.5120   3.5297   3.4204   S.2       1 RES1   0.0000
     7 O1       1.2897   8.0761   3.0128   O.3       1 RES1   0.0000
     8 C1       2.7006   7.6559   3.0932   C.3       1 RES1   0.0000
     9 C2       3.2274   8.1954   4.3707   C.3       1 RES1   0.0000
    10 C3       3.3867   8.2008   1.8796   C.3       1 RES1   0.0000
    11 O2       3.0891   0.9841   1.9868   O.3       1 RES1   0.0000
    12 C4       2.4188   0.0136   2.8777   C.3       1 RES1   0.0000
    13 C5       1.8536  -1.1224   1.9845   C.3       1 RES1   0.0000
    14 C6       3.4457  -0.4039   3.8641   C.3       1 RES1   0.0000
    15 O3       3.4762   2.9740   0.6475   O.3       1 RES1   0.0000
    16 C7       4.9073   3.2125   0.9363   C.3       1 RES1   0.0000
    17 C8       5.6785   2.5077  -0.1467   C.3       1 RES1   0.0000
    18 C9       5.1218   4.6846   0.9992   C.3       1 RES1   0.0000
    19 H1       2.8172   6.7124   3.0850   H         1 RES1   0.0000
    20 H2       4.1435   8.0083   4.5372   H         1 RES1   0.0000
    21 H3       2.7200   8.0164   5.1533   H         1 RES1   0.0000
    22 H4       3.1310   9.1117   4.1343   H         1 RES1   0.0000
    23 H5       4.3200   8.0598   1.9845   H         1 RES1   0.0000
    24 H6       3.2071   9.1334   1.8599   H         1 RES1   0.0000
    25 H7       3.0963   7.8050   1.0656   H         1 RES1   0.0000
    26 H8       1.6535   0.3416   3.3377   H         1 RES1   0.0000
    27 H9       1.2647  -1.7486   2.3897   H         1 RES1   0.0000
    28 H10      2.7519  -1.3501   2.1964   H         1 RES1   0.0000
    29 H11      1.7364  -1.1440   1.0423   H         1 RES1   0.0000
    30 H12      3.0408  -1.1630   4.2647   H         1 RES1   0.0000
    31 H13      3.7312  -0.1979   4.5419   H         1 RES1   0.0000
    32 H14      4.1941  -0.6777   3.3470   H         1 RES1   0.0000
    33 H15      5.2247   2.8682   1.7632   H         1 RES1   0.0000
    34 H16      6.6118   2.6486  -0.0419   H         1 RES1   0.0000
    35 H17      5.4000   2.8438  -0.9911   H         1 RES1   0.0000
    36 H18      5.4909   1.5778  -0.0978   H         1 RES1   0.0000
    37 H19      6.0278   4.9042   1.1844   H         1 RES1   0.0000
    38 H20      4.5573   5.1102   1.6351   H         1 RES1   0.0000
    39 H21      4.8962   4.9828   0.1258   H         1 RES1   0.0000
    40 S1B     -0.0021   5.8124   4.4988   S.2       1 RES1   0.0000
    41 S2B     -0.4000   2.4101   4.8086   S.2       1 RES1   0.0000
    42 S3B     -2.2577   3.5297   2.4026   S.2       1 RES1   0.0000
    43 O1B     -1.0355   8.0761   2.8102   O.3       1 RES1   0.0000
    44 P2B     -2.2453   2.4236   4.0772   P.3       1 RES1   0.0000
    45 C1B     -2.4464   7.6559   2.7298   C.3       1 RES1   0.0000
    46 O2B     -2.8349   0.9841   3.8362   O.3       1 RES1   0.0000
    47 O3B     -3.2220   2.9740   5.1754   O.3       1 RES1   0.0000
    48 C2B     -2.9732   8.1954   1.4522   C.3       1 RES1   0.0000
    49 C3B     -3.1324   8.2008   3.9433   C.3       1 RES1   0.0000
    50 H1B     -2.5630   6.7124   2.7380   H         1 RES1   0.0000
    51 C4B     -2.1645   0.0136   2.9452   C.3       1 RES1   0.0000
    52 C7B     -4.6531   3.2125   4.8866   C.3       1 RES1   0.0000
    53 H2B     -3.8893   8.0083   1.2857   H         1 RES1   0.0000
    54 H3B     -2.4657   8.0164   0.6696   H         1 RES1   0.0000
    55 H4B     -2.8768   9.1117   1.6887   H         1 RES1   0.0000
    56 H5B     -4.0657   8.0598   3.8385   H         1 RES1   0.0000
    57 H6B     -2.9529   9.1334   3.9631   H         1 RES1   0.0000
    58 H7B     -2.8421   7.8050   4.7574   H         1 RES1   0.0000
    59 C5B     -1.5994  -1.1224   3.8385   C.3       1 RES1   0.0000
    60 C6B     -3.1915  -0.4039   1.9588   C.3       1 RES1   0.0000
    61 H8B     -1.3993   0.3416   2.4852   H         1 RES1   0.0000
    62 C8B     -5.4242   2.5077   5.9697   C.3       1 RES1   0.0000
    63 C9B     -4.8676   4.6846   4.8237   C.3       1 RES1   0.0000
    64 H15B    -4.9704   2.8682   4.0598   H         1 RES1   0.0000
    65 H9B     -1.0105  -1.7486   3.4332   H         1 RES1   0.0000
    66 H10B    -2.4977  -1.3501   3.6265   H         1 RES1   0.0000
    67 H11B    -1.4822  -1.1440   4.7806   H         1 RES1   0.0000
    68 H12B    -2.7865  -1.1630   1.5582   H         1 RES1   0.0000
    69 H13B    -3.4770  -0.1979   1.2810   H         1 RES1   0.0000
    70 H14B    -3.9399  -0.6777   2.4759   H         1 RES1   0.0000
    71 H16B    -6.3575   2.6486   5.8649   H         1 RES1   0.0000
    72 H17B    -5.1458   2.8438   6.8140   H         1 RES1   0.0000
    73 H18B    -5.2366   1.5778   5.9208   H         1 RES1   0.0000
    74 H19B    -5.7735   4.9042   4.6386   H         1 RES1   0.0000
    75 H20B    -4.3031   5.1102   4.1879   H         1 RES1   0.0000
    76 H21B    -4.6420   4.9828   5.6972   H         1 RES1   0.0000
@<TRIPOS>BOND
     1     1     2    1
     2     2     3   un
     3     3     7    1
     4     4     1    1
     5     5     4   un
     6     6     1    1
     7     7     8    1
     8     8     9    1
     9     9    20    1
    10    10     8    1
    11    11     5    1
    12    12    11    1
    13    13    12    1
    14    14    12    1
    15    15     5    1
    16    16    15    1
    17    17    16    1
    18    18    16    1
    19    19     8    1
    20    21     9    1
    21    22     9    1
    22    23    10    1
    23    24    10    1
    24    25    10    1
    25    26    12    1
    26    27    13    1
    27    28    13    1
    28    29    13    1
    29    30    14    1
    30    31    14    1
    31    32    14    1
    32    33    16    1
    33    34    17    1
    34    35    17    1
    35    36    17    1
    36    37    18    1
    37    38    18    1
    38    39    18    1
    39    40     1    1
    40    41     1    1
    41    42     1    1
    42    43     3    1
    43    44    41   un
    44    45    43    1
    45    46    44    1
    46    47    44    1
    47    48    45    1
    48    49    45    1
    49    50    45    1
    50    51    46    1
    51    52    47    1
    52    53    48    1
    53    54    48    1
    54    55    48    1
    55    56    49    1
    56    57    49    1
    57    58    49    1
    58    59    51    1
    59    60    51    1
    60    61    51    1
    61    62    52    1
    62    63    52    1
    63    64    52    1
    64    65    59    1
    65    66    59    1
    66    67    59    1
    67    68    60    1
    68    69    60    1
    69    70    60    1
    70    71    62    1
    71    72    62    1
    72    73    62    1
    73    74    63    1
    74    75    63    1
    75    76    63    1
    76     3    40   un
    77     5     6   un
    78    42    44   un
@<TRIPOS>SUBSTRUCTURE
     1 RES1        1 GROUP             0 ****  ****    0  
@<TRIPOS>CRYSIN
   11.0300   27.1100   11.6570   90.0000   87.5000   90.0000    15     1
