@<TRIPOS>MOLECULE
DIFBAX
    86    94     2     0     0
SMALL
USER_CHARGES
****
Generated from the CSD

@<TRIPOS>ATOM
     1 Fe1      0.0000   2.4101   4.9526   Fe        1 RES1   2.0000
     2 C1       1.7678   3.6280   3.0193   C.ar      1 RES1   0.0000
     3 N1       1.2289   3.7919   4.2438   N.ar      1 RES1   0.0000
     4 C2       2.6640   4.5186   2.4751   C.ar      1 RES1   0.0000
     5 H1       3.0100   4.3841   1.6225   H         1 RES1   0.0000
     6 N2      -0.0876   2.3514   2.0684   N.pl3     1 RES1   0.0000
     7 C3       3.0383   5.6192   3.2230   C.ar      1 RES1   0.0000
     8 H2       3.6568   6.2271   2.8884   H         1 RES1   0.0000
     9 N3      -0.8972   2.4235   3.1725   N.2       1 RES1   0.0000
    10 C4       2.4853   5.8011   4.4647   C.ar      1 RES1   0.0000
    11 H3       2.7171   6.5401   4.9784   H         1 RES1   0.0000
    12 N4       1.7510   1.1836   3.0134   N.pl3     1 RES1   0.0000
    13 C5       1.5908   4.8847   4.9394   C.ar      1 RES1   0.0000
    14 H4       1.2157   5.0225   5.7787   H         1 RES1   0.0000
    15 N5       1.2528   1.0173   4.2797   N.2       1 RES1   0.0000
    16 C6       1.3546   2.3774   2.2782   C.3       1 RES1   0.0000
    17 H5       1.7987   2.3702   1.4046   H         1 RES1   0.0000
    18 C7      -0.1672   2.2487  -0.4156   C.3       1 RES1   0.0000
    19 H6       0.7874   2.2198  -0.3150   H         1 RES1   0.0000
    20 H7      -0.4105   3.0188  -0.9351   H         1 RES1   0.0000
    21 H8      -0.4654   1.4538  -0.8618   H         1 RES1   0.0000
    22 C8      -0.8016   2.3321   0.9178   C.2       1 RES1   0.0000
    23 C9      -2.1288   2.3932   1.2938   C.2       1 RES1   0.0000
    24 H9      -2.8675   2.3990   0.7290   H         1 RES1   0.0000
    25 C10     -2.1447   2.4447   2.6903   C.2       1 RES1   0.0000
    26 C11     -3.3648   2.4896   3.5758   C.3       1 RES1   0.0000
    27 H10     -3.0923   2.5205   4.4950   H         1 RES1   0.0000
    28 H11     -3.8965   1.7030   3.4272   H         1 RES1   0.0000
    29 H12     -3.8833   3.2701   3.3678   H         1 RES1   0.0000
    30 C12      3.2807   0.0898   1.3426   C.3       1 RES1   0.0000
    31 H13      3.0348   0.8443   0.8023   H         1 RES1   0.0000
    32 H14      3.0277  -0.7207   0.8935   H         1 RES1   0.0000
    33 H15      4.2292   0.0947   1.4858   H         1 RES1   0.0000
    34 C13      2.5791   0.1709   2.6568   C.2       1 RES1   0.0000
    35 C14      2.6136  -0.6785   3.7396   C.2       1 RES1   0.0000
    36 H16      3.0976  -1.4703   3.8076   H         1 RES1   0.0000
    37 C15      1.7837  -0.1229   4.7159   C.2       1 RES1   0.0000
    38 C16      1.4961  -0.7084   6.0733   C.3       1 RES1   0.0000
    39 H17      0.8936  -0.1318   6.5494   H         1 RES1   0.0000
    40 H18      2.3154  -0.7907   6.5652   H         1 RES1   0.0000
    41 H19      1.0953  -1.5733   5.9709   H         1 RES1   0.0000
    42 C1B     -1.7678   3.6280   6.8859   C.ar      1 RES1   0.0000
    43 N1B     -1.2289   3.7919   5.6614   N.ar      1 RES1   0.0000
    44 C2B     -2.6640   4.5186   7.4301   C.ar      1 RES1   0.0000
    45 H1B     -3.0100   4.3841   8.2828   H         1 RES1   0.0000
    46 N2B      0.0876   2.3514   7.8368   N.pl3     1 RES1   0.0000
    47 C3B     -3.0383   5.6192   6.6823   C.ar      1 RES1   0.0000
    48 H2B     -3.6568   6.2271   7.0169   H         1 RES1   0.0000
    49 N3B      0.8972   2.4235   6.7328   N.2       1 RES1   0.0000
    50 C4B     -2.4853   5.8011   5.4406   C.ar      1 RES1   0.0000
    51 H3B     -2.7171   6.5401   4.9269   H         1 RES1   0.0000
    52 N4B     -1.7510   1.1836   6.8919   N.pl3     1 RES1   0.0000
    53 C5B     -1.5908   4.8847   4.9659   C.ar      1 RES1   0.0000
    54 H4B     -1.2157   5.0225   4.1265   H         1 RES1   0.0000
    55 N5B     -1.2528   1.0173   5.6256   N.2       1 RES1   0.0000
    56 C6B     -1.3546   2.3774   7.6270   C.3       1 RES1   0.0000
    57 H5B     -1.7987   2.3702   8.5007   H         1 RES1   0.0000
    58 C7B      0.1672   2.2487  10.3209   C.3       1 RES1   0.0000
    59 H6B     -0.7874   2.2198  10.2202   H         1 RES1   0.0000
    60 H7B      0.4105   3.0188  10.8403   H         1 RES1   0.0000
    61 H8B      0.4654   1.4538  10.7670   H         1 RES1   0.0000
    62 C8B      0.8016   2.3321   8.9874   C.2       1 RES1   0.0000
    63 C9B      2.1288   2.3932   8.6114   C.2       1 RES1   0.0000
    64 H9B      2.8675   2.3990   9.1762   H         1 RES1   0.0000
    65 C10B     2.1447   2.4447   7.2150   C.2       1 RES1   0.0000
    66 C11B     3.3648   2.4896   6.3295   C.3       1 RES1   0.0000
    67 H10B     3.0923   2.5205   5.4102   H         1 RES1   0.0000
    68 H11B     3.8965   1.7030   6.4780   H         1 RES1   0.0000
    69 H12B     3.8833   3.2701   6.5375   H         1 RES1   0.0000
    70 C12B    -3.2807   0.0898   8.5627   C.3       1 RES1   0.0000
    71 H13B    -3.0348   0.8443   9.1029   H         1 RES1   0.0000
    72 H14B    -3.0277  -0.7207   9.0118   H         1 RES1   0.0000
    73 H15B    -4.2292   0.0947   8.4195   H         1 RES1   0.0000
    74 C13B    -2.5791   0.1709   7.2485   C.2       1 RES1   0.0000
    75 C14B    -2.6136  -0.6785   6.1656   C.2       1 RES1   0.0000
    76 H16B    -3.0976  -1.4703   6.0977   H         1 RES1   0.0000
    77 C15B    -1.7837  -0.1229   5.1894   C.2       1 RES1   0.0000
    78 C16B    -1.4961  -0.7084   3.8319   C.3       1 RES1   0.0000
    79 H17B    -0.8936  -0.1318   3.3559   H         1 RES1   0.0000
    80 H18B    -2.3154  -0.7907   3.3401   H         1 RES1   0.0000
    81 H19B    -1.0953  -1.5733   3.9344   H         1 RES1   0.0000
    82 Cl1      7.9167   6.6604   1.5446   Cl        2 RES2   0.0000
    83 O1       6.6083   6.3074   2.0801   O.3       2 RES2  -1.0000
    84 O2       8.6239   7.2011   2.5595   O.2       2 RES2   0.0000
    85 O3       7.7435   7.5388   0.4834   O.2       2 RES2   0.0000
    86 O4       8.4752   5.4776   1.1292   O.2       2 RES2   0.0000
@<TRIPOS>BOND
     1     1     3    1
     2     2     3   ar
     3     3    13   ar
     4     4     2   ar
     5     5     4    1
     6     6     9    1
     7     7     4   ar
     8     8     7    1
     9     9     1    1
    10    10     7   ar
    11    11    10    1
    12    12    15    1
    13    13    10   ar
    14    14    13    1
    15    15     1    1
    16    16     2    1
    17    17    16    1
    18    18    19    1
    19    20    18    1
    20    21    18    1
    21    22     6    1
    22    23    22    2
    23    24    23    1
    24    25     9    2
    25    26    25    1
    26    27    26    1
    27    28    26    1
    28    29    26    1
    29    30    31    1
    30    32    30    1
    31    33    30    1
    32    34    12    1
    33    35    34    2
    34    36    35    1
    35    37    15    2
    36    38    37    1
    37    39    38    1
    38    40    38    1
    39    41    38    1
    40    42    43   ar
    41    43     1    1
    42    44    42   ar
    43    45    44    1
    44    46    49    1
    45    47    44   ar
    46    48    47    1
    47    49     1    1
    48    50    47   ar
    49    51    50    1
    50    52    55    1
    51    53    43   ar
    52    54    53    1
    53    55     1    1
    54    56    42    1
    55    57    56    1
    56    58    59    1
    57    60    58    1
    58    61    58    1
    59    62    46    1
    60    63    62    2
    61    64    63    1
    62    65    49    2
    63    66    65    1
    64    67    66    1
    65    68    66    1
    66    69    66    1
    67    70    71    1
    68    72    70    1
    69    73    70    1
    70    74    52    1
    71    75    74    2
    72    76    75    1
    73    77    55    2
    74    78    77    1
    75    79    78    1
    76    80    78    1
    77    81    78    1
    78     6    16    1
    79    12    16    1
    80    18    22    1
    81    23    25    1
    82    30    34    1
    83    35    37    1
    84    46    56    1
    85    50    53   ar
    86    52    56    1
    87    58    62    1
    88    63    65    1
    89    70    74    1
    90    75    77    1
    91    82    83    1
    92    84    82    2
    93    85    82    2
    94    86    82    2
@<TRIPOS>SUBSTRUCTURE
     1 RES1        1 GROUP             0 ****  ****    0  
     2 RES2       82 GROUP             0 ****  ****    0  
@<TRIPOS>CRYSIN
    8.8477   20.5923   19.8105   90.0000   90.0000   90.0000    60     1
