@<TRIPOS>MOLECULE
DIFXEX
    79    88     1     0     0
SMALL
NO_CHARGES
****
Generated from the CSD

@<TRIPOS>ATOM
     1 Fe1      1.6759   5.8280   5.5254   Fe        1 RES1   0.0000
     2 S1       1.5200   8.5856   1.7149   S.2       1 RES1   0.0000
     3 Cl1      8.2079   4.5821  12.4114   Cl        1 RES1   0.0000
     4 N1       2.3265   6.9236   7.3334   N.ar      1 RES1   0.0000
     5 N2       3.7887   5.3391   5.7873   N.2       1 RES1   0.0000
     6 N3       4.5982   4.3855   5.2337   N.2       1 RES1   0.0000
     7 N4       5.3197   4.8205   7.2704   N.pl3     1 RES1   0.0000
     8 N5       7.2242   2.6103   6.9587   N.ar      1 RES1   0.0000
     9 N6       2.0363   7.4178   4.1949   N.2       1 RES1   0.0000
    10 C1       1.6146   7.8342   7.9820   C.ar      1 RES1   0.0000
    11 H1       0.7826   8.0710   7.6406   H         1 RES1   0.0000
    12 C2       2.0457   8.4475   9.1346   C.ar      1 RES1   0.0000
    13 H2       1.5206   9.0911   9.5513   H         1 RES1   0.0000
    14 C3       3.2628   8.0927   9.6596   C.ar      1 RES1   0.0000
    15 H3       3.5744   8.4933  10.4398   H         1 RES1   0.0000
    16 C4       4.0183   7.1362   9.0164   C.ar      1 RES1   0.0000
    17 H4       4.8427   6.8747   9.3590   H         1 RES1   0.0000
    18 C5       3.5286   6.5735   7.8538   C.ar      1 RES1   0.0000
    19 C6       4.2219   5.5919   7.0074   C.2       1 RES1   0.0000
    20 C7       5.5130   4.0794   6.1288   C.2       1 RES1   0.0000
    21 C8       6.5487   3.0663   5.8868   C.ar      1 RES1   0.0000
    22 C9       6.7696   2.6172   4.6137   C.ar      1 RES1   0.0000
    23 H5       6.2872   2.9636   3.8987   H         1 RES1   0.0000
    24 C10      7.7199   1.6433   4.4115   C.ar      1 RES1   0.0000
    25 H6       7.8828   1.3169   3.5562   H         1 RES1   0.0000
    26 C11      8.4229   1.1605   5.4790   C.ar      1 RES1   0.0000
    27 H7       9.0714   0.5031   5.3674   H         1 RES1   0.0000
    28 C12      8.1461   1.6727   6.7233   C.ar      1 RES1   0.0000
    29 H8       8.6301   1.3466   7.4472   H         1 RES1   0.0000
    30 C13      6.0474   4.7430   8.5224   C.ar      1 RES1   0.0000
    31 C14      7.1832   5.5113   8.6893   C.ar      1 RES1   0.0000
    32 H9       7.4912   6.0569   8.0019   H         1 RES1   0.0000
    33 C15      7.8493   5.4529   9.8894   C.ar      1 RES1   0.0000
    34 H10      8.6166   5.9618  10.0231   H         1 RES1   0.0000
    35 C16      7.3780   4.6416  10.8917   C.ar      1 RES1   0.0000
    36 C17      6.2640   3.8600  10.7149   C.ar      1 RES1   0.0000
    37 H11      5.9731   3.2949  11.3934   H         1 RES1   0.0000
    38 C18      5.5780   3.9234   9.5126   C.ar      1 RES1   0.0000
    39 H12      4.8096   3.4160   9.3811   H         1 RES1   0.0000
    40 C19      1.8291   7.9051   3.1605   C.1       1 RES1   0.0000
    41 S1A      1.8318   3.0705   9.3360   S.2       1 RES1   0.0000
    42 Cl1A    -4.8561   7.0740  -1.3606   Cl        1 RES1   0.0000
    43 N1A      1.0254   4.7325   3.7175   N.ar      1 RES1   0.0000
    44 N2A     -0.4369   6.3169   5.2635   N.2       1 RES1   0.0000
    45 N3A     -1.2464   7.2706   5.8172   N.2       1 RES1   0.0000
    46 N4A     -1.9679   6.8356   3.7805   N.pl3     1 RES1   0.0000
    47 N5A     -3.8724   9.0458   4.0921   N.ar      1 RES1   0.0000
    48 N6A      1.3156   4.2383   6.8560   N.2       1 RES1   0.0000
    49 C1A      1.7372   3.8219   3.0688   C.ar      1 RES1   0.0000
    50 H1A      2.5692   3.5851   3.4103   H         1 RES1   0.0000
    51 C2A      1.3061   3.2086   1.9162   C.ar      1 RES1   0.0000
    52 H2A      1.8313   2.5650   1.4996   H         1 RES1   0.0000
    53 C3A      0.0890   3.5634   1.3913   C.ar      1 RES1   0.0000
    54 H3A     -0.2225   3.1627   0.6111   H         1 RES1   0.0000
    55 C4A     -0.6665   4.5199   2.0345   C.ar      1 RES1   0.0000
    56 H4A     -1.4908   4.7814   1.6919   H         1 RES1   0.0000
    57 C5A     -0.1767   5.0826   3.1970   C.ar      1 RES1   0.0000
    58 C6A     -0.8700   6.0642   4.0435   C.2       1 RES1   0.0000
    59 C7A     -2.1612   7.5767   4.9221   C.2       1 RES1   0.0000
    60 C8A     -3.1969   8.5897   5.1641   C.ar      1 RES1   0.0000
    61 C9A     -3.4177   9.0389   6.4371   C.ar      1 RES1   0.0000
    62 H5A     -2.9354   8.6925   7.1521   H         1 RES1   0.0000
    63 C10A    -4.3681  10.0128   6.6394   C.ar      1 RES1   0.0000
    64 H6A     -4.5310  10.3392   7.4947   H         1 RES1   0.0000
    65 C11A    -5.0711  10.4956   5.5718   C.ar      1 RES1   0.0000
    66 H7A     -5.7196  11.1530   5.6835   H         1 RES1   0.0000
    67 C12A    -4.7943   9.9834   4.3275   C.ar      1 RES1   0.0000
    68 H8A     -5.2783  10.3095   3.6037   H         1 RES1   0.0000
    69 C13A    -2.6956   6.9131   2.5284   C.ar      1 RES1   0.0000
    70 C14A    -3.8314   6.1448   2.3616   C.ar      1 RES1   0.0000
    71 H9A     -4.1394   5.5992   3.0489   H         1 RES1   0.0000
    72 C15A    -4.4975   6.2032   1.1614   C.ar      1 RES1   0.0000
    73 H10A    -5.2647   5.6943   1.0277   H         1 RES1   0.0000
    74 C16A    -4.0261   7.0145   0.1591   C.ar      1 RES1   0.0000
    75 C17A    -2.9121   7.7961   0.3359   C.ar      1 RES1   0.0000
    76 H11A    -2.6212   8.3612  -0.3426   H         1 RES1   0.0000
    77 C18A    -2.2262   7.7327   1.5383   C.ar      1 RES1   0.0000
    78 H12A    -1.4578   8.2401   1.6698   H         1 RES1   0.0000
    79 C19A     1.5228   3.7509   7.8903   C.1       1 RES1   0.0000
@<TRIPOS>BOND
     1     1     4    1
     2     2    40    2
     3     3    35    1
     4     4    10   ar
     5     5     1    1
     6     6     5    1
     7     7    19    1
     8     8    21   ar
     9     9     1    1
    10    10    11    1
    11    12    10   ar
    12    13    12    1
    13    14    12   ar
    14    15    14    1
    15    16    14   ar
    16    17    16    1
    17    18     4   ar
    18    19     5    2
    19    20     6    2
    20    21    20    1
    21    22    21   ar
    22    23    22    1
    23    24    22   ar
    24    25    24    1
    25    26    24   ar
    26    27    26    1
    27    28     8   ar
    28    29    28    1
    29    30     7    1
    30    31    30   ar
    31    32    31    1
    32    33    31   ar
    33    34    33    1
    34    35    33   ar
    35    36    35   ar
    36    37    36    1
    37    38    30   ar
    38    39    38    1
    39    40     9    2
    40    41    79    2
    41    42    74    1
    42    43     1    1
    43    44     1    1
    44    45    44    1
    45    46    58    1
    46    47    60   ar
    47    48     1    1
    48    49    43   ar
    49    50    49    1
    50    51    49   ar
    51    52    51    1
    52    53    51   ar
    53    54    53    1
    54    55    53   ar
    55    56    55    1
    56    57    43   ar
    57    58    44    2
    58    59    45    2
    59    60    59    1
    60    61    60   ar
    61    62    61    1
    62    63    61   ar
    63    64    63    1
    64    65    63   ar
    65    66    65    1
    66    67    47   ar
    67    68    67    1
    68    69    46    1
    69    70    69   ar
    70    71    70    1
    71    72    70   ar
    72    73    72    1
    73    74    72   ar
    74    75    74   ar
    75    76    75    1
    76    77    69   ar
    77    78    77    1
    78    79    48    2
    79     7    20    1
    80    16    18   ar
    81    18    19    1
    82    26    28   ar
    83    36    38   ar
    84    46    59    1
    85    55    57   ar
    86    57    58    1
    87    65    67   ar
    88    75    77   ar
@<TRIPOS>SUBSTRUCTURE
     1 RES1        1 GROUP             0 ****  ****    0  
@<TRIPOS>CRYSIN
    8.9180    9.2620   11.6360   77.1220   76.4410   86.1380     2     1
