@<TRIPOS>MOLECULE
DIGJUA
    79    85     4     0     0
SMALL
USER_CHARGES
****
Generated from the CSD

@<TRIPOS>ATOM
     1 Fe1      4.7999   3.2977   3.2184   Fe        1 RES1   2.0000
     2 N1       5.1690   4.4620   4.8652   N.ar      1 RES1   0.0000
     3 C1       4.6569   5.6414   5.3250   C.ar      1 RES1   0.0000
     4 N2       5.0922   6.2678   6.4248   N.ar      1 RES1   0.0000
     5 C2       6.0588   5.6522   7.1235   C.ar      1 RES1   0.0000
     6 N3       6.6001   4.4518   6.7892   N.ar      1 RES1   0.0000
     7 C3       6.1242   3.9422   5.6794   C.ar      1 RES1   0.0000
     8 N4       6.0350   2.1988   4.1239   N.ar      1 RES1   0.0000
     9 C4       6.6388   2.6314   5.2491   C.ar      1 RES1   0.0000
    10 C5       7.6177   1.8869   5.8839   C.ar      1 RES1   0.0000
    11 H1       8.0376   2.2062   6.6745   H         1 RES1   0.0000
    12 C6       7.9717   0.6611   5.3341   C.ar      1 RES1   0.0000
    13 H2       8.6609   0.1428   5.7341   H         1 RES1   0.0000
    14 C7       7.3201   0.1913   4.1988   C.ar      1 RES1   0.0000
    15 H3       7.5447  -0.6543   3.8290   H         1 RES1   0.0000
    16 C8       6.3359   0.9782   3.6134   C.ar      1 RES1   0.0000
    17 N5       4.8203   1.7646   1.9725   N.ar      1 RES1   0.0000
    18 C9       5.5425   0.6893   2.4126   C.ar      1 RES1   0.0000
    19 C10      5.4830  -0.5486   1.7983   C.ar      1 RES1   0.0000
    20 H4       5.9770  -1.2837   2.1413   H         1 RES1   0.0000
    21 C11      4.6851  -0.6943   0.6687   C.ar      1 RES1   0.0000
    22 H5       4.6153  -1.5357   0.2333   H         1 RES1   0.0000
    23 C12      3.9961   0.4012   0.1907   C.ar      1 RES1   0.0000
    24 H6       3.4716   0.3266  -0.5976   H         1 RES1   0.0000
    25 C13      4.0722   1.6104   0.8617   C.ar      1 RES1   0.0000
    26 H7       3.5828   2.3533   0.5299   H         1 RES1   0.0000
    27 N6       3.6384   6.2104   4.6720   N.pl3     1 RES1   0.0000
    28 H8       3.2947   6.9863   4.9508   H         1 RES1   0.0000
    29 H9       3.3146   5.8832   3.9572   H         1 RES1   0.0000
    30 N7       6.5141   6.2166   8.2308   N.pl3     1 RES1   0.0000
    31 H10      6.1878   7.0620   8.4687   H         1 RES1   0.0000
    32 H11      7.1724   5.8616   8.6703   H         1 RES1   0.0000
    33 N8       6.0244   4.4054   2.0108   N.ar      1 RES1   0.0000
    34 C14      7.3453   4.3088   1.6645   C.ar      1 RES1   0.0000
    35 N9       7.9614   5.1283   0.8027   N.ar      1 RES1   0.0000
    36 C15      7.2210   6.1276   0.3131   C.ar      1 RES1   0.0000
    37 N10      5.8872   6.2850   0.5232   N.ar      1 RES1   0.0000
    38 C16      5.3681   5.3877   1.3394   C.ar      1 RES1   0.0000
    39 N11      3.5121   4.3521   2.3278   N.ar      1 RES1   0.0000
    40 C17      3.9005   5.3542   1.5117   C.ar      1 RES1   0.0000
    41 C18      2.9836   6.1880   0.8961   C.ar      1 RES1   0.0000
    42 H12      3.2705   6.8987   0.3355   H         1 RES1   0.0000
    43 C19      1.6293   5.9589   1.1187   C.ar      1 RES1   0.0000
    44 H13      0.9791   6.5115   0.7013   H         1 RES1   0.0000
    45 C20      1.2271   4.9203   1.9518   C.ar      1 RES1   0.0000
    46 H14      0.3048   4.7541   2.1039   H         1 RES1   0.0000
    47 C21      2.1963   4.1292   2.5577   C.ar      1 RES1   0.0000
    48 N12      3.1701   2.5146   3.9988   N.ar      1 RES1   0.0000
    49 C22      2.0004   3.0270   3.5113   C.ar      1 RES1   0.0000
    50 C23      0.7650   2.5252   3.8751   C.ar      1 RES1   0.0000
    51 H15     -0.0338   2.9319   3.5597   H         1 RES1   0.0000
    52 C24      0.7099   1.4200   4.7065   C.ar      1 RES1   0.0000
    53 H16     -0.1286   1.0447   4.9522   H         1 RES1   0.0000
    54 C25      1.8915   0.8684   5.1781   C.ar      1 RES1   0.0000
    55 H17      1.8760   0.1017   5.7384   H         1 RES1   0.0000
    56 C26      3.0958   1.4536   4.8173   C.ar      1 RES1   0.0000
    57 H18      3.9006   1.0890   5.1639   H         1 RES1   0.0000
    58 N13      8.0839   3.3228   2.1723   N.pl3     1 RES1   0.0000
    59 H19      8.9239   3.2769   1.9685   H         1 RES1   0.0000
    60 H20      7.7907   2.8551   2.8383   H         1 RES1   0.0000
    61 N14      7.8129   7.0225  -0.4859   N.pl3     1 RES1   0.0000
    62 H21      8.6430   6.9539  -0.6581   H         1 RES1   0.0000
    63 H22      7.4272   7.8190  -0.6926   H         1 RES1   0.0000
    64 Cl1      5.3870   8.9259  11.2678   Cl        2 RES2   0.0000
    65 O1       5.5858   8.1881  12.5032   O.3       2 RES2  -1.0000
    66 O2       4.0232   8.7829  10.8421   O.2       2 RES2   0.0000
    67 O3       5.6957  10.3147  11.4832   O.2       2 RES2   0.0000
    68 O4       6.2670   8.3842  10.2602   O.2       2 RES2   0.0000
    69 Cl2      0.2579   7.9628   5.0023   Cl        3 RES3   0.0000
    70 O5       1.6406   8.2712   5.2943   O.3       3 RES3  -1.0000
    71 O6      -0.4502   9.2029   4.8181   O.2       3 RES3   0.0000
    72 O7      -0.2931   7.2798   6.1262   O.2       3 RES3   0.0000
    73 O8       0.1643   7.1810   3.8251   O.2       3 RES3   0.0000
    74 N15     20.1452   3.0508   6.7793   N.1       4 RES4   0.0000
    75 C27     19.4253   3.7365   6.2370   C.1       4 RES4   0.0000
    76 C28     18.4960   4.6298   5.5498   C.3       4 RES4   0.0000
    77 H23     17.6893   4.7444   6.0941   H         4 RES4   0.0000
    78 H24     18.2529   4.2426   4.6829   H         4 RES4   0.0000
    79 H25     18.9235   5.5004   5.4101   H         4 RES4   0.0000
@<TRIPOS>BOND
     1     1     2    1
     2     2     3   ar
     3     3     4   ar
     4     4     5   ar
     5     5     6   ar
     6     6     7   ar
     7     7     2   ar
     8     8     1    1
     9     9     7    1
    10    10     9   ar
    11    11    10    1
    12    12    10   ar
    13    13    12    1
    14    14    12   ar
    15    15    14    1
    16    16     8   ar
    17    17     1    1
    18    18    16    1
    19    19    18   ar
    20    20    19    1
    21    21    19   ar
    22    22    21    1
    23    23    21   ar
    24    24    23    1
    25    25    17   ar
    26    26    25    1
    27    27     3    1
    28    28    27    1
    29    29    27    1
    30    30     5    1
    31    31    30    1
    32    32    30    1
    33    33     1    1
    34    34    33   ar
    35    35    34   ar
    36    36    35   ar
    37    37    36   ar
    38    38    33   ar
    39    39     1    1
    40    40    38    1
    41    41    40   ar
    42    42    41    1
    43    43    41   ar
    44    44    43    1
    45    45    43   ar
    46    46    45    1
    47    47    39   ar
    48    48     1    1
    49    49    47    1
    50    50    49   ar
    51    51    50    1
    52    52    50   ar
    53    53    52    1
    54    54    52   ar
    55    55    54    1
    56    56    48   ar
    57    57    56    1
    58    58    34    1
    59    59    58    1
    60    60    58    1
    61    61    36    1
    62    62    61    1
    63    63    61    1
    64     8     9   ar
    65    14    16   ar
    66    17    18   ar
    67    23    25   ar
    68    37    38   ar
    69    39    40   ar
    70    45    47   ar
    71    48    49   ar
    72    54    56   ar
    73    64    65    1
    74    66    64    2
    75    67    64    2
    76    68    64    2
    77    69    70    1
    78    71    69    2
    79    72    69    2
    80    73    69    2
    81    74    75    3
    82    75    76    1
    83    76    77    1
    84    78    76    1
    85    79    76    1
@<TRIPOS>SUBSTRUCTURE
     1 RES1        1 GROUP             0 ****  ****    0  
     2 RES2       64 GROUP             0 ****  ****    0  
     3 RES3       69 GROUP             0 ****  ****    0  
     4 RES4       74 GROUP             0 ****  ****    0  
@<TRIPOS>CRYSIN
   21.4191   10.8147   15.1758   90.0000  108.3980   90.0000    14     1
