@<TRIPOS>MOLECULE
DIQFOY
    77    81     7     0     0
SMALL
USER_CHARGES
****
Generated from the CSD

@<TRIPOS>ATOM
     1 Fe1      2.9151   4.0236   5.5867   Fe        1 RES1   3.0000
     2 O1       1.3437   4.0737   4.3350   O.co2     1 RES1  -1.0000
     3 O2       1.4084   4.2426   6.9031   O.co2     1 RES1  -1.0000
     4 O3       2.9755   2.0337   5.4785   O.co2     1 RES1  -1.0000
     5 O4       4.3521   3.6534   6.9695   O.co2     1 RES1  -1.0000
     6 O5       3.2929   5.9996   5.6810   O.co2     1 RES1  -1.0000
     7 O6       4.1808   4.2278   4.0155   O.co2     1 RES1  -1.0000
     8 O7      -0.8804   4.1265   4.2931   O.co2     1 RES1   0.0000
     9 O8      -0.7693   4.6650   7.0288   O.co2     1 RES1   0.0000
    10 O9       4.0246   0.2513   6.2764   O.co2     1 RES1   0.0000
    11 O10      5.5773   2.0062   7.7935   O.co2     1 RES1   0.0000
    12 O11      4.4365   7.6194   4.7016   O.co2     1 RES1   0.0000
    13 O12      5.1930   5.7737   2.7759   O.co2     1 RES1   0.0000
    14 C1       0.1908   4.1581   4.8657   C.2       1 RES1   0.0000
    15 C2       0.2437   4.3566   6.3986   C.2       1 RES1   0.0000
    16 C3       3.8533   1.4614   6.2275   C.2       1 RES1   0.0000
    17 C4       4.6807   2.4307   7.0829   C.2       1 RES1   0.0000
    18 C5       4.0611   6.4706   4.7924   C.2       1 RES1   0.0000
    19 C6       4.5342   5.4168   3.7518   C.2       1 RES1   0.0000
    20 S1       5.3820   1.6339  -1.4017   S.3       2 RES2   1.0000
    21 S2       5.5145   1.5619   1.4936   S.3       2 RES2   0.0000
    22 C7       5.3347   0.6948   0.0262   C.2       2 RES2   0.0000
    23 C8       5.6057   3.1297  -0.5971   C.2       2 RES2   0.0000
    24 H1       5.7007   3.9279  -1.0650   H         2 RES2   0.0000
    25 C9       5.6351   3.0896   0.7315   C.2       2 RES2   0.0000
    26 H2       5.7190   3.8688   1.2308   H         2 RES2   0.0000
    27 C7B      5.1523  -0.6948  -0.0262   C.2       2 RES2   0.0000
    28 S1B      5.1050  -1.6339   1.4017   S.3       2 RES2   0.0000
    29 C8B      4.8813  -3.1297   0.5971   C.2       2 RES2   0.0000
    30 H1B      4.7863  -3.9279   1.0650   H         2 RES2   0.0000
    31 C9B      4.8519  -3.0896  -0.7315   C.2       2 RES2   0.0000
    32 S2B      4.9725  -1.5619  -1.4936   S.3       2 RES2   0.0000
    33 H2B      4.7680  -3.8688  -1.2308   H         2 RES2   0.0000
    34 S3       2.0799   2.3819  -0.9564   S.3       3 RES3   0.0000
    35 S4       2.1027   1.7167   1.8988   S.3       3 RES3   0.0000
    36 S5       1.5959  -0.7294  -1.6907   S.3       3 RES3   0.0000
    37 S6       1.6043  -1.4155   1.1524   S.3       3 RES3   0.0000
    38 C10      1.9356   1.1530   0.2671   C.2       3 RES3   0.0000
    39 C11      1.7348  -0.1732  -0.0559   C.2       3 RES3   0.0000
    40 C12      2.2562   3.6830   0.1659   C.2       3 RES3   0.0000
    41 H3       2.3515   4.5636  -0.1222   H         3 RES3   0.0000
    42 C13      2.2507   3.3789   1.4438   C.2       3 RES3   0.0000
    43 H4       2.3249   4.0420   2.0915   H         3 RES3   0.0000
    44 C14      1.2883  -2.3758  -1.2553   C.2       3 RES3   0.0000
    45 H5       1.1334  -3.0241  -1.9030   H         3 RES3   0.0000
    46 C15      1.2831  -2.6735   0.0192   C.2       3 RES3   0.0000
    47 H6       1.1103  -3.5415   0.3055   H         3 RES3   0.0000
    48 S7      -1.6411   3.0505  13.5042   S.3       4 RES4   1.0000
    49 S8      -2.9031   0.7864  12.2037   S.3       4 RES4   0.0000
    50 S9       1.2404   1.6502  13.1372   S.3       4 RES4   0.0000
    51 S10     -0.0425  -0.6555  11.9156   S.3       4 RES4   0.0000
    52 C16     -1.4455   1.5311  12.7727   C.2       4 RES4   0.0000
    53 C17     -0.2146   0.8933  12.6313   C.2       4 RES4   0.0000
    54 C18     -3.3530   3.1128  13.3104   C.2       4 RES4   0.0000
    55 H7      -3.8580   3.8350  13.6072   H         4 RES4   0.0000
    56 C19     -3.9043   2.0675  12.7151   C.2       4 RES4   0.0000
    57 H8      -4.8236   2.0337  12.5789   H         4 RES4   0.0000
    58 C20      2.2431   0.3506  12.6505   C.2       4 RES4   0.0000
    59 H9       3.1650   0.3801  12.7674   H         4 RES4   0.0000
    60 C21      1.6583  -0.6906  12.1058   C.2       4 RES4   0.0000
    61 H10      2.1542  -1.4276  11.8317   H         4 RES4   0.0000
    62 S11     -1.0450   4.6170  10.7023   S.3       5 RES5   1.0000
    63 S12     -2.2384   2.4902   9.1244   S.3       5 RES5   0.0000
    64 S13      1.8398   3.3654  10.3671   S.3       5 RES5   0.0000
    65 S14      0.7703   1.1207   8.8843   S.3       5 RES5   0.0000
    66 C22     -0.8158   3.1825   9.7943   C.2       5 RES5   0.0000
    67 C23      0.4502   2.6102   9.6738   C.2       5 RES5   0.0000
    68 C24     -2.7514   4.6755  10.4489   C.2       5 RES5   0.0000
    69 H11     -3.2708   5.3597  10.8068   H         5 RES5   0.0000
    70 C25     -3.2925   3.7062   9.7244   C.2       5 RES5   0.0000
    71 H12     -4.2054   3.6851   9.5481   H         5 RES5   0.0000
    72 C26      2.9398   2.1371   9.9112   C.2       5 RES5   0.0000
    73 H13      3.8437   2.1920  10.1225   H         5 RES5   0.0000
    74 C27      2.4485   1.1087   9.2461   C.2       5 RES5   0.0000
    75 H14      2.9927   0.4012   8.9842   H         5 RES5   0.0000
    76 O13     -3.4837   3.2902   3.6680   O.3       6 RES6   0.0000
    77 O14     -3.5276   5.0155   6.3881   O.3       7 RES7   0.0000
@<TRIPOS>BOND
     1     1     2    1
     2     2    14    1
     3     3     1    1
     4     4     1    1
     5     5     1    1
     6     6     1    1
     7     7     1    1
     8     8    14    2
     9     9    15    2
    10    10    16    2
    11    11    17    2
    12    12    18    2
    13    13    19    2
    14    14    15    1
    15    15     3    1
    16    16     4    1
    17    17     5    1
    18    18     6    1
    19    19     7    1
    20    16    17    1
    21    18    19    1
    22    20    22    1
    23    21    22    1
    24    22    27    2
    25    23    20    1
    26    24    23    1
    27    25    21    1
    28    26    25    1
    29    27    28    1
    30    28    29    1
    31    29    30    1
    32    31    29    2
    33    32    27    1
    34    33    31    1
    35    23    25    2
    36    31    32    1
    37    34    38    1
    38    35    38    1
    39    36    39    1
    40    37    39    1
    41    38    39    2
    42    40    34    1
    43    41    40    1
    44    42    35    1
    45    43    42    1
    46    44    36    1
    47    45    44    1
    48    46    37    1
    49    47    46    1
    50    40    42    2
    51    44    46    2
    52    48    52    1
    53    49    52    1
    54    50    53    1
    55    51    53    1
    56    52    53    2
    57    54    48    1
    58    55    54    1
    59    56    49    1
    60    57    56    1
    61    58    50    1
    62    59    58    1
    63    60    51    1
    64    61    60    1
    65    54    56    2
    66    58    60    2
    67    62    66    1
    68    63    66    1
    69    64    67    1
    70    65    67    1
    71    66    67    2
    72    68    62    1
    73    69    68    1
    74    70    63    1
    75    71    70    1
    76    72    64    1
    77    73    72    1
    78    74    65    1
    79    75    74    1
    80    68    70    2
    81    72    74    2
@<TRIPOS>SUBSTRUCTURE
     1 RES1        1 GROUP             0 ****  ****    0  
     2 RES2       20 GROUP             0 ****  ****    0  
     3 RES3       34 GROUP             0 ****  ****    0  
     4 RES4       48 GROUP             0 ****  ****    0  
     5 RES5       62 GROUP             0 ****  ****    0  
     6 RES6       76 GROUP             0 ****  ****    0  
     7 RES7       77 GROUP             0 ****  ****    0  
@<TRIPOS>CRYSIN
   10.4870   21.1180   17.5140   90.0000   94.5600   90.0000    14     1
