@<TRIPOS>MOLECULE
DIQVEI
    75    82     1     0     0
SMALL
NO_CHARGES
****
Generated from the CSD

@<TRIPOS>ATOM
     1 Fe1      8.6800  13.4433   9.1108   Fe        1 RES1   0.0000
     2 O1       7.9089  12.8430   7.3294   O.3       1 RES1   0.0000
     3 O2       6.8744  14.0115   9.7440   O.3       1 RES1   0.0000
     4 O3       6.6662  18.1512   9.8183   O.3       1 RES1   0.0000
     5 O4       7.0029   8.7873   7.5383   O.3       1 RES1   0.0000
     6 O5       6.0294   6.6583   4.4287   O.2       1 RES1   0.0000
     7 O6       5.4351   6.9704   6.4886   O.2       1 RES1   0.0000
     8 O7       3.3496  20.0574  10.8363   O.2       1 RES1   0.0000
     9 O8       6.7375  12.4844   2.5257   O.2       1 RES1   0.0000
    10 O9       5.5030  20.1499  10.9205   O.2       1 RES1   0.0000
    11 O10      2.2021  14.0372  11.1760   O.2       1 RES1   0.0000
    12 O11      5.5970  10.7862   1.8115   O.2       1 RES1   0.0000
    13 O12      1.3140  15.8241  12.0111   O.2       1 RES1   0.0000
    14 N1       8.4340  11.6365   9.4686   N.2       1 RES1   0.0000
    15 N2       8.8762  15.2780   8.8892   N.2       1 RES1   0.0000
    16 N3       7.8150  16.0590   9.2746   N.2       1 RES1   0.0000
    17 N4      10.4717  13.5238   8.3805   N.ar      1 RES1   0.0000
    18 N5       9.2841  13.3757  10.9564   N.ar      1 RES1   0.0000
    19 N6       7.9587  10.8439   8.4567   N.2       1 RES1   0.0000
    20 N7       9.7342  13.0719  13.6887   N.ar      1 RES1   0.0000
    21 N8       4.4540  19.5283  10.8375   N.pl3     1 RES1   0.0000
    22 N9       2.2231  15.2328  11.4479   N.pl3     1 RES1   0.0000
    23 N10     13.0937  13.9012   7.5398   N.ar      1 RES1   0.0000
    24 N11      5.8887   7.3665   5.4227   N.pl3     1 RES1   0.0000
    25 N12      6.2354  11.3713   2.6796   N.pl3     1 RES1   0.0000
    26 C1       6.8291  15.2823   9.7207   C.2       1 RES1   0.0000
    27 C2       8.6041  11.1340  10.6551   C.2       1 RES1   0.0000
    28 C3       9.9904  15.8295   8.4955   C.2       1 RES1   0.0000
    29 C4      10.9884  14.7869   8.2298   C.ar      1 RES1   0.0000
    30 C5       7.7090  11.5846   7.3851   C.2       1 RES1   0.0000
    31 C6       5.6512  16.0123  10.2265   C.ar      1 RES1   0.0000
    32 C7       5.6559  17.4404  10.2627   C.ar      1 RES1   0.0000
    33 C8       9.2024  12.0695  12.9711   C.ar      1 RES1   0.0000
    34 C9       3.4176  15.9917  11.0827   C.ar      1 RES1   0.0000
    35 C10      4.5349  15.3104  10.6350   C.ar      1 RES1   0.0000
    36 H1       4.5340  14.3808  10.6093   H         1 RES1   0.0000
    37 C11      9.0464  12.1744  11.5832   C.ar      1 RES1   0.0000
    38 C12     12.3351  14.9585   7.8693   C.ar      1 RES1   0.0000
    39 C13      3.3832  17.3739  11.1665   C.ar      1 RES1   0.0000
    40 H2       2.6297  17.8175  11.4832   H         1 RES1   0.0000
    41 C14      6.9228  11.4350   5.0332   C.ar      1 RES1   0.0000
    42 H3       7.1113  12.3401   4.9324   H         1 RES1   0.0000
    43 C15      6.8135   9.4381   6.4133   C.ar      1 RES1   0.0000
    44 C16      6.0861   9.3746   4.0798   C.ar      1 RES1   0.0000
    45 H4       5.7480   8.9012   3.3543   H         1 RES1   0.0000
    46 C17      6.4189  10.7128   3.9690   C.ar      1 RES1   0.0000
    47 C18      6.2722   8.7700   5.2975   C.ar      1 RES1   0.0000
    48 C19      7.1467  10.8160   6.2447   C.ar      1 RES1   0.0000
    49 C20     11.2461  12.4866   8.0542   C.ar      1 RES1   0.0000
    50 H5      10.9150  11.6205   8.1262   H         1 RES1   0.0000
    51 C21      8.4056   9.6812  10.9419   C.3       1 RES1   0.0000
    52 H6       7.4806   9.5175  11.1397   H         1 RES1   0.0000
    53 H7       8.9437   9.4273  11.6952   H         1 RES1   0.0000
    54 H8       8.6650   9.1653  10.1749   H         1 RES1   0.0000
    55 C22      4.5012  18.0684  10.7652   C.ar      1 RES1   0.0000
    56 C23      9.8123  14.3606  11.6882   C.ar      1 RES1   0.0000
    57 H9      10.0059  15.1768  11.2868   H         1 RES1   0.0000
    58 C24      8.7538  10.8782  13.7694   C.3       1 RES1   0.0000
    59 H10      9.4283  10.1962  13.7330   H         1 RES1   0.0000
    60 H11      7.9343  10.5378  13.4032   H         1 RES1   0.0000
    61 H12      8.6121  11.1398  14.6822   H         1 RES1   0.0000
    62 C25     10.1428  17.3018   8.3419   C.3       1 RES1   0.0000
    63 H13      9.3004  17.6860   8.0884   H         1 RES1   0.0000
    64 H14     10.7960  17.4867   7.6630   H         1 RES1   0.0000
    65 H15     10.4305  17.6824   9.1749   H         1 RES1   0.0000
    66 C26     12.5430  12.6958   7.6081   C.ar      1 RES1   0.0000
    67 H16     13.0477  11.9600   7.3459   H         1 RES1   0.0000
    68 C27     13.0469  16.2798   7.8497   C.3       1 RES1   0.0000
    69 H17     13.9944  16.1337   7.8997   H         1 RES1   0.0000
    70 H18     12.7644  16.8067   8.6008   H         1 RES1   0.0000
    71 H19     12.8373  16.7443   7.0361   H         1 RES1   0.0000
    72 C28     10.0745  14.1840  13.0303   C.ar      1 RES1   0.0000
    73 H20     10.5048  14.8649  13.4952   H         1 RES1   0.0000
    74 H21      7.4429   9.4364   8.1422   H         1 RES1   0.0000
    75 H22      7.2967  17.5103   9.5033   H         1 RES1   0.0000
@<TRIPOS>BOND
     1     1     2    1
     2     2    30    1
     3     3     1    1
     4     4    32    1
     5     5    43    1
     6     6    24    2
     7     7    24    2
     8     8    21    2
     9     9    25    2
    10    10    21    2
    11    11    22    2
    12    12    25    2
    13    13    22    2
    14    14     1    1
    15    15     1    1
    16    16    15    1
    17    17     1    1
    18    18     1    1
    19    19    14    1
    20    20    33   ar
    21    21    55    1
    22    22    34    1
    23    23    38   ar
    24    24    47    1
    25    25    46    1
    26    26     3    1
    27    27    14    2
    28    28    15    2
    29    29    17   ar
    30    30    19    2
    31    31    26    1
    32    32    31   ar
    33    33    37   ar
    34    34    35   ar
    35    35    31   ar
    36    36    35    1
    37    37    18   ar
    38    38    29   ar
    39    39    34   ar
    40    40    39    1
    41    41    42    1
    42    43    47   ar
    43    44    45    1
    44    46    41   ar
    45    47    44   ar
    46    48    30    1
    47    49    17   ar
    48    50    49    1
    49    51    27    1
    50    52    51    1
    51    53    51    1
    52    54    51    1
    53    55    32   ar
    54    56    18   ar
    55    57    56    1
    56    58    33    1
    57    59    58    1
    58    60    58    1
    59    61    58    1
    60    62    28    1
    61    63    62    1
    62    64    62    1
    63    65    62    1
    64    66    23   ar
    65    67    66    1
    66    68    38    1
    67    69    68    1
    68    70    68    1
    69    71    68    1
    70    72    20   ar
    71    73    72    1
    72    74     5    1
    73    75     4    1
    74    16    26    2
    75    27    37    1
    76    28    29    1
    77    39    55   ar
    78    41    48   ar
    79    43    48   ar
    80    44    46   ar
    81    49    66   ar
    82    56    72   ar
@<TRIPOS>SUBSTRUCTURE
     1 RES1        1 GROUP             0 ****  ****    0  
@<TRIPOS>CRYSIN
   11.6008   21.4561   12.1851   90.0000   94.1900   90.0000   231     1
