@<TRIPOS>MOLECULE
DIQVEI01
    75    82     1     0     0
SMALL
NO_CHARGES
****
Generated from the CSD

@<TRIPOS>ATOM
     1 Fe1      2.0728   8.0408   3.0527   Fe        1 RES1   0.0000
     2 O1       2.8513   8.6443   4.8305   O.3       1 RES1   0.0000
     3 O2       3.8791   7.4688   2.4201   O.3       1 RES1   0.0000
     4 O3       3.7420  12.7081   4.6248   O.3       1 RES1   0.0000
     5 O4       4.0872   3.3234   2.3472   O.3       1 RES1   0.0000
     6 O5       4.7160  14.8394   7.7362   O.2       1 RES1   0.0000
     7 O6       8.5467   7.4479   0.9587   O.2       1 RES1   0.0000
     8 O7       5.3051  14.5340   5.6754   O.2       1 RES1   0.0000
     9 O8       7.4085   1.4150   1.3350   O.2       1 RES1   0.0000
    10 O9       5.2625   1.3211   1.2594   O.2       1 RES1   0.0000
    11 O10      5.1581  10.7060  10.3466   O.2       1 RES1   0.0000
    12 O11      4.0462   8.9934   9.6239   O.2       1 RES1   0.0000
    13 O12      9.4722   5.6459   0.2369   O.2       1 RES1   0.0000
    14 N1       1.8745   6.2037   3.2761   N.2       1 RES1   0.0000
    15 N2       2.3219   9.8543   2.6904   N.2       1 RES1   0.0000
    16 N3       2.7991  10.6438   3.7014   N.2       1 RES1   0.0000
    17 N4       1.4635   8.1048   1.2086   N.ar      1 RES1   0.0000
    18 N5       2.9349   5.4219   2.8906   N.2       1 RES1   0.0000
    19 N6       0.2774   7.9687   3.7844   N.ar      1 RES1   0.0000
    20 N7      -2.3447   7.5998   4.6340   N.ar      1 RES1   0.0000
    21 N8       8.5441   6.2447   0.7428   N.pl3     1 RES1   0.0000
    22 N9       6.3060   1.9444   1.3380   N.pl3     1 RES1   0.0000
    23 N10      4.5333  10.1116   9.4755   N.pl3     1 RES1   0.0000
    24 N11      4.8551  14.1328   6.7410   N.pl3     1 RES1   0.0000
    25 N12      0.9789   8.4111  -1.5143   N.ar      1 RES1   0.0000
    26 C1       3.0513   9.9031   4.7742   C.2       1 RES1   0.0000
    27 C2       5.0997   4.0341   1.9078   C.ar      1 RES1   0.0000
    28 C3       5.1048   5.4616   1.9390   C.ar      1 RES1   0.0000
    29 C4       3.9215   6.1949   2.4451   C.2       1 RES1   0.0000
    30 C5       0.7525   5.6582   3.6695   C.2       1 RES1   0.0000
    31 C6      -0.2392   6.7036   3.9390   C.ar      1 RES1   0.0000
    32 C7       2.1394  10.3515   1.5022   C.2       1 RES1   0.0000
    33 C8       3.9391  12.0571   5.7460   C.ar      1 RES1   0.0000
    34 C9       3.8427  10.0481   7.1238   C.ar      1 RES1   0.0000
    35 H1       3.6613   9.1412   7.2224   H         1 RES1   0.0000
    36 C10      4.3437  10.7758   8.1904   C.ar      1 RES1   0.0000
    37 C11      1.6900   9.3098   0.5830   C.ar      1 RES1   0.0000
    38 C12      1.5103   9.4192  -0.8043   C.ar      1 RES1   0.0000
    39 C13      3.6132  10.6720   5.9131   C.ar      1 RES1   0.0000
    40 C14      4.6709  12.1178   8.0796   C.ar      1 RES1   0.0000
    41 H2       5.0085  12.5912   8.8054   H         1 RES1   0.0000
    42 C15     -1.5872   6.5380   4.3134   C.ar      1 RES1   0.0000
    43 C16      6.2229   6.1706   1.5340   C.ar      1 RES1   0.0000
    44 H3       6.2209   7.1004   1.5545   H         1 RES1   0.0000
    45 C17      4.4806  12.7256   6.8639   C.ar      1 RES1   0.0000
    46 C18      7.3461   5.4840   1.0975   C.ar      1 RES1   0.0000
    47 C19      0.9332   7.1137   0.4828   C.ar      1 RES1   0.0000
    48 H4       0.7493   6.2958   0.8856   H         1 RES1   0.0000
    49 C20     -0.4949   9.0096   4.1108   C.ar      1 RES1   0.0000
    50 H5      -0.1617   9.8745   4.0360   H         1 RES1   0.0000
    51 C21      7.3831   4.1019   1.0192   C.ar      1 RES1   0.0000
    52 H6       8.1405   3.6587   0.7111   H         1 RES1   0.0000
    53 C22      6.2613   3.4046   1.4127   C.ar      1 RES1   0.0000
    54 C23      0.6559   7.2924  -0.8583   C.ar      1 RES1   0.0000
    55 H7       0.2286   6.6091  -1.3222   H         1 RES1   0.0000
    56 C24      2.3447  11.8055   1.2152   C.3       1 RES1   0.0000
    57 H8       3.2663  11.9614   0.9959   H         1 RES1   0.0000
    58 H9       2.1085  12.3211   1.9898   H         1 RES1   0.0000
    59 H10      1.7911  12.0670   0.4758   H         1 RES1   0.0000
    60 C25      0.5901   4.1827   3.8091   C.3       1 RES1   0.0000
    61 H11      0.2514   3.8189   2.9877   H         1 RES1   0.0000
    62 H12     -0.0263   3.9944   4.5205   H         1 RES1   0.0000
    63 H13      1.4405   3.7846   4.0087   H         1 RES1   0.0000
    64 C26     -1.7892   8.8056   4.5602   C.ar      1 RES1   0.0000
    65 H14     -2.2913   9.5436   4.8213   H         1 RES1   0.0000
    66 C27      1.9293  10.6192  -1.6047   C.3       1 RES1   0.0000
    67 H15      1.2558  11.3000  -1.5374   H         1 RES1   0.0000
    68 H16      2.0394  10.3678  -2.5246   H         1 RES1   0.0000
    69 H17      2.7608  10.9570  -1.2637   H         1 RES1   0.0000
    70 C28     -2.3030   5.2145   4.3505   C.3       1 RES1   0.0000
    71 H18     -2.0619   4.6986   3.5777   H         1 RES1   0.0000
    72 H19     -3.2514   5.3636   4.3527   H         1 RES1   0.0000
    73 H20     -2.0523   4.7372   5.1448   H         1 RES1   0.0000
    74 H21      3.3067  12.0607   4.0134   H         1 RES1   0.0000
    75 H22      3.4020   4.0253   2.6148   H         1 RES1   0.0000
@<TRIPOS>BOND
     1     1     2    1
     2     2    26    1
     3     3     1    1
     4     4    33    1
     5     5    27    1
     6     6    24    2
     7     7    21    2
     8     8    24    2
     9     9    22    2
    10    10    22    2
    11    11    23    2
    12    12    23    2
    13    13    21    2
    14    14     1    1
    15    15     1    1
    16    16    15    1
    17    17     1    1
    18    18    14    1
    19    19     1    1
    20    20    42   ar
    21    21    46    1
    22    22    53    1
    23    23    36    1
    24    24    45    1
    25    25    38   ar
    26    26    16    2
    27    27    28   ar
    28    28    29    1
    29    29     3    1
    30    30    14    2
    31    31    19   ar
    32    32    15    2
    33    33    39   ar
    34    34    35    1
    35    36    34   ar
    36    37    17   ar
    37    38    37   ar
    38    39    26    1
    39    40    36   ar
    40    41    40    1
    41    42    31   ar
    42    43    28   ar
    43    44    43    1
    44    45    33   ar
    45    46    43   ar
    46    47    17   ar
    47    48    47    1
    48    49    19   ar
    49    50    49    1
    50    51    46   ar
    51    52    51    1
    52    53    27   ar
    53    54    25   ar
    54    55    54    1
    55    56    32    1
    56    57    56    1
    57    58    56    1
    58    59    56    1
    59    60    30    1
    60    61    60    1
    61    62    60    1
    62    63    60    1
    63    64    20   ar
    64    65    64    1
    65    66    38    1
    66    67    66    1
    67    68    66    1
    68    69    66    1
    69    70    42    1
    70    71    70    1
    71    72    70    1
    72    73    70    1
    73    74     4    1
    74    75     5    1
    75    18    29    2
    76    30    31    1
    77    32    37    1
    78    34    39   ar
    79    40    45   ar
    80    47    54   ar
    81    49    64   ar
    82    51    53   ar
@<TRIPOS>SUBSTRUCTURE
     1 RES1        1 GROUP             0 ****  ****    0  
@<TRIPOS>CRYSIN
   11.6620   21.5370   12.1900   90.0000   93.8990   90.0000   231     1
