@<TRIPOS>MOLECULE
DIQVOS
    75    82     1     0     0
SMALL
USER_CHARGES
****
Generated from the CSD

@<TRIPOS>ATOM
     1 Fe1      8.7904   8.0051   2.3975   Fe        1 RES1   2.0000
     2 O1       7.0639   8.9526   3.2189   O.2       1 RES1   0.0000
     3 O2       7.7018  12.8375   4.4492   O.3       1 RES1  -1.0000
     4 O3       9.5592   3.0135   4.2989   O.3       1 RES1  -1.0000
     5 O4      10.6451   0.9758   5.5299   O.2       1 RES1   0.0000
     6 O5      10.9397   7.0945   8.7919   O.2       1 RES1   0.0000
     7 O6       2.4250   9.5449   4.7573   O.2       1 RES1   0.0000
     8 O7       9.4985   7.1423   4.1714   O.2       1 RES1   0.0000
     9 O8       1.7870  11.3831   5.6760   O.2       1 RES1   0.0000
    10 O9      10.4106   1.0665   7.6519   O.2       1 RES1   0.0000
    11 O10      6.7500  14.8956   5.6953   O.2       1 RES1   0.0000
    12 O11     11.5543   5.3003   9.7188   O.2       1 RES1   0.0000
    13 O12      4.6889  15.1938   5.6146   O.2       1 RES1   0.0000
    14 N1       8.0024   7.6838   0.4057   N.ar      1 RES1   0.0000
    15 N2       9.3626   9.9944   2.7430   N.2       1 RES1   0.0000
    16 N3      10.8312   8.3027   1.5793   N.ar      1 RES1   0.0000
    17 N4       8.4439  10.7388   3.4219   N.am      1 RES1   0.0000
    18 N5       8.7155   5.9261   2.0625   N.2       1 RES1   0.0000
    19 N6       9.0789   5.1538   3.1291   N.am      1 RES1   0.0000
    20 N7       5.6442  14.4822   5.5103   N.pl3     1 RES1   0.0000
    21 N8       2.6446  10.6810   5.1501   N.pl3     1 RES1   0.0000
    22 N9      13.3512   8.8476   0.6004   N.ar      1 RES1   0.0000
    23 N10      7.2699   7.1780  -2.1991   N.ar      1 RES1   0.0000
    24 N11     11.0878   5.8932   8.7872   N.pl3     1 RES1   0.0000
    25 N12     10.4963   1.5971   6.5614   N.pl3     1 RES1   0.0000
    26 C1       6.2293  10.9747   4.2198   C.ar      1 RES1   0.0000
    27 C2       6.5435  12.3372   4.6039   C.ar      1 RES1   0.0000
    28 C3       7.2624  10.1363   3.5832   C.2       1 RES1   0.0000
    29 C4       7.9291   6.4076  -0.0497   C.ar      1 RES1   0.0000
    30 C5      11.4245   9.4912   1.8379   C.ar      1 RES1   0.0000
    31 C6       9.4889   5.8837   4.1736   C.2       1 RES1   0.0000
    32 C7      10.4163   3.0630   6.5118   C.ar      1 RES1   0.0000
    33 C8       5.4500  13.0778   5.1539   C.ar      1 RES1   0.0000
    34 C9      10.5736  10.4205   2.6255   C.2       1 RES1   0.0000
    35 C10      9.9438   5.1202   5.3453   C.ar      1 RES1   0.0000
    36 C11      4.9727  10.4484   4.4251   C.ar      1 RES1   0.0000
    37 H1       4.7965   9.5634   4.1998   H         1 RES1   0.0000
    38 C12      8.2309   5.3929   0.9915   C.2       1 RES1   0.0000
    39 C13      9.9607   3.6837   5.3151   C.ar      1 RES1   0.0000
    40 C14      4.2005  12.5519   5.3313   C.ar      1 RES1   0.0000
    41 H2       3.5166  13.0695   5.6908   H         1 RES1   0.0000
    42 C15      3.9704  11.2389   4.9678   C.ar      1 RES1   0.0000
    43 C16     12.7034   9.7682   1.3359   C.ar      1 RES1   0.0000
    44 C17      7.6985   8.6726  -0.4244   C.ar      1 RES1   0.0000
    45 H3       7.7514   9.5535  -0.1313   H         1 RES1   0.0000
    46 C18     10.3123   5.8235   6.4753   C.ar      1 RES1   0.0000
    47 H4      10.2870   6.7532   6.4753   H         1 RES1   0.0000
    48 C19     10.7731   3.7536   7.6311   C.ar      1 RES1   0.0000
    49 H5      11.0477   3.3037   8.3974   H         1 RES1   0.0000
    50 C20      7.5974   6.1588  -1.3897   C.ar      1 RES1   0.0000
    51 C21     10.7193   5.1401   7.6075   C.ar      1 RES1   0.0000
    52 C22     11.4919   7.4092   0.8475   C.ar      1 RES1   0.0000
    53 H6      11.1002   6.5868   0.6597   H         1 RES1   0.0000
    54 C23      7.9477   3.9380   0.8670   C.3       1 RES1   0.0000
    55 H7       8.7167   3.4922   0.5045   H         1 RES1   0.0000
    56 H8       7.1970   3.8070   0.2831   H         1 RES1   0.0000
    57 H9       7.7465   3.5759   1.7330   H         1 RES1   0.0000
    58 C24      7.3079   8.4068  -1.7087   C.ar      1 RES1   0.0000
    59 H10      7.0594   9.1157  -2.2571   H         1 RES1   0.0000
    60 C25     12.7502   7.6914   0.3664   C.ar      1 RES1   0.0000
    61 H11     13.1927   7.0488  -0.1400   H         1 RES1   0.0000
    62 C26     13.4506  11.0600   1.4898   C.3       1 RES1   0.0000
    63 H12     13.7999  11.1235   2.3815   H         1 RES1   0.0000
    64 H13     12.8555  11.7954   1.3260   H         1 RES1   0.0000
    65 H14     14.1745  11.0879   0.8597   H         1 RES1   0.0000
    66 C27     11.0354  11.6856   3.2665   C.3       1 RES1   0.0000
    67 H15     10.9408  12.4119   2.6459   H         1 RES1   0.0000
    68 H16     11.9575  11.5985   3.5189   H         1 RES1   0.0000
    69 H17     10.5052  11.8608   4.0474   H         1 RES1   0.0000
    70 C28      7.6039   4.8162  -2.0660   C.3       1 RES1   0.0000
    71 H18      6.8016   4.3400  -1.8397   H         1 RES1   0.0000
    72 H19      8.3676   4.3139  -1.7730   H         1 RES1   0.0000
    73 H20      7.6463   4.9374  -3.0174   H         1 RES1   0.0000
    74 H21      8.4320  11.5692   3.6402   H         1 RES1   0.0000
    75 H22      9.2286   4.1226   3.3268   H         1 RES1   0.0000
@<TRIPOS>BOND
     1     1     2    1
     2     2    28    2
     3     3    27    1
     4     4    39    1
     5     5    25    2
     6     6    24    2
     7     7    21    2
     8     8     1    1
     9     9    21    2
    10    10    25    2
    11    11    20    2
    12    12    24    2
    13    13    20    2
    14    14     1    1
    15    15     1    1
    16    16     1    1
    17    17    15    1
    18    18     1    1
    19    19    18    1
    20    20    33    1
    21    21    42    1
    22    22    43   ar
    23    23    50   ar
    24    24    51    1
    25    25    32    1
    26    26    27   ar
    27    27    33   ar
    28    28    17   am
    29    29    14   ar
    30    30    16   ar
    31    31     8    2
    32    32    39   ar
    33    33    40   ar
    34    34    15    2
    35    35    31    1
    36    36    26   ar
    37    37    36    1
    38    38    18    2
    39    39    35   ar
    40    40    41    1
    41    42    36   ar
    42    43    30   ar
    43    44    14   ar
    44    45    44    1
    45    46    35   ar
    46    47    46    1
    47    48    32   ar
    48    49    48    1
    49    50    29   ar
    50    51    46   ar
    51    52    16   ar
    52    53    52    1
    53    54    38    1
    54    55    54    1
    55    56    54    1
    56    57    54    1
    57    58    23   ar
    58    59    58    1
    59    60    22   ar
    60    61    60    1
    61    62    43    1
    62    63    62    1
    63    64    62    1
    64    65    62    1
    65    66    34    1
    66    67    66    1
    67    68    66    1
    68    69    66    1
    69    70    50    1
    70    71    70    1
    71    72    70    1
    72    73    70    1
    73    74    17    1
    74    75    19    1
    75    19    31   am
    76    26    28    1
    77    29    38    1
    78    30    34    1
    79    40    42   ar
    80    44    58   ar
    81    48    51   ar
    82    52    60   ar
@<TRIPOS>SUBSTRUCTURE
     1 RES1        1 GROUP             0 ****  ****    0  
@<TRIPOS>CRYSIN
   12.0424   21.6408   12.0538   90.0000   90.3430   90.0000   231     1
