@<TRIPOS>MOLECULE
DIQWAF01
    75    83     1     0     0
SMALL
USER_CHARGES
****
Generated from the CSD

@<TRIPOS>ATOM
     1 Fe1      3.2010   7.8696   9.7012   Fe        1 RES1   1.0000
     2 O1       4.9119   8.8339   8.8482   O.2       1 RES1   0.0000
     3 O2       2.5191   7.0332   7.9115   O.2       1 RES1   0.0000
     4 O3       4.1431  12.6559   7.4734   O.3       1 RES1  -1.0000
     5 O4       2.3593   2.9072   7.7812   O.3       1 RES1   0.0000
     6 O5       1.5838   1.0072   4.3754   O.2       1 RES1   0.0000
     7 O6       1.2566   0.8962   6.5123   O.2       1 RES1   0.0000
     8 O7       7.0917  15.0771   6.2792   O.2       1 RES1   0.0000
     9 O8       9.5467   9.5411   7.3127   O.2       1 RES1   0.0000
    10 O9      10.0979  11.3435   6.2440   O.2       1 RES1   0.0000
    11 N1       2.8951   5.0218   8.9430   N.am      1 RES1   0.0000
    12 O10      1.1248   7.0349   3.2669   O.2       1 RES1   0.0000
    13 N2       2.5926   9.8482   9.3204   N.2       1 RES1   0.0000
    14 O11      5.0014  14.6321   5.9672   O.2       1 RES1   0.0000
    15 N3       3.4817  10.5814   8.5983   N.am      1 RES1   0.0000
    16 N4       3.2493   5.7847  10.0211   N.2       1 RES1   0.0000
    17 O12      0.1494   5.2842   2.4520   O.2       1 RES1   0.0000
    18 N5       1.1588   8.1457  10.5253   N.ar      1 RES1   0.0000
    19 N6       3.9875   7.5331  11.6862   N.ar      1 RES1   0.0000
    20 N7      -1.3431   8.7244  11.5652   N.ar      1 RES1   0.0000
    21 N8       1.4518   1.5259   5.4798   N.pl3     1 RES1   0.0000
    22 N9       4.7261   6.9773  14.3014   N.ar      1 RES1   0.0000
    23 N10      6.1385  14.3058   6.2968   N.pl3     1 RES1   0.0000
    24 N11      0.8180   5.8462   3.3135   N.pl3     1 RES1   0.0000
    25 N12      9.2771  10.6481   6.8374   N.pl3     1 RES1   0.0000
    26 C1       0.5456   9.3242  10.2420   C.ar      1 RES1   0.0000
    27 C2       2.5056   5.7730   7.9049   C.2       1 RES1   0.0000
    28 C3      -0.7169   9.6173  10.7828   C.ar      1 RES1   0.0000
    29 C4       5.6808  10.8451   7.7576   C.ar      1 RES1   0.0000
    30 C5       6.9605  10.3544   7.5735   C.ar      1 RES1   0.0000
    31 H1       7.1699   9.4870   7.8348   H         1 RES1   0.0000
    32 C6       4.0592   6.2496  12.1278   C.ar      1 RES1   0.0000
    33 C7       4.6836  10.0055   8.4389   C.2       1 RES1   0.0000
    34 C8       3.7726   5.2432  11.0700   C.2       1 RES1   0.0000
    35 C9       1.5293   2.9824   5.5548   C.ar      1 RES1   0.0000
    36 C10      1.2270   5.0702   4.4730   C.ar      1 RES1   0.0000
    37 C11      1.3618  10.2285   9.3959   C.2       1 RES1   0.0000
    38 C12      7.9287  11.1588   6.9979   C.ar      1 RES1   0.0000
    39 C13      5.3160  12.1810   7.3215   C.ar      1 RES1   0.0000
    40 C14      4.1222   3.8015  11.1681   C.3       1 RES1   0.0000
    41 H2       3.3709   3.3124  11.5113   H         1 RES1   0.0000
    42 H3       4.8715   3.6930  11.7581   H         1 RES1   0.0000
    43 H4       4.3500   3.4679  10.2969   H         1 RES1   0.0000
    44 C15      4.3093   8.5051  12.5323   C.ar      1 RES1   0.0000
    45 H5       4.2665   9.3908  12.2519   H         1 RES1   0.0000
    46 C16      2.0373   5.0267   6.7322   C.ar      1 RES1   0.0000
    47 C17      1.1536   3.6885   4.4359   C.ar      1 RES1   0.0000
    48 H6       0.8572   3.2481   3.6723   H         1 RES1   0.0000
    49 C18      6.3795  12.9309   6.7251   C.ar      1 RES1   0.0000
    50 C19      1.9819   3.5980   6.7526   C.ar      1 RES1   0.0000
    51 C20      7.6538  12.4507   6.5731   C.ar      1 RES1   0.0000
    52 H7       8.3193  12.9785   6.1946   H         1 RES1   0.0000
    53 C21     -1.4594  10.9107  10.6117   C.3       1 RES1   0.0000
    54 H8      -1.9405  10.8964   9.7818   H         1 RES1   0.0000
    55 H9      -0.8343  11.6397  10.6073   H         1 RES1   0.0000
    56 H10     -2.0765  11.0234  11.3384   H         1 RES1   0.0000
    57 C22      1.6706   5.7367   5.6050   C.ar      1 RES1   0.0000
    58 H11      1.7214   6.6652   5.6062   H         1 RES1   0.0000
    59 C23      4.7067   8.2177  13.8247   C.ar      1 RES1   0.0000
    60 H12      4.9699   8.9161  14.3790   H         1 RES1   0.0000
    61 C24     -0.7258   7.5692  11.8131   C.ar      1 RES1   0.0000
    62 H13     -1.1519   6.9367  12.3461   H         1 RES1   0.0000
    63 C25      4.3730   5.9745  13.4705   C.ar      1 RES1   0.0000
    64 C26      0.5250   7.2813  11.3058   C.ar      1 RES1   0.0000
    65 H14      0.9285   6.4699  11.5142   H         1 RES1   0.0000
    66 C27      4.3221   4.6246  14.1250   C.3       1 RES1   0.0000
    67 H15      5.1434   4.1569  13.9583   H         1 RES1   0.0000
    68 H16      3.5882   4.1216  13.7639   H         1 RES1   0.0000
    69 H17      4.2011   4.7323  15.0712   H         1 RES1   0.0000
    70 C28      0.8434  11.4276   8.6696   C.3       1 RES1   0.0000
    71 H18      0.9607  12.2082   9.2160   H         1 RES1   0.0000
    72 H19     -0.0897  11.3078   8.4789   H         1 RES1   0.0000
    73 H20      1.3266  11.5373   7.8472   H         1 RES1   0.0000
    74 H21      3.4549  11.4793   8.2687   H         1 RES1   0.0000
    75 H22      2.6976   3.7795   8.6397   H         1 RES1   0.0000
@<TRIPOS>BOND
     1     1     2    1
     2     2    33    2
     3     3     1    1
     4     4    39    1
     5     5    50    1
     6     6    21    2
     7     7    21    2
     8     8    23    2
     9     9    25    2
    10    10    25    2
    11    11    16    1
    12    12    24    2
    13    13     1    1
    14    14    23    2
    15    15    13    1
    16    16     1    1
    17    17    24    2
    18    18     1    1
    19    19     1    1
    20    20    28   ar
    21    21    35    1
    22    22    59   ar
    23    23    49    1
    24    24    36    1
    25    25    38    1
    26    26    18   ar
    27    27     3    2
    28    28    26   ar
    29    29    30   ar
    30    30    31    1
    31    32    19   ar
    32    33    15   am
    33    34    16    2
    34    35    47   ar
    35    36    47   ar
    36    37    13    2
    37    38    30   ar
    38    39    29   ar
    39    40    34    1
    40    41    40    1
    41    42    40    1
    42    43    40    1
    43    44    19   ar
    44    45    44    1
    45    46    27    1
    46    47    48    1
    47    49    39   ar
    48    50    35   ar
    49    51    38   ar
    50    52    51    1
    51    53    28    1
    52    54    53    1
    53    55    53    1
    54    56    53    1
    55    57    36   ar
    56    58    57    1
    57    59    44   ar
    58    60    59    1
    59    61    20   ar
    60    62    61    1
    61    63    22   ar
    62    64    18   ar
    63    65    64    1
    64    66    63    1
    65    67    66    1
    66    68    66    1
    67    69    66    1
    68    70    37    1
    69    71    70    1
    70    72    70    1
    71    73    70    1
    72    74    15    1
    73    75     5    1
    74    11    27   am
    75    11    75    1
    76    26    37    1
    77    29    33    1
    78    32    34    1
    79    32    63   ar
    80    46    50   ar
    81    46    57   ar
    82    49    51   ar
    83    61    64   ar
@<TRIPOS>SUBSTRUCTURE
     1 RES1        1 GROUP             0 ****  ****    0  
@<TRIPOS>CRYSIN
   11.8330   21.3529   11.9663   90.0000   90.0020   90.0000   231     1
