@<TRIPOS>MOLECULE
DIQWAF
    75    83     1     0     0
SMALL
USER_CHARGES
****
Generated from the CSD

@<TRIPOS>ATOM
     1 Fe1      8.7613   8.0011   2.3841   Fe        1 RES1   1.0000
     2 O1       7.0444   8.9510   3.2048   O.2       1 RES1   0.0000
     3 O2       7.6861  12.8337   4.4456   O.3       1 RES1  -1.0000
     4 O3       9.5285   3.0073   4.2726   O.3       1 RES1   0.0000
     5 O4      10.6129   0.9628   5.5111   O.2       1 RES1   0.0000
     6 O5      10.8986   7.0855   8.7687   O.2       1 RES1   0.0000
     7 O6       2.4070   9.5605   4.7339   O.2       1 RES1   0.0000
     8 O7       9.4846   7.1421   4.1453   O.2       1 RES1   0.0000
     9 O8       1.7926  11.3843   5.6468   O.2       1 RES1   0.0000
    10 O9      10.3849   1.0709   7.6192   O.2       1 RES1   0.0000
    11 O10      6.7465  14.8935   5.6816   O.2       1 RES1   0.0000
    12 O11     11.5320   5.3244   9.6804   O.2       1 RES1   0.0000
    13 O12      4.6987  15.1899   5.6060   O.2       1 RES1   0.0000
    14 N1       7.9722   7.6774   0.3895   N.ar      1 RES1   0.0000
    15 N2       9.3344   9.9960   2.7329   N.2       1 RES1   0.0000
    16 N3      10.7995   8.2966   1.5607   N.ar      1 RES1   0.0000
    17 N4       8.4239  10.7418   3.4081   N.am      1 RES1   0.0000
    18 H1       8.4111  11.8019   3.7657   H         1 RES1   0.0000
    19 N5       8.6928   5.9111   2.0490   N.2       1 RES1   0.0000
    20 N6       9.0448   5.1448   3.1081   N.am      1 RES1   0.0000
    21 N7       5.6410  14.4777   5.5015   N.pl3     1 RES1   0.0000
    22 N8       2.6405  10.6797   5.1363   N.pl3     1 RES1   0.0000
    23 N9      13.3010   8.8478   0.5838   N.ar      1 RES1   0.0000
    24 N10      7.2436   7.1662  -2.2006   N.ar      1 RES1   0.0000
    25 N11     11.0594   5.8960   8.7567   N.pl3     1 RES1   0.0000
    26 N12     10.4684   1.5951   6.5381   N.pl3     1 RES1   0.0000
    27 C1       6.2209  10.9702   4.2102   C.ar      1 RES1   0.0000
    28 C2       6.5313  12.3326   4.5922   C.ar      1 RES1   0.0000
    29 C3       7.2433  10.1310   3.5687   C.2       1 RES1   0.0000
    30 C4       7.8913   6.4007  -0.0541   C.ar      1 RES1   0.0000
    31 C5      11.3884   9.4826   1.8270   C.ar      1 RES1   0.0000
    32 C6       9.4629   5.8821   4.1597   C.2       1 RES1   0.0000
    33 C7      10.3882   3.0598   6.4840   C.ar      1 RES1   0.0000
    34 C8       5.4444  13.0823   5.1459   C.ar      1 RES1   0.0000
    35 C9      10.5453  10.4105   2.6138   C.2       1 RES1   0.0000
    36 C10      9.9142   5.1149   5.3189   C.ar      1 RES1   0.0000
    37 C11      4.9579  10.4389   4.4072   C.ar      1 RES1   0.0000
    38 H2       4.7574   9.4242   4.1357   H         1 RES1   0.0000
    39 C12      8.1955   5.3860   0.9790   C.2       1 RES1   0.0000
    40 C13      9.9347   3.6775   5.2924   C.ar      1 RES1   0.0000
    41 C14      4.1851  12.5608   5.3189   C.ar      1 RES1   0.0000
    42 H3       3.4083  13.1476   5.7501   H         1 RES1   0.0000
    43 C15      3.9647  11.2428   4.9489   C.ar      1 RES1   0.0000
    44 C16     12.6622   9.7619   1.3213   C.ar      1 RES1   0.0000
    45 C17      7.6588   8.6713  -0.4288   C.ar      1 RES1   0.0000
    46 H4       7.7005   9.6817  -0.0492   H         1 RES1   0.0000
    47 C18     10.2852   5.8350   6.4516   C.ar      1 RES1   0.0000
    48 H5      10.2265   6.8864   6.4216   H         1 RES1   0.0000
    49 C19     10.7449   3.7485   7.6107   C.ar      1 RES1   0.0000
    50 H6      11.0904   3.2215   8.4984   H         1 RES1   0.0000
    51 C20      7.5679   6.1513  -1.3946   C.ar      1 RES1   0.0000
    52 C21     10.6946   5.1370   7.5723   C.ar      1 RES1   0.0000
    53 C22     11.4427   7.3970   0.8372   C.ar      1 RES1   0.0000
    54 H7      10.9864   6.4624   0.6402   H         1 RES1   0.0000
    55 C23      7.9044   3.9326   0.8685   C.3       1 RES1   0.0000
    56 H8       7.6896   3.5460   1.7778   H         1 RES1   0.0000
    57 H9       8.7254   3.4010   0.4937   H         1 RES1   0.0000
    58 H10      7.0585   3.7277   0.2775   H         1 RES1   0.0000
    59 C24      7.2741   8.4052  -1.7261   C.ar      1 RES1   0.0000
    60 H11      6.9996   9.1927  -2.3760   H         1 RES1   0.0000
    61 C25     12.7009   7.6783   0.3495   C.ar      1 RES1   0.0000
    62 H12     13.2372   6.9621  -0.2486   H         1 RES1   0.0000
    63 C26     13.4151  11.0576   1.4618   C.3       1 RES1   0.0000
    64 H13     12.8266  11.8971   1.3033   H         1 RES1   0.0000
    65 H14     13.8671  11.1420   2.4312   H         1 RES1   0.0000
    66 C27     11.0143  11.6634   3.2600   C.3       1 RES1   0.0000
    67 H15     10.9112  12.4726   2.6402   H         1 RES1   0.0000
    68 H16     10.4911  11.8257   4.1609   H         1 RES1   0.0000
    69 H17     11.9848  11.6050   3.5976   H         1 RES1   0.0000
    70 C28      7.5790   4.8160  -2.0600   C.3       1 RES1   0.0000
    71 H18      6.7034   4.2643  -1.8306   H         1 RES1   0.0000
    72 H19      8.4094   4.2210  -1.7958   H         1 RES1   0.0000
    73 H20      7.6468   4.9890  -3.1027   H         1 RES1   0.0000
    74 H21     14.1246  11.0641   0.7519   H         1 RES1   0.0000
    75 H22      9.2190   3.9441   3.3537   H         1 RES1   0.0000
@<TRIPOS>BOND
     1     1     2    1
     2     2    29    2
     3     3    28    1
     4     4    40    1
     5     5    26    2
     6     6    25    2
     7     7    22    2
     8     8     1    1
     9     9    22    2
    10    10    26    2
    11    11    21    2
    12    12    25    2
    13    13    21    2
    14    14     1    1
    15    15     1    1
    16    16     1    1
    17    17    15    1
    18    18    17    1
    19    19     1    1
    20    20    19    1
    21    21    34    1
    22    22    43    1
    23    23    44   ar
    24    24    51   ar
    25    25    52    1
    26    26    33    1
    27    27    28   ar
    28    28    34   ar
    29    29    17   am
    30    30    14   ar
    31    31    16   ar
    32    32     8    2
    33    33    40   ar
    34    34    41   ar
    35    35    15    2
    36    36    32    1
    37    37    27   ar
    38    38    37    1
    39    39    19    2
    40    40    36   ar
    41    41    42    1
    42    43    37   ar
    43    44    31   ar
    44    45    14   ar
    45    46    45    1
    46    47    36   ar
    47    48    47    1
    48    49    33   ar
    49    50    49    1
    50    51    30   ar
    51    52    47   ar
    52    53    16   ar
    53    54    53    1
    54    55    39    1
    55    56    55    1
    56    57    55    1
    57    58    55    1
    58    59    24   ar
    59    60    59    1
    60    61    23   ar
    61    62    61    1
    62    63    44    1
    63    64    63    1
    64    65    63    1
    65    66    35    1
    66    67    66    1
    67    68    66    1
    68    69    66    1
    69    70    51    1
    70    71    70    1
    71    72    70    1
    72    73    70    1
    73    74    63    1
    74    75     4    1
    75    20    32   am
    76    20    75    1
    77    27    29    1
    78    30    39    1
    79    31    35    1
    80    41    43   ar
    81    45    59   ar
    82    49    52   ar
    83    53    61   ar
@<TRIPOS>SUBSTRUCTURE
     1 RES1        1 GROUP             0 ****  ****    0  
@<TRIPOS>CRYSIN
   11.9980   21.6350   12.0120   90.0000   90.2300   90.0000   231     1
