@<TRIPOS>MOLECULE
DISWOS
   103   109     6     0     0
SMALL
USER_CHARGES
****
Generated from the CSD

@<TRIPOS>ATOM
     1 Fe1     10.7706  13.9399  10.4448   Fe        1 RES1   2.0000
     2 N1      12.1449  12.6610  11.0913   N.ar      1 RES1   0.0000
     3 N2      10.3815  12.4890   9.3337   N.ar      1 RES1   0.0000
     4 N3       9.2398  14.6750   9.3781   N.ar      1 RES1   0.0000
     5 N4      11.0819  10.4069   8.4785   N.ar      1 RES1   0.0000
     6 N5       9.2560  11.5813   7.4813   N.ar      1 RES1   0.0000
     7 N6       9.6020  13.6632  12.0513   N.ar      1 RES1   0.0000
     8 N7      11.2373  15.4399  11.4587   N.ar      1 RES1   0.0000
     9 N8      12.1395  14.7751   9.2562   N.ar      1 RES1   0.0000
    10 N9      10.8865  16.7752  13.3699   N.ar      1 RES1   0.0000
    11 N10     12.5987  17.3338  11.7700   N.ar      1 RES1   0.0000
    12 C1      13.0298  12.8063  12.1000   C.ar      1 RES1   0.0000
    13 H1      12.9818  13.5839  12.6438   H         1 RES1   0.0000
    14 C2      13.9986  11.8704  12.3669   C.ar      1 RES1   0.0000
    15 H2      14.5774  11.9949  13.1087   H         1 RES1   0.0000
    16 C3      14.1452  10.7493  11.5749   C.ar      1 RES1   0.0000
    17 H3      14.8434  10.1246  11.7342   H         1 RES1   0.0000
    18 C4      13.2413  10.5635  10.5404   C.ar      1 RES1   0.0000
    19 H4      13.3007   9.8014   9.9765   H         1 RES1   0.0000
    20 C5      12.2351  11.5229  10.3409   C.ar      1 RES1   0.0000
    21 C6      11.2062  11.3972   9.3265   C.ar      1 RES1   0.0000
    22 C7      10.0758  10.5110   7.5932   C.ar      1 RES1   0.0000
    23 C8       9.4767  12.5423   8.3809   C.ar      1 RES1   0.0000
    24 C9       8.7502  13.8279   8.4268   C.ar      1 RES1   0.0000
    25 C10      7.7042  14.1632   7.5788   C.ar      1 RES1   0.0000
    26 H5       7.3941  13.5539   6.9188   H         1 RES1   0.0000
    27 C11      7.1274  15.4194   7.7295   C.ar      1 RES1   0.0000
    28 H6       6.4126  15.6912   7.1656   H         1 RES1   0.0000
    29 C12      7.6092  16.2663   8.7124   C.ar      1 RES1   0.0000
    30 H7       7.2160  17.1219   8.8415   H         1 RES1   0.0000
    31 C13      8.6663  15.8646   9.5073   C.ar      1 RES1   0.0000
    32 H8       8.9931  16.4611  10.1702   H         1 RES1   0.0000
    33 C14      9.8750   9.3962   6.6677   C.ar      1 RES1   0.0000
    34 C15     10.5084   8.1542   6.9375   C.ar      1 RES1   0.0000
    35 H9      11.0488   8.0511   7.7137   H         1 RES1   0.0000
    36 C16     10.3332   7.0958   6.0622   C.ar      1 RES1   0.0000
    37 H10     10.7418   6.2572   6.2401   H         1 RES1   0.0000
    38 C17      9.5658   7.2616   4.9344   C.ar      1 RES1   0.0000
    39 C18      8.9399   8.4474   4.6532   C.ar      1 RES1   0.0000
    40 H11      8.4153   8.5427   3.8655   H         1 RES1   0.0000
    41 C19      9.0839   9.5116   5.5385   C.ar      1 RES1   0.0000
    42 H12      8.6327  10.3292   5.3663   H         1 RES1   0.0000
    43 Br1      9.4083   5.7955   3.7305   Br        1 RES1   0.0000
    44 C20      8.8113  12.6075  12.3224   C.ar      1 RES1   0.0000
    45 H13      8.8001  11.8750  11.7184   H         1 RES1   0.0000
    46 C21      8.0123  12.5526  13.4574   C.ar      1 RES1   0.0000
    47 H14      7.4887  11.7809  13.6310   H         1 RES1   0.0000
    48 C22      7.9776  13.6133  14.3298   C.ar      1 RES1   0.0000
    49 H15      7.4089  13.5964  15.0903   H         1 RES1   0.0000
    50 C23      8.7968  14.7161  14.0758   C.ar      1 RES1   0.0000
    51 H16      8.7892  15.4705  14.6555   H         1 RES1   0.0000
    52 C24      9.6204  14.6885  12.9595   C.ar      1 RES1   0.0000
    53 C25     10.5913  15.7360  12.6166   C.ar      1 RES1   0.0000
    54 C26     11.9053  17.5519  12.9136   C.ar      1 RES1   0.0000
    55 C27     12.1935  16.2815  11.0770   C.ar      1 RES1   0.0000
    56 C28     12.7528  15.8832   9.7770   C.ar      1 RES1   0.0000
    57 C29     13.7588  16.5564   9.1357   C.ar      1 RES1   0.0000
    58 H17     14.1602  17.3192   9.5360   H         1 RES1   0.0000
    59 C30     14.1859  16.1055   7.8845   C.ar      1 RES1   0.0000
    60 H18     14.8863  16.5468   7.4181   H         1 RES1   0.0000
    61 C31     13.5614  14.9974   7.3478   C.ar      1 RES1   0.0000
    62 H19     13.8199  14.6747   6.4927   H         1 RES1   0.0000
    63 C32     12.5652  14.3602   8.0523   C.ar      1 RES1   0.0000
    64 H20     12.1587  13.5913   7.6678   H         1 RES1   0.0000
    65 C33     12.3616  18.6560  13.7688   C.ar      1 RES1   0.0000
    66 C34     11.6711  18.9756  14.9453   C.ar      1 RES1   0.0000
    67 H21     10.8610  18.5265  15.1591   H         1 RES1   0.0000
    68 C35     12.1750  19.9525  15.8048   C.ar      1 RES1   0.0000
    69 H22     11.7135  20.1695  16.6069   H         1 RES1   0.0000
    70 C36     13.3457  20.6002  15.4805   C.ar      1 RES1   0.0000
    71 C37     14.0246  20.3392  14.2867   C.ar      1 RES1   0.0000
    72 H23     14.8130  20.8179  14.0600   H         1 RES1   0.0000
    73 C38     13.5179  19.3623  13.4431   C.ar      1 RES1   0.0000
    74 H24     13.9662  19.1718  12.6281   H         1 RES1   0.0000
    75 Br2     14.0926  21.8182  16.7184   Br        1 RES1   0.0000
    76 Cl1      9.8377   4.3879   9.9392   Cl        2 RES2   0.0000
    77 O1      10.2161   5.5579   9.1959   O.3       2 RES2  -1.0000
    78 O2       8.4125   4.1896   9.8646   O.2       2 RES2   0.0000
    79 O3      10.2223   4.5487  11.3209   O.2       2 RES2   0.0000
    80 O4      10.4965   3.2244   9.3896   O.2       2 RES2   0.0000
    81 Cl2      9.9336  10.6182   0.7158   Cl        3 RES3   0.0000
    82 O5       9.2200  11.4479  -0.2195   O.3       3 RES3  -1.0000
    83 O6      10.3267  11.4079   1.8581   O.2       3 RES3   0.0000
    84 O7      11.1108  10.0683   0.0875   O.2       3 RES3   0.0000
    85 O8       9.0762   9.5525   1.1421   O.2       3 RES3   0.0000
    86 C39     12.5374   7.0852  11.0913   C.3       4 RES4   0.0000
    87 H25     13.2156   7.2917  11.7700   H         4 RES4   0.0000
    88 H26     12.1390   6.2114  11.2836   H         4 RES4   0.0000
    89 H27     11.8402   7.7733  11.1086   H         4 RES4   0.0000
    90 C40     13.1586   7.0575   9.7813   C.1       4 RES4   0.0000
    91 N11     13.6795   7.0554   8.7497   N.1       4 RES4   0.0000
    92 C41      5.4555   5.3551  10.4442   C.3       5 RES5   0.0000
    93 H28      4.7974   5.1868  11.1502   H         5 RES5   0.0000
    94 H29      5.3870   6.2879  10.1501   H         5 RES5   0.0000
    95 H30      6.3563   5.1885  10.7915   H         5 RES5   0.0000
    96 C42      5.1968   4.4661   9.3121   C.1       5 RES5   0.0000
    97 N12      4.9943   3.7830   8.4225   N.1       5 RES5   0.0000
    98 C43      6.9902  11.7516   2.5468   C.3       6 RES6   0.0000
    99 H31      6.6429  12.1078   1.7032   H         6 RES6   0.0000
   100 H32      7.9452  11.5522   2.4507   H         6 RES6   0.0000
   101 H33      6.8646  12.4159   3.2571   H         6 RES6   0.0000
   102 C44      6.2730  10.5333   2.8898   C.1       6 RES6   0.0000
   103 N13      5.6971   9.5828   3.1423   N.1       6 RES6   0.0000
@<TRIPOS>BOND
     1     1     2    1
     2     2    12   ar
     3     3     1    1
     4     4     1    1
     5     5    21   ar
     6     6    22   ar
     7     7     1    1
     8     8     1    1
     9     9     1    1
    10    10    53   ar
    11    11    54   ar
    12    12    13    1
    13    14    12   ar
    14    15    14    1
    15    16    14   ar
    16    17    16    1
    17    18    16   ar
    18    19    18    1
    19    20     2   ar
    20    21     3   ar
    21    22     5   ar
    22    23     3   ar
    23    24     4   ar
    24    25    24   ar
    25    26    25    1
    26    27    25   ar
    27    28    27    1
    28    29    27   ar
    29    30    29    1
    30    31     4   ar
    31    32    31    1
    32    33    22    1
    33    34    33   ar
    34    35    34    1
    35    36    34   ar
    36    37    36    1
    37    38    36   ar
    38    39    38   ar
    39    40    39    1
    40    41    33   ar
    41    42    41    1
    42    43    38    1
    43    44     7   ar
    44    45    44    1
    45    46    44   ar
    46    47    46    1
    47    48    46   ar
    48    49    48    1
    49    50    48   ar
    50    51    50    1
    51    52     7   ar
    52    53     8   ar
    53    54    10   ar
    54    55     8   ar
    55    56     9   ar
    56    57    56   ar
    57    58    57    1
    58    59    57   ar
    59    60    59    1
    60    61    59   ar
    61    62    61    1
    62    63     9   ar
    63    64    63    1
    64    65    54    1
    65    66    65   ar
    66    67    66    1
    67    68    66   ar
    68    69    68    1
    69    70    68   ar
    70    71    70   ar
    71    72    71    1
    72    73    65   ar
    73    74    73    1
    74    75    70    1
    75     6    23   ar
    76    11    55   ar
    77    18    20   ar
    78    20    21    1
    79    23    24    1
    80    29    31   ar
    81    39    41   ar
    82    50    52   ar
    83    52    53    1
    84    55    56    1
    85    61    63   ar
    86    71    73   ar
    87    76    77    1
    88    78    76    2
    89    79    76    2
    90    80    76    2
    91    81    82    1
    92    83    81    2
    93    84    81    2
    94    85    81    2
    95    86    87    1
    96    88    86    1
    97    89    86    1
    98    90    86    1
    99    91    90    3
   100    92    93    1
   101    94    92    1
   102    95    92    1
   103    96    92    1
   104    97    96    3
   105    98    99    1
   106   100    98    1
   107   101    98    1
   108   102    98    1
   109   103   102    3
@<TRIPOS>SUBSTRUCTURE
     1 RES1        1 GROUP             0 ****  ****    0  
     2 RES2       76 GROUP             0 ****  ****    0  
     3 RES3       81 GROUP             0 ****  ****    0  
     4 RES4       86 GROUP             0 ****  ****    0  
     5 RES5       92 GROUP             0 ****  ****    0  
     6 RES6       98 GROUP             0 ****  ****    0  
@<TRIPOS>CRYSIN
   10.7253   15.1165   15.5248   74.6380   73.7910   89.0960     2     1
