@<TRIPOS>MOLECULE
DIVROS
    79    82     4     0     0
SMALL
USER_CHARGES
****
Generated from the CSD

@<TRIPOS>ATOM
     1 C1       4.1090   2.9924   9.8848   C.ar      1 RES1   0.0000
     2 H1       3.3393   3.5409   9.9813   H         1 RES1   0.0000
     3 C2       5.3539   3.5712  10.0408   C.ar      1 RES1   0.0000
     4 H2       5.4363   4.4976  10.2338   H         1 RES1   0.0000
     5 C3       6.4774   2.7768   9.9112   C.ar      1 RES1   0.0000
     6 H3       7.3456   3.1510  10.0039   H         1 RES1   0.0000
     7 C4       6.3204   1.4314   9.6436   C.ar      1 RES1   0.0000
     8 H4       7.0798   0.8659   9.5687   H         1 RES1   0.0000
     9 C5       5.0485   0.9133   9.4846   C.ar      1 RES1   0.0000
    10 C6       4.7457  -0.4964   9.2114   C.ar      1 RES1   0.0000
    11 C7       5.6421  -1.5553   9.2583   C.ar      1 RES1   0.0000
    12 H5       6.5721  -1.3987   9.3726   H         1 RES1   0.0000
    13 C8       5.1511  -2.8434   9.1333   C.ar      1 RES1   0.0000
    14 H6       5.7488  -3.5797   9.0817   H         1 RES1   0.0000
    15 C9       3.7833  -3.0529   9.0831   C.ar      1 RES1   0.0000
    16 H7       3.4348  -3.9369   9.0614   H         1 RES1   0.0000
    17 C10      2.9279  -1.9631   9.0650   C.ar      1 RES1   0.0000
    18 C11      0.2498   0.4808   6.8124   C.ar      1 RES1   0.0000
    19 H8       0.4491   1.3890   6.6196   H         1 RES1   0.0000
    20 C12     -0.7193  -0.1538   6.0645   C.ar      1 RES1   0.0000
    21 H9      -1.1928   0.3124   5.3864   H         1 RES1   0.0000
    22 C13     -0.9859  -1.4823   6.3225   C.ar      1 RES1   0.0000
    23 H10     -1.6384  -1.9485   5.8125   H         1 RES1   0.0000
    24 C14     -0.2925  -2.1301   7.3362   C.ar      1 RES1   0.0000
    25 H11     -0.4609  -3.0469   7.5238   H         1 RES1   0.0000
    26 C15      0.6496  -1.4253   8.0725   C.ar      1 RES1   0.0000
    27 C16      1.4038  -2.0366   9.2607   C.3       1 RES1   0.0000
    28 C17      0.9894  -3.4898   9.4882   C.3       1 RES1   0.0000
    29 H12      0.0258  -3.5312   9.6634   H         1 RES1   0.0000
    30 H13      1.4777  -3.8522  10.2564   H         1 RES1   0.0000
    31 H14      1.1985  -4.0181   8.6894   H         1 RES1   0.0000
    32 C18      1.0926  -1.1616  10.5082   C.ar      1 RES1   0.0000
    33 C19      0.4704  -1.6675  11.6380   C.ar      1 RES1   0.0000
    34 H15      0.1882  -2.5746  11.6610   H         1 RES1   0.0000
    35 C20      0.2603  -0.8465  12.7372   C.ar      1 RES1   0.0000
    36 H16     -0.1566  -1.1880  13.5189   H         1 RES1   0.0000
    37 C21      0.6635   0.4687  12.6808   C.ar      1 RES1   0.0000
    38 H17      0.5445   1.0451  13.4264   H         1 RES1   0.0000
    39 C22      1.2448   0.9325  11.5152   C.ar      1 RES1   0.0000
    40 H18      1.4996   1.8455  11.4671   H         1 RES1   0.0000
    41 C23      0.7647   3.5034   8.8396   C.1       1 RES1   0.0000
    42 C24      0.1660   4.8306   8.8254   C.3       1 RES1   0.0000
    43 H19     -0.0257   5.1128   9.7446   H         1 RES1   0.0000
    44 H20     -0.6678   4.8076   8.3106   H         1 RES1   0.0000
    45 H21      0.7874   5.4652   8.4121   H         1 RES1   0.0000
    46 C25      3.5875   1.7402   6.1660   C.1       1 RES1   0.0000
    47 C26      4.1882   2.2125   4.9363   C.3       1 RES1   0.0000
    48 H22      4.6535   1.4726   4.4935   H         1 RES1   0.0000
    49 H23      4.8294   2.9258   5.1406   H         1 RES1   0.0000
    50 H24      3.4897   2.5612   4.3447   H         1 RES1   0.0000
    51 N1       3.9362   1.6909   9.6046   N.ar      1 RES1   0.0000
    52 N2       3.4202  -0.7138   9.0132   N.ar      1 RES1   0.0000
    53 N3       0.9288  -0.1325   7.8108   N.ar      1 RES1   0.0000
    54 N4       1.4633   0.1446  10.4492   N.ar      1 RES1   0.0000
    55 N5       1.2713   2.4761   8.8450   N.1       1 RES1   0.0000
    56 N6       3.1126   1.3576   7.1333   N.1       1 RES1   0.0000
    57 Fe1      2.3134   0.8265   8.8310   Fe        1 RES1   2.0000
    58 C27      2.0537   5.9411  12.6707   C.3       2 RES2   0.0000
    59 O1       0.2669   4.2475  11.9555   O.3       2 RES2  -1.0000
    60 O2       2.1793   3.4484  13.2028   O.2       2 RES2   0.0000
    61 O3       0.4907   4.7839  14.3251   O.2       2 RES2   0.0000
    62 F1       1.2456   7.0010  12.5421   F         2 RES2   0.0000
    63 F2       2.9534   6.2482  13.6007   F         2 RES2   0.0000
    64 F3       2.7070   5.8251  11.5057   F         2 RES2   0.0000
    65 S1       1.1365   4.4338  13.0903   S.o2      2 RES2   0.0000
    66 C28      6.2851   5.9581  17.3376   C.3       3 RES3   0.0000
    67 O4       5.7318   5.8834  14.8365   O.2       3 RES3   0.0000
    68 O5       7.9652   5.2327  15.5476   O.3       3 RES3  -1.0000
    69 O6       7.3061   7.5661  15.6306   O.2       3 RES3   0.0000
    70 F4       7.1725   6.3512  18.2489   F         3 RES3   0.0000
    71 F5       5.9839   4.6774  17.5982   F         3 RES3   0.0000
    72 F6       5.1543   6.6580  17.5531   F         3 RES3   0.0000
    73 S2       6.8881   6.1943  15.6364   S.o2      3 RES3   0.0000
    74 C29      8.2979   2.5394  18.0092   C.1       4 RES4   0.0000
    75 C30      7.2359   1.8577  17.2787   C.3       4 RES4   0.0000
    76 H25      6.9997   2.3784  16.4837   H         4 RES4   0.0000
    77 H26      6.4493   1.7668  17.8545   H         4 RES4   0.0000
    78 H27      7.5463   0.9688  17.0068   H         4 RES4   0.0000
    79 N7       9.1345   3.0638  18.5659   N.1       4 RES4   0.0000
@<TRIPOS>BOND
     1     1     2    1
     2     3     1   ar
     3     4     3    1
     4     5     3   ar
     5     6     5    1
     6     7     5   ar
     7     8     7    1
     8     9     7   ar
     9    10     9    1
    10    11    10   ar
    11    12    11    1
    12    13    11   ar
    13    14    13    1
    14    15    13   ar
    15    16    15    1
    16    17    15   ar
    17    18    19    1
    18    20    18   ar
    19    21    20    1
    20    22    20   ar
    21    23    22    1
    22    24    22   ar
    23    25    24    1
    24    26    24   ar
    25    27    17    1
    26    28    27    1
    27    29    28    1
    28    30    28    1
    29    31    28    1
    30    32    27    1
    31    33    32   ar
    32    34    33    1
    33    35    33   ar
    34    36    35    1
    35    37    35   ar
    36    38    37    1
    37    39    37   ar
    38    40    39    1
    39    41    42    1
    40    42    43    1
    41    44    42    1
    42    45    42    1
    43    46    47    1
    44    47    48    1
    45    49    47    1
    46    50    47    1
    47    51     1   ar
    48    52    10   ar
    49    53    18   ar
    50    54    32   ar
    51    55    41    3
    52    56    46    3
    53    57    51    1
    54     9    51   ar
    55    17    52   ar
    56    26    27    1
    57    26    53   ar
    58    39    54   ar
    59    52    57    1
    60    53    57    1
    61    54    57    1
    62    55    57    1
    63    56    57    1
    64    58    62    1
    65    59    65    1
    66    60    65    2
    67    61    65    2
    68    63    58    1
    69    64    58    1
    70    65    58    1
    71    66    70    1
    72    67    73    2
    73    68    73    1
    74    69    73    2
    75    71    66    1
    76    72    66    1
    77    73    66    1
    78    74    75    1
    79    75    76    1
    80    77    75    1
    81    78    75    1
    82    79    74    3
@<TRIPOS>SUBSTRUCTURE
     1 RES1        1 GROUP             0 ****  ****    0  
     2 RES2       58 GROUP             0 ****  ****    0  
     3 RES3       66 GROUP             0 ****  ****    0  
     4 RES4       74 GROUP             0 ****  ****    0  
@<TRIPOS>CRYSIN
   12.1935   12.1099   22.6160   90.0000   94.4940   90.0000    14     1
