@<TRIPOS>MOLECULE
DIVROS01
    79    82     4     0     0
SMALL
USER_CHARGES
****
Generated from the CSD

@<TRIPOS>ATOM
     1 Fe1      8.1739   0.8204  13.7570   Fe        1 RES1   2.0000
     2 N1       6.5471   1.6815  12.9874   N.ar      1 RES1   0.0000
     3 N2       7.0662  -0.7205  13.5847   N.ar      1 RES1   0.0000
     4 N3       9.0204   0.1360  12.1377   N.ar      1 RES1   0.0000
     5 N4       9.5660  -0.1373  14.7751   N.ar      1 RES1   0.0000
     6 N5       7.3814   1.3571  15.4575   N.1       1 RES1   0.0000
     7 N6       9.2192   2.4760  13.7344   N.1       1 RES1   0.0000
     8 C1       6.3780   2.9800  12.6943   C.ar      1 RES1   0.0000
     9 H1       7.1467   3.5277  12.5873   H         1 RES1   0.0000
    10 C2       5.1267   3.5526  12.5416   C.ar      1 RES1   0.0000
    11 H2       5.0424   4.4774  12.3413   H         1 RES1   0.0000
    12 C3       4.0058   2.7653  12.6836   C.ar      1 RES1   0.0000
    13 H3       3.1385   3.1427  12.5947   H         1 RES1   0.0000
    14 C4       4.1585   1.4172  12.9575   C.ar      1 RES1   0.0000
    15 H4       3.3992   0.8516  13.0356   H         1 RES1   0.0000
    16 C5       5.4375   0.9051  13.1161   C.ar      1 RES1   0.0000
    17 C6       5.7393  -0.5068  13.3915   C.ar      1 RES1   0.0000
    18 C7       4.8462  -1.5624  13.3528   C.ar      1 RES1   0.0000
    19 H5       3.9155  -1.4077  13.2415   H         1 RES1   0.0000
    20 C8       5.3397  -2.8494  13.4804   C.ar      1 RES1   0.0000
    21 H6       4.7420  -3.5856  13.5358   H         1 RES1   0.0000
    22 C9       6.7103  -3.0603  13.5272   C.ar      1 RES1   0.0000
    23 H7       7.0606  -3.9429  13.5551   H         1 RES1   0.0000
    24 C10      7.5612  -1.9671  13.5329   C.ar      1 RES1   0.0000
    25 C11      9.0833  -2.0420  13.3266   C.3       1 RES1   0.0000
    26 C12      9.4969  -3.4996  13.1004   C.3       1 RES1   0.0000
    27 H8       9.2790  -4.0283  13.8963   H         1 RES1   0.0000
    28 H9      10.4617  -3.5433  12.9335   H         1 RES1   0.0000
    29 H10      9.0149  -3.8598  12.3269   H         1 RES1   0.0000
    30 C13      9.3917  -1.1707  12.0834   C.ar      1 RES1   0.0000
    31 C14     10.0065  -1.6795  10.9470   C.ar      1 RES1   0.0000
    32 H11     10.2848  -2.5874  10.9212   H         1 RES1   0.0000
    33 C15     10.2123  -0.8580   9.8517   C.ar      1 RES1   0.0000
    34 H12     10.6287  -1.1989   9.0689   H         1 RES1   0.0000
    35 C16      9.8085   0.4569   9.9066   C.ar      1 RES1   0.0000
    36 H13      9.9264   1.0310   9.1591   H         1 RES1   0.0000
    37 C17      9.2284   0.9260  11.0695   C.ar      1 RES1   0.0000
    38 H14      8.9675   1.8382  11.1161   H         1 RES1   0.0000
    39 C18      9.8363  -1.4291  14.5110   C.ar      1 RES1   0.0000
    40 C19     10.7879  -2.1342  15.2485   C.ar      1 RES1   0.0000
    41 H15     10.9584  -3.0500  15.0617   H         1 RES1   0.0000
    42 C20     11.4796  -1.4858  16.2533   C.ar      1 RES1   0.0000
    43 H16     12.1355  -1.9506  16.7593   H         1 RES1   0.0000
    44 C21     11.2109  -0.1571  16.5168   C.ar      1 RES1   0.0000
    45 H17     11.6825   0.3078  17.1976   H         1 RES1   0.0000
    46 C22     10.2418   0.4783  15.7687   C.ar      1 RES1   0.0000
    47 H18     10.0417   1.3869  15.9607   H         1 RES1   0.0000
    48 C23      9.7257   3.4931  13.7353   C.1       1 RES1   0.0000
    49 C24     10.3351   4.8209  13.7396   C.3       1 RES1   0.0000
    50 H19     10.5858   5.0680  12.8249   H         1 RES1   0.0000
    51 H20     11.1347   4.8115  14.3061   H         1 RES1   0.0000
    52 H21      9.6938   5.4735  14.0902   H         1 RES1   0.0000
    53 C25      6.9111   1.7338  16.4218   C.1       1 RES1   0.0000
    54 C26      6.3207   2.2112  17.6580   C.3       1 RES1   0.0000
    55 H22      5.6889   2.9339  17.4604   H         1 RES1   0.0000
    56 H23      7.0266   2.5470  18.2490   H         1 RES1   0.0000
    57 H24      5.8475   1.4754  18.0996   H         1 RES1   0.0000
    58 S1       9.3290   4.4482   9.4975   S.o2      2 RES2   0.0000
    59 F1       7.4852   6.2439   9.0468   F         2 RES2   0.0000
    60 F2       9.1943   7.0011  10.0837   F         2 RES2   0.0000
    61 F3       7.7841   5.7989  11.1315   F         2 RES2   0.0000
    62 O1      10.2073   4.2383  10.6150   O.3       2 RES2  -1.0000
    63 O2       8.2938   3.4612   9.3747   O.2       2 RES2   0.0000
    64 O3       9.9605   4.8239   8.2683   O.2       2 RES2   0.0000
    65 C27      8.4030   5.9420   9.9593   C.3       2 RES2   0.0000
    66 S2       2.6973  -0.1606  18.2560   S.o2      3 RES3   0.0000
    67 F4       2.3893  -0.2836  15.6549   F         3 RES3   0.0000
    68 F5       3.5772   1.3782  16.3114   F         3 RES3   0.0000
    69 F6       4.4076  -0.5946  16.3273   F         3 RES3   0.0000
    70 O4       2.2781  -1.5242  18.2489   O.2       3 RES3   0.0000
    71 O5       1.6057   0.7908  18.3532   O.3       3 RES3  -1.0000
    72 O6       3.8413   0.1700  19.0518   O.2       3 RES3   0.0000
    73 C28      3.2816   0.1011  16.5557   C.3       3 RES3   0.0000
    74 N7       9.2007  -3.0703  18.6479   N.1       4 RES4   0.0000
    75 C29      8.3793  -2.5222  18.1074   C.1       4 RES4   0.0000
    76 C30      7.3394  -1.8122  17.3993   C.3       4 RES4   0.0000
    77 H25      7.1101  -2.2989  16.5804   H         4 RES4   0.0000
    78 H26      7.6565  -0.9140  17.1674   H         4 RES4   0.0000
    79 H27      6.5457  -1.7405  17.9700   H         4 RES4   0.0000
@<TRIPOS>BOND
     1     1     2    1
     2     2     8   ar
     3     3     1    1
     4     4     1    1
     5     5     1    1
     6     6     1    1
     7     7     1    1
     8     8     9    1
     9    10     8   ar
    10    11    10    1
    11    12    10   ar
    12    13    12    1
    13    14    12   ar
    14    15    14    1
    15    16     2   ar
    16    17     3   ar
    17    18    17   ar
    18    19    18    1
    19    20    18   ar
    20    21    20    1
    21    22    20   ar
    22    23    22    1
    23    24     3   ar
    24    25    24    1
    25    26    25    1
    26    27    26    1
    27    28    26    1
    28    29    26    1
    29    30     4   ar
    30    31    30   ar
    31    32    31    1
    32    33    31   ar
    33    34    33    1
    34    35    33   ar
    35    36    35    1
    36    37     4   ar
    37    38    37    1
    38    39     5   ar
    39    40    39   ar
    40    41    40    1
    41    42    40   ar
    42    43    42    1
    43    44    42   ar
    44    45    44    1
    45    46     5   ar
    46    47    46    1
    47    48     7    3
    48    49    48    1
    49    50    49    1
    50    51    49    1
    51    52    49    1
    52    53     6    3
    53    54    53    1
    54    55    54    1
    55    56    54    1
    56    57    54    1
    57    14    16   ar
    58    16    17    1
    59    22    24   ar
    60    25    30    1
    61    25    39    1
    62    35    37   ar
    63    44    46   ar
    64    58    62    1
    65    59    65    1
    66    60    65    1
    67    61    65    1
    68    63    58    2
    69    64    58    2
    70    65    58    1
    71    66    70    2
    72    67    73    1
    73    68    73    1
    74    69    73    1
    75    71    66    1
    76    72    66    2
    77    73    66    1
    78    74    75    3
    79    75    76    1
    80    76    77    1
    81    78    76    1
    82    79    76    1
@<TRIPOS>SUBSTRUCTURE
     1 RES1        1 GROUP             0 ****  ****    0  
     2 RES2       58 GROUP             0 ****  ****    0  
     3 RES3       66 GROUP             0 ****  ****    0  
     4 RES4       74 GROUP             0 ****  ****    0  
@<TRIPOS>CRYSIN
   12.2302   12.1788   22.6803   90.0000   94.3210   90.0000    14     1
