@<TRIPOS>MOLECULE
DMFAFE01
    83    80     3     0     0
SMALL
USER_CHARGES
****
Generated from the CSD

@<TRIPOS>ATOM
     1 Fe1      3.8708   3.3671   6.3748   Fe        1 RES1   3.0000
     2 O1       5.7491   2.8542   5.9247   O.2       1 RES1   0.0000
     3 O2       3.5472   3.6864   4.4407   O.2       1 RES1   0.0000
     4 O3       4.4171   5.2656   6.6463   O.2       1 RES1   0.0000
     5 N1       7.9146   3.1873   5.4430   N.am      1 RES1   0.0000
     6 N2       2.2501   4.1928   2.6848   N.am      1 RES1   0.0000
     7 N3       4.8227   6.9968   8.0173   N.am      1 RES1   0.0000
     8 C1       6.7392   3.6125   5.7854   C.2       1 RES1   0.0000
     9 H1       6.6206   4.5429   5.9388   H         1 RES1   0.0000
    10 C2       9.0248   4.1240   5.2848   C.3       1 RES1   0.0000
    11 H2       9.2996   4.1482   4.3438   H         1 RES1   0.0000
    12 H3       9.7789   3.8317   5.8381   H         1 RES1   0.0000
    13 H4       8.7408   5.0183   5.5652   H         1 RES1   0.0000
    14 C3       8.1475   1.7670   5.1993   C.3       1 RES1   0.0000
    15 H5       7.6075   1.2364   5.8202   H         1 RES1   0.0000
    16 H6       9.0968   1.5637   5.3357   H         1 RES1   0.0000
    17 H7       7.8957   1.5489   4.2775   H         1 RES1   0.0000
    18 C4       2.6234   4.3631   3.9103   C.2       1 RES1   0.0000
    19 H8       2.1853   5.0237   4.4331   H         1 RES1   0.0000
    20 C5       1.1550   4.9658   2.1075   C.3       1 RES1   0.0000
    21 H9       0.3993   4.3705   1.9214   H         1 RES1   0.0000
    22 H10      1.4549   5.3846   1.2750   H         1 RES1   0.0000
    23 H11      0.8757   5.6594   2.7412   H         1 RES1   0.0000
    24 C6       2.8404   3.1368   1.8525   C.3       1 RES1   0.0000
    25 H12      3.6419   2.7839   2.2937   H         1 RES1   0.0000
    26 H13      3.0832   3.5058   0.9792   H         1 RES1   0.0000
    27 H14      2.1887   2.4135   1.7314   H         1 RES1   0.0000
    28 C7       4.1663   5.9294   7.6885   C.2       1 RES1   0.0000
    29 H15      3.4642   5.6338   8.2580   H         1 RES1   0.0000
    30 C8       4.5504   7.7214   9.2563   C.3       1 RES1   0.0000
    31 H16      4.2792   8.6386   9.0446   H         1 RES1   0.0000
    32 H17      5.3592   7.7375   9.8096   H         1 RES1   0.0000
    33 H18      3.8288   7.2729   9.7446   H         1 RES1   0.0000
    34 C9       5.8975   7.5080   7.1819   C.3       1 RES1   0.0000
    35 H19      6.7536   7.1490   7.4955   H         1 RES1   0.0000
    36 H20      5.9152   8.4864   7.2342   H         1 RES1   0.0000
    37 H21      5.7489   7.2338   6.2537   H         1 RES1   0.0000
    38 O1F      1.9925   3.8800   6.8250   O.2       1 RES1   0.0000
    39 O2F      4.1945   3.0477   8.3090   O.2       1 RES1   0.0000
    40 O3F      3.3246   1.4686   6.1034   O.2       1 RES1   0.0000
    41 N1F     -0.1729   3.5469   7.3067   N.am      1 RES1   0.0000
    42 N2F      5.4916   2.5413  10.0649   N.am      1 RES1   0.0000
    43 N3F      2.9190  -0.2626   4.7324   N.am      1 RES1   0.0000
    44 C1F      1.0025   3.1217   6.9643   C.2       1 RES1   0.0000
    45 H1F      1.1211   2.1913   6.8109   H         1 RES1   0.0000
    46 C2F     -1.2832   2.6102   7.4649   C.3       1 RES1   0.0000
    47 H2F     -1.5579   2.5859   8.4059   H         1 RES1   0.0000
    48 H3F     -2.0372   2.9024   6.9116   H         1 RES1   0.0000
    49 H4F     -0.9991   1.7159   7.1845   H         1 RES1   0.0000
    50 C3F     -0.4058   4.9671   7.5504   C.3       1 RES1   0.0000
    51 H5F      0.1342   5.4978   6.9295   H         1 RES1   0.0000
    52 H6F     -1.3551   5.1705   7.4140   H         1 RES1   0.0000
    53 H7F     -0.1541   5.1853   8.4722   H         1 RES1   0.0000
    54 C4F      5.1182   2.3711   8.8394   C.2       1 RES1   0.0000
    55 H8F      5.5564   1.7105   8.3166   H         1 RES1   0.0000
    56 C5F      6.5867   1.7684  10.6422   C.3       1 RES1   0.0000
    57 H9F      7.3424   2.3637  10.8283   H         1 RES1   0.0000
    58 H10F     6.2867   1.3495  11.4747   H         1 RES1   0.0000
    59 H11F     6.8660   1.0748  10.0085   H         1 RES1   0.0000
    60 C6F      4.9012   3.5974  10.8972   C.3       1 RES1   0.0000
    61 H12F     4.0998   3.9503  10.4560   H         1 RES1   0.0000
    62 H13F     4.6584   3.2284  11.7705   H         1 RES1   0.0000
    63 H14F     5.5530   4.3206  11.0183   H         1 RES1   0.0000
    64 C7F      3.5753   0.8047   5.0612   C.2       1 RES1   0.0000
    65 H15F     4.2775   1.1004   4.4917   H         1 RES1   0.0000
    66 C8F      3.1913  -0.9872   3.4934   C.3       1 RES1   0.0000
    67 H16F     3.4625  -1.9044   3.7051   H         1 RES1   0.0000
    68 H17F     2.3824  -1.0034   2.9401   H         1 RES1   0.0000
    69 H18F     3.9129  -0.5387   3.0051   H         1 RES1   0.0000
    70 C9F      1.8442  -0.7739   5.5678   C.3       1 RES1   0.0000
    71 H19F     0.9880  -0.4148   5.2542   H         1 RES1   0.0000
    72 H20F     1.8265  -1.7522   5.5155   H         1 RES1   0.0000
    73 H21F     1.9928  -0.4997   6.4960   H         1 RES1   0.0000
    74 Cl1      2.2245   8.1296   4.8038   Cl        2 RES2   0.0000
    75 O4       3.0508   7.5854   3.7898   O.3       2 RES2  -1.0000
    76 O5       2.9532   8.2669   5.9847   O.2       2 RES2   0.0000
    77 O6       1.6847   9.3764   4.4267   O.2       2 RES2   0.0000
    78 O7       1.1534   7.2375   4.9928   O.2       2 RES2   0.0000
    79 Cl2      8.3540   5.3617   9.5623   Cl        3 RES3   0.0000
    80 O8       7.5846   4.5507   8.6957   O.2       3 RES3   0.0000
    81 O9       7.5038   6.1793  10.3234   O.2       3 RES3   0.0000
    82 O8A      9.1235   4.5507  10.4289   O.3       3 RES3  -1.0000
    83 O9A      9.2043   6.1793   8.8011   O.2       3 RES3   0.0000
@<TRIPOS>BOND
     1     1     2    1
     2     2     8    2
     3     3     1    1
     4     4     1    1
     5     5     8   am
     6     6    18   am
     7     7    28   am
     8     8     9    1
     9    10     5    1
    10    11    10    1
    11    12    10    1
    12    13    10    1
    13    14     5    1
    14    15    14    1
    15    16    14    1
    16    17    14    1
    17    18     3    2
    18    19    18    1
    19    20     6    1
    20    21    20    1
    21    22    20    1
    22    23    20    1
    23    24     6    1
    24    25    24    1
    25    26    24    1
    26    27    24    1
    27    28     4    2
    28    29    28    1
    29    30     7    1
    30    31    30    1
    31    32    30    1
    32    33    30    1
    33    34     7    1
    34    35    34    1
    35    36    34    1
    36    37    34    1
    37    38     1    1
    38    39     1    1
    39    40     1    1
    40    41    44   am
    41    42    54   am
    42    43    64   am
    43    44    38    2
    44    45    44    1
    45    46    41    1
    46    47    46    1
    47    48    46    1
    48    49    46    1
    49    50    41    1
    50    51    50    1
    51    52    50    1
    52    53    50    1
    53    54    39    2
    54    55    54    1
    55    56    42    1
    56    57    56    1
    57    58    56    1
    58    59    56    1
    59    60    42    1
    60    61    60    1
    61    62    60    1
    62    63    60    1
    63    64    40    2
    64    65    64    1
    65    66    43    1
    66    67    66    1
    67    68    66    1
    68    69    66    1
    69    70    43    1
    70    71    70    1
    71    72    70    1
    72    73    70    1
    73    74    75    1
    74    76    74    2
    75    77    74    2
    76    78    74    2
    77    79    80    2
    78    81    79    2
    79    82    79    1
    80    83    79    2
@<TRIPOS>SUBSTRUCTURE
     1 RES1        1 GROUP             0 ****  ****    0  
     2 RES2       74 GROUP             0 ****  ****    0  
     3 RES3       79 GROUP             0 ****  ****    0  
@<TRIPOS>CRYSIN
   20.3824   13.4683   12.9829   90.0000  100.8753   90.0000    15     1
