@<TRIPOS>MOLECULE
DMFAFE
    41    38     3     0     0
SMALL
USER_CHARGES
****
Generated from the CSD

@<TRIPOS>ATOM
     1 Fe1      3.9303   3.3893   6.4289   Fe        1 RES1   3.0000
     2 O1       3.5814   3.7038   4.5067   O.2       1 RES1   0.0000
     3 C1       2.6787   4.3857   3.9731   C.2       1 RES1   0.0000
     4 N1       2.2912   4.2284   2.7362   N.am      1 RES1   0.0000
     5 C2       2.8704   3.1723   1.8965   C.3       1 RES1   0.0000
     6 C3       1.1842   5.0215   2.1666   C.3       1 RES1   0.0000
     7 O2       3.3877   1.4899   6.1628   O.2       1 RES1   0.0000
     8 C4       3.6265   0.8121   5.1264   C.2       1 RES1   0.0000
     9 N2       2.9951  -0.2739   4.8088   N.am      1 RES1   0.0000
    10 C5       3.2534  -0.9924   3.5565   C.3       1 RES1   0.0000
    11 C6       1.9226  -0.7782   5.6806   C.3       1 RES1   0.0000
    12 O3       5.8036   2.8754   5.9661   O.2       1 RES1   0.0000
    13 C7       6.7998   3.6468   5.7950   C.2       1 RES1   0.0000
    14 N3       7.9793   3.2049   5.4852   N.am      1 RES1   0.0000
    15 C8       8.2158   1.7665   5.3026   C.3       1 RES1   0.0000
    16 C9       9.1027   4.1444   5.3013   C.3       1 RES1   0.0000
    17 O1E      4.2792   3.0747   8.3512   O.2       1 RES1   0.0000
    18 O2E      4.4729   5.2886   6.6951   O.2       1 RES1   0.0000
    19 O3E      2.0569   3.9031   6.8918   O.2       1 RES1   0.0000
    20 C1E      5.1818   2.3928   8.8848   C.2       1 RES1   0.0000
    21 C4E      4.2341   5.9664   7.7314   C.2       1 RES1   0.0000
    22 C7E      1.0608   3.1317   7.0628   C.2       1 RES1   0.0000
    23 N1E      5.5694   2.5501  10.1217   N.am      1 RES1   0.0000
    24 N2E      4.8654   7.0524   8.0490   N.am      1 RES1   0.0000
    25 N3E     -0.1187   3.5736   7.3727   N.am      1 RES1   0.0000
    26 C2E      4.9902   3.6062  10.9613   C.3       1 RES1   0.0000
    27 C3E      6.6763   1.7570  10.6913   C.3       1 RES1   0.0000
    28 C5E      4.6072   7.7709   9.3014   C.3       1 RES1   0.0000
    29 C6E      5.9380   7.5567   7.1773   C.3       1 RES1   0.0000
    30 C8E     -0.3552   5.0120   7.5553   C.3       1 RES1   0.0000
    31 C9E     -1.2422   2.6341   7.5566   C.3       1 RES1   0.0000
    32 Cl1     12.5008   1.4398   4.8101   Cl        2 RES2   0.0000
    33 O4      13.3243   0.8717   3.8342   O.2       2 RES2   0.0000
    34 O5      11.9636   2.6707   4.4373   O.2       2 RES2   0.0000
    35 O6      11.4481   0.5531   5.0210   O.2       2 RES2   0.0000
    36 O7      13.1803   1.5713   5.9853   O.3       2 RES2  -1.0000
    37 Cl2     -0.5946   1.3611   3.2145   Cl        3 RES3   0.0000
    38 O8      -1.4442   0.5423   3.9217   O.2       3 RES3   0.0000
    39 O9      -1.3263   2.1556   2.3324   O.2       3 RES3   0.0000
    40 O8B      0.2550   0.5423   2.5073   O.2       3 RES3   0.0000
    41 O9B      0.1371   2.1556   4.0965   O.3       3 RES3  -1.0000
@<TRIPOS>BOND
     1     1     2    1
     2     2     3    2
     3     3     4   am
     4     4     5    1
     5     6     4    1
     6     7     1    1
     7     8     7    2
     8     9     8   am
     9    10     9    1
    10    11     9    1
    11    12     1    1
    12    13    12    2
    13    14    13   am
    14    15    14    1
    15    16    14    1
    16    17     1    1
    17    18     1    1
    18    19     1    1
    19    20    17    2
    20    21    18    2
    21    22    19    2
    22    23    20   am
    23    24    21   am
    24    25    22   am
    25    26    23    1
    26    27    23    1
    27    28    24    1
    28    29    24    1
    29    30    25    1
    30    31    25    1
    31    32    33    2
    32    34    32    2
    33    35    32    2
    34    36    32    1
    35    37    38    2
    36    39    37    2
    37    40    37    2
    38    41    37    1
@<TRIPOS>SUBSTRUCTURE
     1 RES1        1 GROUP             0 ****  ****    0  
     2 RES2       32 GROUP             0 ****  ****    0  
     3 RES3       37 GROUP             0 ****  ****    0  
@<TRIPOS>CRYSIN
   20.4780   13.5570   13.0760   90.0000  100.4800   90.0000    15     1
