@<TRIPOS>MOLECULE
DOBRAQ
    78    81     3     0     0
SMALL
USER_CHARGES
****
Generated from the CSD

@<TRIPOS>ATOM
     1 Fe1     10.5135   4.5196   3.8332   Fe        1 RES1   2.0000
     2 F1      12.5072   9.3372   9.6245   F         1 RES1   0.0000
     3 N1       8.6772   4.6297   3.1257   N.ar      1 RES1   0.0000
     4 N2      11.0655   3.0951   2.6421   N.1       1 RES1   0.0000
     5 N3       9.8136   5.9384   4.9980   N.2       1 RES1   0.0000
     6 F2      14.1769   8.2922   8.8547   F         1 RES1   0.0000
     7 F3      12.9379   7.3833  10.3105   F         1 RES1   0.0000
     8 C1       7.9543   5.6585   3.6354   C.ar      1 RES1   0.0000
     9 C2      10.9637   5.7115   7.1114   C.ar      1 RES1   0.0000
    10 H1      10.7261   4.8124   7.1190   H         1 RES1   0.0000
    11 C3       8.6564   6.3761   4.6872   C.2       1 RES1   0.0000
    12 H2       8.2815   7.1142   5.1104   H         1 RES1   0.0000
    13 C4      10.5540   6.5382   6.0657   C.ar      1 RES1   0.0000
    14 C5       8.0880   3.8397   2.2141   C.ar      1 RES1   0.0000
    15 H3       8.5665   3.1254   1.8599   H         1 RES1   0.0000
    16 C6      12.0671   7.5854   8.1218   C.ar      1 RES1   0.0000
    17 C7      11.7241   6.2400   8.1386   C.ar      1 RES1   0.0000
    18 H4      12.0050   5.6964   8.8394   H         1 RES1   0.0000
    19 C8      10.9096   7.8826   6.0335   C.ar      1 RES1   0.0000
    20 H5      10.6424   8.4262   5.3266   H         1 RES1   0.0000
    21 C9      11.3309   2.1193   2.1159   C.1       1 RES1   0.0000
    22 C10     11.6654   8.3981   7.0700   C.ar      1 RES1   0.0000
    23 H6      11.9065   9.2962   7.0638   H         1 RES1   0.0000
    24 C11      6.7912   4.0569   1.7863   C.ar      1 RES1   0.0000
    25 H7       6.4093   3.4907   1.1546   H         1 RES1   0.0000
    26 C12      6.6581   5.9374   3.2383   C.ar      1 RES1   0.0000
    27 H8       6.1951   6.6604   3.5940   H         1 RES1   0.0000
    28 C13     12.9163   8.1496   9.2058   C.3       1 RES1   0.0000
    29 C14      6.0667   5.1031   2.2923   C.ar      1 RES1   0.0000
    30 H9       5.1954   5.2544   2.0071   H         1 RES1   0.0000
    31 C15     11.6209   0.8635   1.4474   C.3       1 RES1   0.0000
    32 H10     11.5069   0.9715   0.4998   H         1 RES1   0.0000
    33 H11     11.0204   0.1848   1.7663   H         1 RES1   0.0000
    34 H12     12.5251   0.6030   1.6345   H         1 RES1   0.0000
    35 F1A      8.5197   9.3372  -1.9582   F         1 RES1   0.0000
    36 N1A     12.3497   4.6297   4.5407   N.ar      1 RES1   0.0000
    37 N2A      9.9615   3.0951   5.0243   N.1       1 RES1   0.0000
    38 N3A     11.2133   5.9384   2.6684   N.2       1 RES1   0.0000
    39 F2A      6.8500   8.2922  -1.1883   F         1 RES1   0.0000
    40 F3A      8.0891   7.3833  -2.6441   F         1 RES1   0.0000
    41 C1A     13.0726   5.6585   4.0310   C.ar      1 RES1   0.0000
    42 C2A     10.0632   5.7115   0.5550   C.ar      1 RES1   0.0000
    43 H1A     10.3008   4.8124   0.5474   H         1 RES1   0.0000
    44 C3A     12.3706   6.3761   2.9792   C.2       1 RES1   0.0000
    45 H2A     12.7454   7.1142   2.5560   H         1 RES1   0.0000
    46 C4A     10.4729   6.5382   1.6007   C.ar      1 RES1   0.0000
    47 C5A     12.9389   3.8397   5.4523   C.ar      1 RES1   0.0000
    48 H3A     12.4604   3.1254   5.8065   H         1 RES1   0.0000
    49 C6A      8.9598   7.5854  -0.4554   C.ar      1 RES1   0.0000
    50 C7A      9.3028   6.2400  -0.4723   C.ar      1 RES1   0.0000
    51 H4A      9.0220   5.6964  -1.1730   H         1 RES1   0.0000
    52 C8A     10.1174   7.8826   1.6329   C.ar      1 RES1   0.0000
    53 H5A     10.3846   8.4262   2.3398   H         1 RES1   0.0000
    54 C9A      9.6960   2.1193   5.5505   C.1       1 RES1   0.0000
    55 C10A     9.3615   8.3981   0.5964   C.ar      1 RES1   0.0000
    56 H6A      9.1204   9.2962   0.6026   H         1 RES1   0.0000
    57 C11A    14.2358   4.0569   5.8801   C.ar      1 RES1   0.0000
    58 H7A     14.6176   3.4907   6.5118   H         1 RES1   0.0000
    59 C12A    14.3688   5.9374   4.4281   C.ar      1 RES1   0.0000
    60 H8A     14.8319   6.6604   4.0724   H         1 RES1   0.0000
    61 C13A     8.1106   8.1496  -1.5394   C.3       1 RES1   0.0000
    62 C14A    14.9603   5.1031   5.3741   C.ar      1 RES1   0.0000
    63 H9A     15.8316   5.2544   5.6593   H         1 RES1   0.0000
    64 C15A     9.4060   0.8635   6.2190   C.3       1 RES1   0.0000
    65 H10A     9.5201   0.9715   7.1665   H         1 RES1   0.0000
    66 H11A    10.0065   0.1848   5.9001   H         1 RES1   0.0000
    67 H12A     8.5018   0.6030   6.0319   H         1 RES1   0.0000
    68 F4      11.1450  13.4212   8.2302   F         2 RES2   0.0000
    69 F5      13.0459  12.2238   7.9267   F         2 RES2   0.0000
    70 F6      12.0724  12.3189   9.9691   F         2 RES2   0.0000
    71 F7      13.0678  14.1010   9.1031   F         2 RES2   0.0000
    72 B1      12.3273  12.9738   8.8010   B         2 RES2  -1.0000
    73 C16     10.9119  10.6600  12.5407   C.1       3 RES3   0.0000
    74 N4       9.8145  10.7216  12.3030   N.1       3 RES3   0.0000
    75 C17     12.3201  10.5703  12.8259   C.3       3 RES3   0.0000
    76 H13     12.8042  11.1507  12.2356   H         3 RES3   0.0000
    77 H14     12.6130   9.6647  12.7002   H         3 RES3   0.0000
    78 H15     12.4786  10.8340  13.7351   H         3 RES3   0.0000
@<TRIPOS>BOND
     1     1     3    1
     2     2    28    1
     3     3     8   ar
     4     4     1    1
     5     5     1    1
     6     6    28    1
     7     7    28    1
     8     8    11    1
     9     9    10    1
    10    11     5    2
    11    12    11    1
    12    13     5    1
    13    14     3   ar
    14    15    14    1
    15    16    17   ar
    16    17     9   ar
    17    18    17    1
    18    19    13   ar
    19    20    19    1
    20    21     4    3
    21    22    16   ar
    22    23    22    1
    23    24    14   ar
    24    25    24    1
    25    26     8   ar
    26    27    26    1
    27    28    16    1
    28    29    24   ar
    29    30    29    1
    30    31    21    1
    31    32    31    1
    32    33    31    1
    33    34    31    1
    34    35    61    1
    35    36     1    1
    36    37     1    1
    37    38     1    1
    38    39    61    1
    39    40    61    1
    40    41    36   ar
    41    42    43    1
    42    44    38    2
    43    45    44    1
    44    46    38    1
    45    47    36   ar
    46    48    47    1
    47    49    50   ar
    48    50    42   ar
    49    51    50    1
    50    52    46   ar
    51    53    52    1
    52    54    37    3
    53    55    49   ar
    54    56    55    1
    55    57    47   ar
    56    58    57    1
    57    59    41   ar
    58    60    59    1
    59    61    49    1
    60    62    57   ar
    61    63    62    1
    62    64    54    1
    63    65    64    1
    64    66    64    1
    65    67    64    1
    66     9    13   ar
    67    19    22   ar
    68    26    29   ar
    69    41    44    1
    70    42    46   ar
    71    52    55   ar
    72    59    62   ar
    73    68    72    1
    74    69    72    1
    75    70    72    1
    76    71    72    1
    77    73    74    3
    78    75    73    1
    79    76    75    1
    80    77    75    1
    81    78    75    1
@<TRIPOS>SUBSTRUCTURE
     1 RES1        1 GROUP             0 ****  ****    0  
     2 RES2       68 GROUP             0 ****  ****    0  
     3 RES3       73 GROUP             0 ****  ****    0  
@<TRIPOS>CRYSIN
   23.4465   10.8070   16.0783   90.0000  107.5160   90.0000    15     1
