@<TRIPOS>MOLECULE
DOBSAQ
    79    84     1     0     0
SMALL
NO_CHARGES
****
Generated from the CSD

@<TRIPOS>ATOM
     1 Fe1      0.0193   0.6631   8.2427   Fe        1 RES1   0.0000
     2 P1      -0.3005   1.4066  10.3230   P.3       1 RES1   0.0000
     3 P2       0.5563  -0.7033   6.6140   P.3       1 RES1   0.0000
     4 O1       0.6025   3.2412   7.0538   O.2       1 RES1   0.0000
     5 O2      -2.8306   0.4451   7.6966   O.2       1 RES1   0.0000
     6 C1       1.9211  -0.3814   8.9742   C.ar      1 RES1   0.0000
     7 C2       3.5473   2.7059  10.3183   C.ar      1 RES1   0.0000
     8 H1       4.3006   2.6214   9.7467   H         1 RES1   0.0000
     9 C3       2.3393   2.0899   9.9470   C.ar      1 RES1   0.0000
    10 C4       2.3207  -0.8781  10.2453   C.ar      1 RES1   0.0000
    11 H2       2.6016  -0.2583  10.9072   H         1 RES1   0.0000
    12 C5       1.2412   2.2483  10.8262   C.ar      1 RES1   0.0000
    13 C6       3.6754   3.4360  11.4978   C.ar      1 RES1   0.0000
    14 H3       4.5093   3.8286  11.7258   H         1 RES1   0.0000
    15 C7       1.3657   2.9935  12.0078   C.ar      1 RES1   0.0000
    16 H4       0.6160   3.0927  12.5847   H         1 RES1   0.0000
    17 C8       0.4867   2.1997   7.5753   C.1       1 RES1   0.0000
    18 C9       1.4223  -1.3646   8.0500   C.ar      1 RES1   0.0000
    19 C10     -0.5249   0.0763  11.6194   C.3       1 RES1   0.0000
    20 H5       0.3922  -0.2772  11.8063   H         1 RES1   0.0000
    21 C11      3.4267   1.3910   7.5701   C.ar      1 RES1   0.0000
    22 C12      1.4113  -2.7389   8.3895   C.ar      1 RES1   0.0000
    23 H6       1.0808  -3.3744   7.7656   H         1 RES1   0.0000
    24 C13      2.5803   3.5902  12.3433   C.ar      1 RES1   0.0000
    25 H7       2.6597   4.0977  13.1418   H         1 RES1   0.0000
    26 C14      4.3855   0.3767   7.3654   C.ar      1 RES1   0.0000
    27 H8       4.2821  -0.4524   7.8179   H         1 RES1   0.0000
    28 C15     -1.6039   2.6781  10.6725   C.3       1 RES1   0.0000
    29 H9      -1.4858   2.9672  11.6233   H         1 RES1   0.0000
    30 C16      2.3181  -2.2235  10.5585   C.ar      1 RES1   0.0000
    31 H10      2.6166  -2.5121  11.4121   H         1 RES1   0.0000
    32 C17      1.8756  -3.1638   9.6158   C.ar      1 RES1   0.0000
    33 H11      1.8960  -4.0905   9.8231   H         1 RES1   0.0000
    34 C18      4.7376   2.7839   6.0417   C.ar      1 RES1   0.0000
    35 H12      4.8467   3.6110   5.5874   H         1 RES1   0.0000
    36 C19      3.6542   2.6063   6.9046   C.ar      1 RES1   0.0000
    37 H13      3.0538   3.3284   7.0456   H         1 RES1   0.0000
    38 C20     -0.5587  -2.0488   5.9939   C.3       1 RES1   0.0000
    39 H14      0.0173  -2.8110   5.7000   H         1 RES1   0.0000
    40 C21     -1.3281  -1.1155  11.0776   C.3       1 RES1   0.0000
    41 H15     -1.3398  -1.8330  11.7459   H         1 RES1   0.0000
    42 H16     -0.9107  -1.4421  10.2536   H         1 RES1   0.0000
    43 H17     -2.2477  -0.8316  10.8891   H         1 RES1   0.0000
    44 C22     -1.4184   3.9206   9.7986   C.3       1 RES1   0.0000
    45 H18     -1.5945   3.6905   8.8618   H         1 RES1   0.0000
    46 H19     -0.4990   4.2476   9.8875   H         1 RES1   0.0000
    47 H20     -2.0422   4.6187  10.0866   H         1 RES1   0.0000
    48 C23      1.7380  -0.3166   5.2553   C.3       1 RES1   0.0000
    49 H21      2.5254   0.1129   5.6980   H         1 RES1   0.0000
    50 C24     -1.6988   0.4629   7.9712   C.1       1 RES1   0.0000
    51 C25     -1.0729   0.5479  12.9720   C.3       1 RES1   0.0000
    52 H22     -1.9979   0.8506  12.8622   H         1 RES1   0.0000
    53 H23     -0.5258   1.2886  13.3067   H         1 RES1   0.0000
    54 H24     -1.0463  -0.1932  13.6124   H         1 RES1   0.0000
    55 C26      5.4847   0.5562   6.5156   C.ar      1 RES1   0.0000
    56 H25      6.1146  -0.1454   6.3979   H         1 RES1   0.0000
    57 C27      5.6533   1.7644   5.8430   C.ar      1 RES1   0.0000
    58 H26      6.3886   1.8872   5.2535   H         1 RES1   0.0000
    59 C28     -1.5349  -2.5822   7.0657   C.3       1 RES1   0.0000
    60 H27     -2.2851  -1.9595   7.1622   H         1 RES1   0.0000
    61 H28     -1.0657  -2.6647   7.9225   H         1 RES1   0.0000
    62 H29     -1.8719  -3.4611   6.7921   H         1 RES1   0.0000
    63 C29     -3.0357   2.1581  10.5376   C.3       1 RES1   0.0000
    64 H30     -3.6582   2.8164  10.9113   H         1 RES1   0.0000
    65 H31     -3.1237   1.3120  11.0239   H         1 RES1   0.0000
    66 H32     -3.2431   2.0136   9.5898   H         1 RES1   0.0000
    67 C30     -1.3698  -1.5820   4.7792   C.3       1 RES1   0.0000
    68 H33     -1.9936  -2.2891   4.5113   H         1 RES1   0.0000
    69 H34     -0.7613  -1.3834   4.0367   H         1 RES1   0.0000
    70 H35     -1.8748  -0.7748   5.0142   H         1 RES1   0.0000
    71 C31      1.2060   0.7197   4.2696   C.3       1 RES1   0.0000
    72 H36      1.9480   1.0773   3.7390   H         1 RES1   0.0000
    73 H37      0.7765   1.4502   4.7627   H         1 RES1   0.0000
    74 H38      0.5516   0.2989   3.6746   H         1 RES1   0.0000
    75 C32      2.2867  -1.5694   4.5664   C.3       1 RES1   0.0000
    76 H39      1.5779  -1.9848   4.0306   H         1 RES1   0.0000
    77 H40      2.5976  -2.2051   5.2434   H         1 RES1   0.0000
    78 H41      3.0347  -1.3211   3.9844   H         1 RES1   0.0000
    79 B1       2.2397   1.1562   8.6337   B         1 RES1   0.0000
@<TRIPOS>BOND
     1     1     2    1
     2     2    12    1
     3     3     1    1
     4     4    17    3
     5     5    50    3
     6     6     1   un
     7     7     8    1
     8     9     7   ar
     9    10     6   ar
    10    11    10    1
    11    12     9   ar
    12    13     7   ar
    13    14    13    1
    14    15    12   ar
    15    16    15    1
    16    17     1    1
    17    18     3    1
    18    19     2    1
    19    20    19    1
    20    21    26   ar
    21    22    18   ar
    22    23    22    1
    23    24    13   ar
    24    25    24    1
    25    26    27    1
    26    28     2    1
    27    29    28    1
    28    30    10   ar
    29    31    30    1
    30    32    22   ar
    31    33    32    1
    32    34    35    1
    33    36    21   ar
    34    37    36    1
    35    38     3    1
    36    39    38    1
    37    40    19    1
    38    41    40    1
    39    42    40    1
    40    43    40    1
    41    44    28    1
    42    45    44    1
    43    46    44    1
    44    47    44    1
    45    48     3    1
    46    49    48    1
    47    50     1    1
    48    51    19    1
    49    52    51    1
    50    53    51    1
    51    54    51    1
    52    55    26   ar
    53    56    55    1
    54    57    34   ar
    55    58    57    1
    56    59    38    1
    57    60    59    1
    58    61    59    1
    59    62    59    1
    60    63    28    1
    61    64    63    1
    62    65    63    1
    63    66    63    1
    64    67    38    1
    65    68    67    1
    66    69    67    1
    67    70    67    1
    68    71    48    1
    69    72    71    1
    70    73    71    1
    71    74    71    1
    72    75    48    1
    73    76    75    1
    74    77    75    1
    75    78    75    1
    76    79     1    1
    77     6    18   ar
    78     6    79    1
    79     9    79    1
    80    15    24   ar
    81    21    79    1
    82    30    32   ar
    83    34    36   ar
    84    55    57   ar
@<TRIPOS>SUBSTRUCTURE
     1 RES1        1 GROUP             0 ****  ****    0  
@<TRIPOS>CRYSIN
   16.8731    9.0298   21.5015   90.0000  110.7040   90.0000    14     1
