@<TRIPOS>MOLECULE
DOBZUS
    86    93     2     0     0
SMALL
NO_CHARGES
****
Generated from the CSD

@<TRIPOS>ATOM
     1 Fe1      8.6076   1.3209  24.4757   Fe        1 RES1   0.0000
     2 S1      10.1747   0.7249  21.5476   S.o2      1 RES1   0.0000
     3 N1       7.1920  -0.0713  23.6557   N.2       1 RES1   0.0000
     4 O1      10.0496   1.1486  22.9376   O.3       1 RES1   0.0000
     5 F1       9.7037   3.2159  20.8936   F         1 RES1   0.0000
     6 C1       5.9859  -0.1256  22.9560   C.ar      1 RES1   0.0000
     7 S2       7.4505   4.3902  23.8338   S.o2      1 RES1   0.0000
     8 N2       6.7957  -2.1958  23.0537   N.pl3     1 RES1   0.0000
     9 O2       8.9383   0.3375  20.9356   O.2       1 RES1   0.0000
    10 F2      10.7712   2.0871  19.4185   F         1 RES1   0.0000
    11 C2       5.0803   0.8954  22.6481   C.ar      1 RES1   0.0000
    12 H1       5.2519   1.7983  22.8882   H         1 RES1   0.0000
    13 N3       9.2425  -0.6507  25.3509   N.3       1 RES1   0.0000
    14 O3      11.2968  -0.1360  21.3180   O.2       1 RES1   0.0000
    15 F3      11.7845   2.7584  21.2030   F         1 RES1   0.0000
    16 C3       3.9262   0.5354  21.9789   C.ar      1 RES1   0.0000
    17 H2       3.2782   1.2001  21.7745   H         1 RES1   0.0000
    18 N4       7.7138   1.5114  26.5171   N.3       1 RES1   0.0000
    19 C4       3.6896  -0.8138  21.5896   C.ar      1 RES1   0.0000
    20 H3       2.8966  -1.0248  21.1126   H         1 RES1   0.0000
    21 F4       7.1303   4.7799  21.2902   F         1 RES1   0.0000
    22 O4       7.4978   2.9637  23.5995   O.3       1 RES1   0.0000
    23 F5       6.3134   6.3241  22.5063   F         1 RES1   0.0000
    24 N5      10.0431   2.4949  25.5615   N.2       1 RES1   0.0000
    25 C5       4.5731  -1.8133  21.8854   C.ar      1 RES1   0.0000
    26 H4       4.4063  -2.7153  21.6379   H         1 RES1   0.0000
    27 O5       8.7223   5.0339  23.6867   O.2       1 RES1   0.0000
    28 N6      10.4166   3.8638  27.2757   N.pl3     1 RES1   0.0000
    29 C6       5.7418  -1.4373  22.5709   C.ar      1 RES1   0.0000
    30 F6       5.3266   4.4517  22.3629   F         1 RES1   0.0000
    31 O6       6.7178   4.7949  24.9480   O.2       1 RES1   0.0000
    32 C7       6.8807  -3.6482  23.0621   C.3       1 RES1   0.0000
    33 H5       7.8064  -3.9201  23.2349   H         1 RES1   0.0000
    34 H6       6.5938  -3.9970  22.1948   H         1 RES1   0.0000
    35 H7       6.2988  -4.0054  23.7655   H         1 RES1   0.0000
    36 C8       7.6131  -1.3183  23.6951   C.2       1 RES1   0.0000
    37 C9       8.9128  -1.6980  24.3538   C.3       1 RES1   0.0000
    38 H8       8.8241  -2.5774  24.8004   H         1 RES1   0.0000
    39 H9       9.6317  -1.7617  23.6762   H         1 RES1   0.0000
    40 C10     10.6732  -0.7585  25.7522   C.3       1 RES1   0.0000
    41 H10     10.9845   0.0844  26.1662   H         1 RES1   0.0000
    42 H11     11.2421  -0.9563  24.9685   H         1 RES1   0.0000
    43 C11     10.7230  -1.9193  26.7698   C.3       1 RES1   0.0000
    44 H12     10.8632  -2.7865  26.3133   H         1 RES1   0.0000
    45 H13     11.4484  -1.7824  27.4270   H         1 RES1   0.0000
    46 C12      9.3426  -1.8686  27.4480   C.3       1 RES1   0.0000
    47 H14      9.4271  -1.5498  28.3830   H         1 RES1   0.0000
    48 H15      8.9280  -2.7668  27.4532   H         1 RES1   0.0000
    49 C13      8.4825  -0.8776  26.6101   C.3       1 RES1   0.0000
    50 H16      7.5947  -1.2901  26.4026   H         1 RES1   0.0000
    51 C14      8.2827   0.4229  27.3834   C.3       1 RES1   0.0000
    52 H17      9.1564   0.7229  27.7684   H         1 RES1   0.0000
    53 C15      7.2504   0.2231  28.5291   C.3       1 RES1   0.0000
    54 H18      7.6120   0.5663  29.3864   H         1 RES1   0.0000
    55 H19      7.0377  -0.7379  28.6404   H         1 RES1   0.0000
    56 C16      5.9686   1.0257  28.1136   C.3       1 RES1   0.0000
    57 H20      5.1507   0.4772  28.2202   H         1 RES1   0.0000
    58 H21      5.8739   1.8555  28.6457   H         1 RES1   0.0000
    59 C17      6.2436   1.3408  26.6332   C.3       1 RES1   0.0000
    60 H22      5.9339   0.5982  26.0559   H         1 RES1   0.0000
    61 H23      5.7753   2.1705  26.3606   H         1 RES1   0.0000
    62 C18      8.1225   2.8306  27.0787   C.3       1 RES1   0.0000
    63 H24      8.0657   2.8147  28.0678   H         1 RES1   0.0000
    64 H25      7.5287   3.5460  26.7388   H         1 RES1   0.0000
    65 C19      9.5332   3.0781  26.6448   C.2       1 RES1   0.0000
    66 C20     11.3753   2.8934  25.5185   C.ar      1 RES1   0.0000
    67 C21     12.4163   2.5362  24.6617   C.ar      1 RES1   0.0000
    68 H26     12.2706   1.9539  23.9231   H         1 RES1   0.0000
    69 C22     13.6764   3.0631  24.9270   C.ar      1 RES1   0.0000
    70 H27     14.4056   2.8203  24.3696   H         1 RES1   0.0000
    71 C23     13.8951   3.9370  25.9850   C.ar      1 RES1   0.0000
    72 H28     14.7661   4.2942  26.1189   H         1 RES1   0.0000
    73 C24     12.8742   4.2989  26.8512   C.ar      1 RES1   0.0000
    74 H29     13.0242   4.8830  27.5846   H         1 RES1   0.0000
    75 C25     11.6232   3.7635  26.5891   C.ar      1 RES1   0.0000
    76 C26     10.2044   4.6683  28.4755   C.3       1 RES1   0.0000
    77 H30      9.2436   4.7836  28.6247   H         1 RES1   0.0000
    78 H31     10.6261   5.5449  28.3568   H         1 RES1   0.0000
    79 H32     10.6034   4.2135  29.2446   H         1 RES1   0.0000
    80 C27     10.6304   2.2896  20.7254   C.3       1 RES1   0.0000
    81 C28      6.5067   5.0161  22.4233   C.3       1 RES1   0.0000
    82 Cl1     -0.2874   6.9373  25.9009   Cl        2 RES2   0.0000
    83 Cl2     -2.2178   9.1200  25.9329   Cl        2 RES2   0.0000
    84 C29     -1.8979   7.4689  25.3257   C.3       2 RES2   0.0000
    85 H33     -1.9190   7.4642  24.3328   H         2 RES2   0.0000
    86 H34     -2.5945   6.8472  25.6566   H         2 RES2   0.0000
@<TRIPOS>BOND
     1     1     3    1
     2     2     4    1
     3     3     6    1
     4     4     1    1
     5     5    80    1
     6     6    11   ar
     7     7    22    1
     8     8    29    1
     9     9     2    2
    10    10    80    1
    11    11    12    1
    12    13     1    1
    13    14     2    2
    14    15    80    1
    15    16    11   ar
    16    17    16    1
    17    18     1    1
    18    19    16   ar
    19    20    19    1
    20    21    81    1
    21    22     1    1
    22    23    81    1
    23    24     1    1
    24    25    19   ar
    25    26    25    1
    26    27     7    2
    27    28    65    1
    28    29     6   ar
    29    30    81    1
    30    31     7    2
    31    32     8    1
    32    33    32    1
    33    34    32    1
    34    35    32    1
    35    36     3    2
    36    37    13    1
    37    38    37    1
    38    39    37    1
    39    40    13    1
    40    41    40    1
    41    42    40    1
    42    43    40    1
    43    44    43    1
    44    45    43    1
    45    46    43    1
    46    47    46    1
    47    48    46    1
    48    49    13    1
    49    50    49    1
    50    51    18    1
    51    52    51    1
    52    53    51    1
    53    54    53    1
    54    55    53    1
    55    56    53    1
    56    57    56    1
    57    58    56    1
    58    59    18    1
    59    60    59    1
    60    61    59    1
    61    62    18    1
    62    63    62    1
    63    64    62    1
    64    65    24    2
    65    66    24    1
    66    67    66   ar
    67    68    67    1
    68    69    67   ar
    69    70    69    1
    70    71    69   ar
    71    72    71    1
    72    73    71   ar
    73    74    73    1
    74    75    28    1
    75    76    28    1
    76    77    76    1
    77    78    76    1
    78    79    76    1
    79    80     2    1
    80    81     7    1
    81     8    36    1
    82    25    29   ar
    83    36    37    1
    84    46    49    1
    85    49    51    1
    86    56    59    1
    87    62    65    1
    88    66    75   ar
    89    73    75   ar
    90    82    84    1
    91    83    84    1
    92    84    85    1
    93    86    84    1
@<TRIPOS>SUBSTRUCTURE
     1 RES1        1 GROUP             0 ****  ****    0  
     2 RES2       82 GROUP             0 ****  ****    0  
@<TRIPOS>CRYSIN
   10.8264   10.8264   52.5320   90.0000   90.0000  120.0000   170     1
