@<TRIPOS>MOLECULE
DOCGUZ
    81    85     1     0     0
SMALL
NO_CHARGES
****
Generated from the CSD

@<TRIPOS>ATOM
     1 Fe1      4.8045   4.7949   6.2874   Fe        1 RES1   0.0000
     2 P1       3.2583   6.3858   6.0173   P.3       1 RES1   0.0000
     3 P2       6.1326   3.0201   6.0412   P.3       1 RES1   0.0000
     4 C1       2.7135   4.7703   3.8481   C.ar      1 RES1   0.0000
     5 O1       2.6120   2.8343   6.3174   O.2       1 RES1   0.0000
     6 O2       5.4964   5.5476   9.0384   O.2       1 RES1   0.0000
     7 O3       6.7968   6.5140   5.0078   O.2       1 RES1   0.0000
     8 C2       4.8387   2.9301   3.5941   C.ar      1 RES1   0.0000
     9 C3       5.0907   5.4181   2.8183   C.ar      1 RES1   0.0000
    10 C4       0.4911   4.5724   2.8311   C.ar      1 RES1   0.0000
    11 H1      -0.0835   4.1336   2.2145   H         1 RES1   0.0000
    12 C5       2.0952   6.7305   7.4350   C.3       1 RES1   0.0000
    13 H2       1.2836   7.1699   7.0503   H         1 RES1   0.0000
    14 C6       3.4609   3.6017   6.3177   C.1       1 RES1   0.0000
    15 C7       5.6766   2.2082   4.4687   C.ar      1 RES1   0.0000
    16 C8       5.2046   7.4312   1.4308   C.ar      1 RES1   0.0000
    17 H3       4.7960   8.2334   1.1270   H         1 RES1   0.0000
    18 C9       2.1669   5.7672   4.6927   C.ar      1 RES1   0.0000
    19 C10      5.1995   5.2025   7.9791   C.1       1 RES1   0.0000
    20 C11      3.8831   8.0337   5.4373   C.3       1 RES1   0.0000
    21 H4       4.4102   7.8473   4.6072   H         1 RES1   0.0000
    22 C12      4.5201   6.5970   2.3137   C.ar      1 RES1   0.0000
    23 H5       3.6405   6.8346   2.5817   H         1 RES1   0.0000
    24 C13      5.0895   1.0922   1.9828   C.ar      1 RES1   0.0000
    25 H6       4.8909   0.7248   1.1288   H         1 RES1   0.0000
    26 C14      1.8248   4.1876   2.9253   C.ar      1 RES1   0.0000
    27 H7       2.1474   3.5071   2.3459   H         1 RES1   0.0000
    28 C15      6.3803   5.1048   2.3434   C.ar      1 RES1   0.0000
    29 H8       6.7984   4.3080   2.6466   H         1 RES1   0.0000
    30 C16     -0.0068   5.5945   3.6315   C.ar      1 RES1   0.0000
    31 H9      -0.9084   5.8812   3.5449   H         1 RES1   0.0000
    32 C17      5.8745   0.3775   2.8842   C.ar      1 RES1   0.0000
    33 H10      6.2037  -0.4843   2.6556   H         1 RES1   0.0000
    34 C18      2.6594   7.6749   8.5039   C.3       1 RES1   0.0000
    35 H11      2.0907   7.6424   9.3008   H         1 RES1   0.0000
    36 H12      2.6801   8.5890   8.1539   H         1 RES1   0.0000
    37 H13      3.5686   7.3951   8.7408   H         1 RES1   0.0000
    38 C19      1.6345   5.4291   8.0949   C.3       1 RES1   0.0000
    39 H14      2.3925   5.0091   8.5536   H         1 RES1   0.0000
    40 H15      1.2891   4.8194   7.4086   H         1 RES1   0.0000
    41 H16      0.9268   5.6238   8.7444   H         1 RES1   0.0000
    42 C20      5.9957   5.8211   5.4663   C.1       1 RES1   0.0000
    43 C21      4.5968   2.3447   2.3326   C.ar      1 RES1   0.0000
    44 H17      4.0774   2.8246   1.6978   H         1 RES1   0.0000
    45 C22      0.8394   6.1887   4.5614   C.ar      1 RES1   0.0000
    46 H18      0.5126   6.8888   5.1131   H         1 RES1   0.0000
    47 C23      6.1720   0.9351   4.1193   C.ar      1 RES1   0.0000
    48 H19      6.7141   0.4555   4.7350   H         1 RES1   0.0000
    49 C24      6.1262   1.6323   7.2764   C.3       1 RES1   0.0000
    50 H20      6.8804   1.0262   7.0269   H         1 RES1   0.0000
    51 C25      7.0631   5.9213   1.4452   C.ar      1 RES1   0.0000
    52 H21      7.9290   5.6746   1.1432   H         1 RES1   0.0000
    53 C26      6.4085   2.1132   8.7012   C.3       1 RES1   0.0000
    54 H22      5.6843   2.7027   8.9965   H         1 RES1   0.0000
    55 H23      7.2563   2.6045   8.7192   H         1 RES1   0.0000
    56 H24      6.4655   1.3412   9.3008   H         1 RES1   0.0000
    57 B1       4.3019   4.4367   3.8377   B         1 RES1   0.0000
    58 C27      4.8674   8.7007   6.4189   C.3       1 RES1   0.0000
    59 H25      5.4932   9.2663   5.9196   H         1 RES1   0.0000
    60 H26      5.3656   8.0098   6.9027   H         1 RES1   0.0000
    61 H27      4.3685   9.2511   7.0593   H         1 RES1   0.0000
    62 C28      2.7670   8.9905   5.0151   C.3       1 RES1   0.0000
    63 H28      2.1912   9.1817   5.7846   H         1 RES1   0.0000
    64 H29      2.2343   8.5771   4.3029   H         1 RES1   0.0000
    65 H30      3.1602   9.8252   4.6864   H         1 RES1   0.0000
    66 C29      6.4790   7.0979   0.9918   C.ar      1 RES1   0.0000
    67 H31      6.9456   7.6661   0.3907   H         1 RES1   0.0000
    68 C30      7.9300   3.4866   5.8550   C.3       1 RES1   0.0000
    69 H32      7.9895   4.0015   4.9997   H         1 RES1   0.0000
    70 C31      4.8594   0.7803   7.2548   C.3       1 RES1   0.0000
    71 H33      5.0246  -0.0627   7.7272   H         1 RES1   0.0000
    72 H34      4.6090   0.5910   6.3265   H         1 RES1   0.0000
    73 H35      4.1318   1.2650   7.6966   H         1 RES1   0.0000
    74 C32      8.4422   4.4333   6.9486   C.3       1 RES1   0.0000
    75 H36      8.6976   3.9118   7.7380   H         1 RES1   0.0000
    76 H37      7.7343   5.0667   7.1907   H         1 RES1   0.0000
    77 H38      9.2221   4.9261   6.6164   H         1 RES1   0.0000
    78 C33      8.9087   2.3256   5.7061   C.3       1 RES1   0.0000
    79 H39      9.7959   2.6739   5.4786   H         1 RES1   0.0000
    80 H40      8.6001   1.7273   4.9943   H         1 RES1   0.0000
    81 H41      8.9586   1.8306   6.5498   H         1 RES1   0.0000
@<TRIPOS>BOND
     1     1     2    1
     2     2    12    1
     3     3     1    1
     4     4    18   ar
     5     5    14    3
     6     6    19    3
     7     7    42    3
     8     8    15   ar
     9     9    22   ar
    10    10    11    1
    11    12    13    1
    12    14     1    1
    13    15     3    1
    14    16    17    1
    15    18     2    1
    16    19     1    1
    17    20     2    1
    18    21    20    1
    19    22    16   ar
    20    23    22    1
    21    24    25    1
    22    26     4   ar
    23    27    26    1
    24    28     9   ar
    25    29    28    1
    26    30    10   ar
    27    31    30    1
    28    32    24   ar
    29    33    32    1
    30    34    12    1
    31    35    34    1
    32    36    34    1
    33    37    34    1
    34    38    12    1
    35    39    38    1
    36    40    38    1
    37    41    38    1
    38    42     1    1
    39    43     8   ar
    40    44    43    1
    41    45    18   ar
    42    46    45    1
    43    47    15   ar
    44    48    47    1
    45    49     3    1
    46    50    49    1
    47    51    28   ar
    48    52    51    1
    49    53    49    1
    50    54    53    1
    51    55    53    1
    52    56    53    1
    53    57     1    1
    54    58    20    1
    55    59    58    1
    56    60    58    1
    57    61    58    1
    58    62    20    1
    59    63    62    1
    60    64    62    1
    61    65    62    1
    62    66    16   ar
    63    67    66    1
    64    68     3    1
    65    69    68    1
    66    70    49    1
    67    71    70    1
    68    72    70    1
    69    73    70    1
    70    74    68    1
    71    75    74    1
    72    76    74    1
    73    77    74    1
    74    78    68    1
    75    79    78    1
    76    80    78    1
    77    81    78    1
    78     4    57    1
    79     8    57    1
    80     9    57    1
    81    10    26   ar
    82    24    43   ar
    83    30    45   ar
    84    32    47   ar
    85    51    66   ar
@<TRIPOS>SUBSTRUCTURE
     1 RES1        1 GROUP             0 ****  ****    0  
@<TRIPOS>CRYSIN
   10.1059   16.9341   18.0259   90.0000   92.8380   90.0000   231     1
