@<TRIPOS>MOLECULE
DOCNFE
    97   104     1     0     0
SMALL
USER_CHARGES
****
Generated from the CSD

@<TRIPOS>ATOM
     1 Fe1      0.0000   0.0000   0.0000   Fe        1 RES1   0.0000
     2 N1       0.9779   1.0753   1.2473   N.2       1 RES1   0.0000
     3 N2      -1.4355   0.4242   1.2010   N.2       1 RES1   0.0000
     4 N3      -0.3685   2.5383  -1.6373   N.1       1 RES1   1.0000
     5 O1       2.3138   1.2644   1.1481   O.3       1 RES1  -1.0000
     6 O2      -2.7003  -0.0162   0.9916   O.3       1 RES1   0.0000
     7 C1       0.2811   1.5914   2.2367   C.2       1 RES1   0.0000
     8 C2      -1.1440   1.2334   2.1904   C.2       1 RES1   0.0000
     9 C3      -0.3487   1.5914  -1.0500   C.1       1 RES1   0.0000
    10 C4       0.8945   2.3857   3.3506   C.ar      1 RES1   0.0000
    11 C5       0.8658   1.8899   4.6463   C.ar      1 RES1   0.0000
    12 C6       1.4040   2.6329   5.7129   C.ar      1 RES1   0.0000
    13 C7       1.9232   3.9041   5.4385   C.ar      1 RES1   0.0000
    14 C8       1.9504   4.4255   4.1351   C.ar      1 RES1   0.0000
    15 C9       1.4337   3.6488   3.0674   C.ar      1 RES1   0.0000
    16 C10     -2.1335   1.7764   3.1501   C.ar      1 RES1   0.0000
    17 C11     -2.2724   3.1706   3.2614   C.ar      1 RES1   0.0000
    18 C12     -3.2194   3.7109   4.1715   C.ar      1 RES1   0.0000
    19 C13     -3.9981   2.8626   4.9262   C.ar      1 RES1   0.0000
    20 C14     -3.8749   1.4657   4.8215   C.ar      1 RES1   0.0000
    21 C15     -2.9498   0.9173   3.8982   C.ar      1 RES1   0.0000
    22 C16     -0.6399   3.8447  -2.2962   C.3       1 RES1   0.0000
    23 C17      0.4629   3.9622  -3.3572   C.3       1 RES1   0.0000
    24 C18      0.3459   5.3658  -4.0392   C.3       1 RES1   0.0000
    25 C19      0.4948   6.4532  -2.9573   C.3       1 RES1   0.0000
    26 C20     -0.6629   6.3182  -1.9028   C.3       1 RES1   0.0000
    27 C21     -0.5506   4.9119  -1.1911   C.3       1 RES1   0.0000
    28 H1      -2.5392  -0.7025   0.0331   H         1 RES1   0.0000
    29 H2       0.5125   1.0132   4.8920   H         1 RES1   0.0000
    30 H3       1.3574   2.4857   6.7321   H         1 RES1   0.0000
    31 H4       2.3340   4.5525   6.2032   H         1 RES1   0.0000
    32 H5       2.3886   5.1739   3.9004   H         1 RES1   0.0000
    33 H6       1.5038   4.0122   2.0604   H         1 RES1   0.0000
    34 H7      -1.7174   4.0122   2.6994   H         1 RES1   0.0000
    35 H8      -3.3697   4.7552   4.2199   H         1 RES1   0.0000
    36 H9      -4.6692   3.4853   5.5311   H         1 RES1   0.0000
    37 H10     -4.3399   0.4863   5.3879   H         1 RES1   0.0000
    38 H11     -2.7602  -0.1081   3.7351   H         1 RES1   0.0000
    39 H12     -1.4749   3.9041  -2.7545   H         1 RES1   0.0000
    40 H13      1.4309   3.7825  -2.7435   H         1 RES1   0.0000
    41 H14      0.1644   3.1341  -4.0216   H         1 RES1   0.0000
    42 H15     -0.4920   5.4171  -4.6827   H         1 RES1   0.0000
    43 H16      1.2684   5.5252  -4.6827   H         1 RES1   0.0000
    44 H17      1.2340   6.3087  -2.4240   H         1 RES1   0.0000
    45 H18      0.3783   7.3084  -3.5148   H         1 RES1   0.0000
    46 H19     -1.4027   6.4303  -2.5342   H         1 RES1   0.0000
    47 H20     -0.5648   6.9706  -1.2450   H         1 RES1   0.0000
    48 H21     -1.4310   4.7687  -0.4848   H         1 RES1   0.0000
    49 H22      0.4794   4.7552  -0.7602   H         1 RES1   0.0000
    50 N1B     -0.9779  -1.0753  -1.2473   N.2       1 RES1   0.0000
    51 N2B      1.4355  -0.4242  -1.2010   N.2       1 RES1   0.0000
    52 C3B      0.3487  -1.5914   1.0500   C.1       1 RES1   0.0000
    53 O1B     -2.3138  -1.2644  -1.1481   O.3       1 RES1  -1.0000
    54 C1B     -0.2811  -1.5914  -2.2367   C.2       1 RES1   0.0000
    55 O2B      2.7003   0.0162  -0.9916   O.3       1 RES1   0.0000
    56 C2B      1.1440  -1.2334  -2.1904   C.2       1 RES1   0.0000
    57 N3B      0.3685  -2.5383   1.6373   N.1       1 RES1   1.0000
    58 C4B     -0.8945  -2.3857  -3.3506   C.ar      1 RES1   0.0000
    59 H1B      2.5392   0.7025  -0.0331   H         1 RES1   0.0000
    60 C10B     2.1335  -1.7764  -3.1501   C.ar      1 RES1   0.0000
    61 C16B     0.6399  -3.8447   2.2962   C.3       1 RES1   0.0000
    62 C5B     -0.8658  -1.8899  -4.6463   C.ar      1 RES1   0.0000
    63 C9B     -1.4337  -3.6488  -3.0674   C.ar      1 RES1   0.0000
    64 C11B     2.2724  -3.1706  -3.2614   C.ar      1 RES1   0.0000
    65 C15B     2.9498  -0.9173  -3.8982   C.ar      1 RES1   0.0000
    66 C17B    -0.4629  -3.9622   3.3572   C.3       1 RES1   0.0000
    67 C21B     0.5506  -4.9119   1.1911   C.3       1 RES1   0.0000
    68 H12B     1.4749  -3.9041   2.7545   H         1 RES1   0.0000
    69 C6B     -1.4040  -2.6329  -5.7129   C.ar      1 RES1   0.0000
    70 H2B     -0.5125  -1.0132  -4.8920   H         1 RES1   0.0000
    71 C8B     -1.9504  -4.4255  -4.1351   C.ar      1 RES1   0.0000
    72 H6B     -1.5038  -4.0122  -2.0604   H         1 RES1   0.0000
    73 C12B     3.2194  -3.7109  -4.1715   C.ar      1 RES1   0.0000
    74 H7B      1.7174  -4.0122  -2.6994   H         1 RES1   0.0000
    75 C14B     3.8749  -1.4657  -4.8215   C.ar      1 RES1   0.0000
    76 H11B     2.7602   0.1081  -3.7351   H         1 RES1   0.0000
    77 C18B    -0.3459  -5.3658   4.0392   C.3       1 RES1   0.0000
    78 H13B    -1.4309  -3.7825   2.7435   H         1 RES1   0.0000
    79 H14B    -0.1644  -3.1341   4.0216   H         1 RES1   0.0000
    80 C20B     0.6629  -6.3182   1.9028   C.3       1 RES1   0.0000
    81 H21B     1.4310  -4.7687   0.4848   H         1 RES1   0.0000
    82 H22B    -0.4794  -4.7552   0.7602   H         1 RES1   0.0000
    83 C7B     -1.9232  -3.9041  -5.4385   C.ar      1 RES1   0.0000
    84 H3B     -1.3574  -2.4857  -6.7321   H         1 RES1   0.0000
    85 H5B     -2.3886  -5.1739  -3.9004   H         1 RES1   0.0000
    86 C13B     3.9981  -2.8626  -4.9262   C.ar      1 RES1   0.0000
    87 H8B      3.3697  -4.7552  -4.2199   H         1 RES1   0.0000
    88 H10B     4.3399  -0.4863  -5.3879   H         1 RES1   0.0000
    89 C19B    -0.4948  -6.4532   2.9573   C.3       1 RES1   0.0000
    90 H15B     0.4920  -5.4171   4.6827   H         1 RES1   0.0000
    91 H16B    -1.2684  -5.5252   4.6827   H         1 RES1   0.0000
    92 H19B     1.4027  -6.4303   2.5342   H         1 RES1   0.0000
    93 H20B     0.5648  -6.9706   1.2450   H         1 RES1   0.0000
    94 H4B     -2.3340  -4.5525  -6.2032   H         1 RES1   0.0000
    95 H9B      4.6692  -3.4853  -5.5311   H         1 RES1   0.0000
    96 H17B    -1.2340  -6.3087   2.4240   H         1 RES1   0.0000
    97 H18B    -0.3783  -7.3084   3.5148   H         1 RES1   0.0000
@<TRIPOS>BOND
     1     1     2    1
     2     2     5    1
     3     3     1    1
     4     4     9    3
     5     6     3    1
     6     7     2    2
     7     8     3    2
     8     9     1    1
     9    10     7    1
    10    11    10   ar
    11    12    11   ar
    12    13    12   ar
    13    14    13   ar
    14    15    10   ar
    15    16     8    1
    16    17    16   ar
    17    18    17   ar
    18    19    18   ar
    19    20    19   ar
    20    21    16   ar
    21    22     4    1
    22    23    22    1
    23    24    23    1
    24    25    24    1
    25    26    25    1
    26    27    22    1
    27    28     6    1
    28    29    11    1
    29    30    12    1
    30    31    13    1
    31    32    14    1
    32    33    15    1
    33    34    17    1
    34    35    18    1
    35    36    19    1
    36    37    20    1
    37    38    21    1
    38    39    22    1
    39    40    23    1
    40    41    23    1
    41    42    24    1
    42    43    24    1
    43    44    25    1
    44    45    25    1
    45    46    26    1
    46    47    26    1
    47    48    27    1
    48    49    27    1
    49    50     1    1
    50    51     1    1
    51    52     1    1
    52    53    50    1
    53    54    50    2
    54    55    51    1
    55    56    51    2
    56    57    52    3
    57    58    54    1
    58    59    55    1
    59    60    56    1
    60    61    57    1
    61    62    58   ar
    62    63    58   ar
    63    64    60   ar
    64    65    60   ar
    65    66    61    1
    66    67    61    1
    67    68    61    1
    68    69    62   ar
    69    70    62    1
    70    71    63   ar
    71    72    63    1
    72    73    64   ar
    73    74    64    1
    74    75    65   ar
    75    76    65    1
    76    77    66    1
    77    78    66    1
    78    79    66    1
    79    80    67    1
    80    81    67    1
    81    82    67    1
    82    83    69   ar
    83    84    69    1
    84    85    71    1
    85    86    73   ar
    86    87    73    1
    87    88    75    1
    88    89    77    1
    89    90    77    1
    90    91    77    1
    91    92    80    1
    92    93    80    1
    93    94    83    1
    94    95    86    1
    95    96    89    1
    96    97    89    1
    97     7     8    1
    98    14    15   ar
    99    20    21   ar
   100    26    27    1
   101    54    56    1
   102    71    83   ar
   103    75    86   ar
   104    80    89    1
@<TRIPOS>SUBSTRUCTURE
     1 RES1        1 GROUP             0 ****  ****    0  
@<TRIPOS>CRYSIN
   13.3370   13.5090   11.1530   90.0000   98.9200   90.0000   231     1
