@<TRIPOS>MOLECULE
DODVUP
    75    81     1     0     0
SMALL
NO_CHARGES
****
Generated from the CSD

@<TRIPOS>ATOM
     1 Fe1      2.5754   6.6227   4.4119   Fe        1 RES1   0.0000
     2 S1       3.3546   9.3810   6.3381   S.o2      1 RES1   0.0000
     3 O1       7.7574   6.6901   0.9281   O.3       1 RES1   0.0000
     4 N1       4.3647   6.9151   3.2850   N.ar      1 RES1   0.0000
     5 F1       4.5226   8.3463   8.4631   F         1 RES1   0.0000
     6 C1       4.4671   7.5370   2.0935   C.ar      1 RES1   0.0000
     7 H1       3.7215   8.0331   1.7793   H         1 RES1   0.0000
     8 S2       0.4640   8.7554   3.0602   S.o2      1 RES1   0.0000
     9 O2      -3.1722   5.5966   6.7150   O.3       1 RES1   0.0000
    10 N2       3.9277   5.1306   5.3407   N.3       1 RES1   0.0000
    11 F2       5.0437  10.4024   8.0694   F         1 RES1   0.0000
    12 C2       5.5895   7.4896   1.3144   C.ar      1 RES1   0.0000
    13 H2       5.6212   7.9542   0.4854   H         1 RES1   0.0000
    14 O3       3.2053   7.9862   5.9141   O.3       1 RES1   0.0000
    15 F3       5.8691   8.8176   6.8594   F         1 RES1   0.0000
    16 C3       6.6934   6.7452   1.7563   C.ar      1 RES1   0.0000
    17 N3       1.8275   4.7909   3.4336   N.3       1 RES1   0.0000
    18 N4       0.7011   6.2889   5.4214   N.ar      1 RES1   0.0000
    19 F4       0.6543   9.0703   0.4742   F         1 RES1   0.0000
    20 C4       6.6156   6.1072   2.9913   C.ar      1 RES1   0.0000
    21 H3       7.3491   5.6036   3.3270   H         1 RES1   0.0000
    22 O4       2.2799   9.8554   7.1605   O.2       1 RES1   0.0000
    23 O5       3.8438  10.2709   5.3333   O.2       1 RES1   0.0000
    24 C5       5.4401   6.2244   3.7222   C.ar      1 RES1   0.0000
    25 F5      -0.1169  10.7997   1.5220   F         1 RES1   0.0000
    26 O6       1.5000   7.7274   2.8896   O.3       1 RES1   0.0000
    27 C6       8.9000   5.9302   1.3803   C.3       1 RES1   0.0000
    28 H4       9.6039   5.9620   0.7001   H         1 RES1   0.0000
    29 H5       8.6337   4.9995   1.5328   H         1 RES1   0.0000
    30 H6       9.2375   6.3145   2.2161   H         1 RES1   0.0000
    31 F6       1.9870  10.3308   1.6051   F         1 RES1   0.0000
    32 O7      -0.8782   8.2784   2.8733   O.2       1 RES1   0.0000
    33 C7       5.3158   5.6226   5.1027   C.3       1 RES1   0.0000
    34 H7       5.9537   4.8708   5.1940   H         1 RES1   0.0000
    35 H8       5.5454   6.3042   5.7821   H         1 RES1   0.0000
    36 O8       0.6852   9.6209   4.1811   O.2       1 RES1   0.0000
    37 C8       3.7122   4.8301   6.7845   C.3       1 RES1   0.0000
    38 H9       2.7456   4.7743   6.9900   H         1 RES1   0.0000
    39 H10      4.1195   5.5305   7.3522   H         1 RES1   0.0000
    40 C9       4.3958   3.4764   7.0184   C.3       1 RES1   0.0000
    41 H11      3.9804   2.9971   7.7779   H         1 RES1   0.0000
    42 H12      5.3611   3.5939   7.2029   H         1 RES1   0.0000
    43 C10      4.1760   2.7135   5.6992   C.3       1 RES1   0.0000
    44 H13      3.4682   2.0288   5.8045   H         1 RES1   0.0000
    45 H14      5.0106   2.2672   5.4087   H         1 RES1   0.0000
    46 C11      3.7458   3.7945   4.6716   C.3       1 RES1   0.0000
    47 H15      4.3377   3.7430   3.8666   H         1 RES1   0.0000
    48 C12      2.2856   3.6133   4.2420   C.3       1 RES1   0.0000
    49 H16      1.7052   3.5105   5.0502   H         1 RES1   0.0000
    50 C13      2.1215   2.3820   3.3192   C.3       1 RES1   0.0000
    51 H17      2.8892   1.7640   3.4203   H         1 RES1   0.0000
    52 H18      1.2880   1.8927   3.5342   H         1 RES1   0.0000
    53 C14      2.0648   2.9516   1.8877   C.3       1 RES1   0.0000
    54 H19      1.1839   2.7718   1.4731   H         1 RES1   0.0000
    55 H20      2.7727   2.5509   1.3218   H         1 RES1   0.0000
    56 C15      2.2920   4.4677   2.0576   C.3       1 RES1   0.0000
    57 H21      3.2511   4.6909   1.9529   H         1 RES1   0.0000
    58 H22      1.7720   4.9761   1.3853   H         1 RES1   0.0000
    59 C16      0.3404   4.8796   3.4597   C.3       1 RES1   0.0000
    60 H23     -0.0441   3.9742   3.3475   H         1 RES1   0.0000
    61 H24      0.0317   5.4383   2.7034   H         1 RES1   0.0000
    62 C17     -0.1564   5.4769   4.7592   C.ar      1 RES1   0.0000
    63 C18     -1.4466   5.2353   5.1865   C.ar      1 RES1   0.0000
    64 H25     -2.0207   4.6587   4.6955   H         1 RES1   0.0000
    65 C19     -1.8898   5.8571   6.3545   C.ar      1 RES1   0.0000
    66 C20     -1.0178   6.6892   7.0599   C.ar      1 RES1   0.0000
    67 H26     -1.2902   7.1190   7.8619   H         1 RES1   0.0000
    68 C21      0.2609   6.8683   6.5472   C.ar      1 RES1   0.0000
    69 H27      0.8583   7.4334   7.0218   H         1 RES1   0.0000
    70 C22     -3.6062   6.1024   7.9820   C.3       1 RES1   0.0000
    71 H28     -4.5424   5.8523   8.1308   H         1 RES1   0.0000
    72 H29     -3.5247   7.0795   7.9889   H         1 RES1   0.0000
    73 H30     -3.0498   5.7235   8.6928   H         1 RES1   0.0000
    74 C23      4.7693   9.2269   7.4971   C.3       1 RES1   0.0000
    75 C24      0.7691   9.7950   1.5894   C.3       1 RES1   0.0000
@<TRIPOS>BOND
     1     1     4    1
     2     2    14    1
     3     3    16    1
     4     4     6   ar
     5     5    74    1
     6     6     7    1
     7     8    26    1
     8     9    65    1
     9    10     1    1
    10    11    74    1
    11    12     6   ar
    12    13    12    1
    13    14     1    1
    14    15    74    1
    15    16    12   ar
    16    17     1    1
    17    18     1    1
    18    19    75    1
    19    20    16   ar
    20    21    20    1
    21    22     2    2
    22    23     2    2
    23    24     4   ar
    24    25    75    1
    25    26     1    1
    26    27     3    1
    27    28    27    1
    28    29    27    1
    29    30    27    1
    30    31    75    1
    31    32     8    2
    32    33    10    1
    33    34    33    1
    34    35    33    1
    35    36     8    2
    36    37    10    1
    37    38    37    1
    38    39    37    1
    39    40    37    1
    40    41    40    1
    41    42    40    1
    42    43    40    1
    43    44    43    1
    44    45    43    1
    45    46    10    1
    46    47    46    1
    47    48    17    1
    48    49    48    1
    49    50    48    1
    50    51    50    1
    51    52    50    1
    52    53    50    1
    53    54    53    1
    54    55    53    1
    55    56    17    1
    56    57    56    1
    57    58    56    1
    58    59    17    1
    59    60    59    1
    60    61    59    1
    61    62    18   ar
    62    63    62   ar
    63    64    63    1
    64    65    63   ar
    65    66    65   ar
    66    67    66    1
    67    68    18   ar
    68    69    68    1
    69    70     9    1
    70    71    70    1
    71    72    70    1
    72    73    70    1
    73    74     2    1
    74    75     8    1
    75    20    24   ar
    76    24    33    1
    77    43    46    1
    78    46    48    1
    79    53    56    1
    80    59    62    1
    81    66    68   ar
@<TRIPOS>SUBSTRUCTURE
     1 RES1        1 GROUP             0 ****  ****    0  
@<TRIPOS>CRYSIN
   11.3080   14.6270   18.6700   90.0000   90.0000   90.0000    19     1
