@<TRIPOS>MOLECULE
DOJSOM
    95   102     1     0     0
SMALL
NO_CHARGES
****
Generated from the CSD

@<TRIPOS>ATOM
     1 C1       1.3517   0.4753  12.6296   C.3       1 RES1   0.0000
     2 C2       7.4418   4.2402   7.3456   C.3       1 RES1   0.0000
     3 C3       2.6532   1.2605  12.8492   C.3       1 RES1   0.0000
     4 H1       2.5469   1.8556  13.5945   H         1 RES1   0.0000
     5 H2       3.3701   0.6488  13.0297   H         1 RES1   0.0000
     6 H3       2.8572   1.7688  12.0601   H         1 RES1   0.0000
     7 C4       4.7451   5.8747  11.3431   C.3       1 RES1   0.0000
     8 C5       4.2307   4.9407  12.4351   C.3       1 RES1   0.0000
     9 H4       4.1732   5.4201  13.2650   H         1 RES1   0.0000
    10 H5       3.3607   4.6163  12.1934   H         1 RES1   0.0000
    11 H6       4.8330   4.2010  12.5339   H         1 RES1   0.0000
    12 C6      -4.2227   3.4343  13.5647   C.3       1 RES1   0.0000
    13 H7      -4.5034   3.3289  12.6531   H         1 RES1   0.0000
    14 H8      -4.9793   3.3331  14.1467   H         1 RES1   0.0000
    15 H9      -3.8422   4.3084  13.6839   H         1 RES1   0.0000
    16 C7      -3.1768   2.3763  13.9004   C.3       1 RES1   0.0000
    17 C8       1.5233  -0.4670  11.4467   C.3       1 RES1   0.0000
    18 H10      1.6937   0.0434  10.6512   H         1 RES1   0.0000
    19 H11      2.2626  -1.0580  11.6114   H         1 RES1   0.0000
    20 H12      0.7226  -0.9836  11.3290   H         1 RES1   0.0000
    21 C9       6.1290   6.4244  11.7542   C.3       1 RES1   0.0000
    22 H13      6.4565   7.0112  11.0685   H         1 RES1   0.0000
    23 H14      6.0496   6.9058  12.5794   H         1 RES1   0.0000
    24 H15      6.7424   5.6929  11.8671   H         1 RES1   0.0000
    25 C10      1.0824  -0.3554  13.8816   C.3       1 RES1   0.0000
    26 H16      0.9725   0.2294  14.6362   H         1 RES1   0.0000
    27 H17      0.2826  -0.8720  13.7576   H         1 RES1   0.0000
    28 H18      1.8238  -0.9443  14.0400   H         1 RES1   0.0000
    29 C11     -3.8274   0.9898  13.7561   C.3       1 RES1   0.0000
    30 H19     -4.1159   0.8637  12.8492   H         1 RES1   0.0000
    31 H20     -3.1889   0.3120  13.9867   H         1 RES1   0.0000
    32 H21     -4.5837   0.9299  14.3444   H         1 RES1   0.0000
    33 C12      8.4915   3.5748   8.2194   C.3       1 RES1   0.0000
    34 H22      8.5327   4.0232   9.0666   H         1 RES1   0.0000
    35 H23      8.2584   2.6553   8.3544   H         1 RES1   0.0000
    36 H24      9.3473   3.6286   7.7864   H         1 RES1   0.0000
    37 C13     -2.7304   2.5437  15.3501   C.3       1 RES1   0.0000
    38 H25     -2.0727   1.8783  15.5619   H         1 RES1   0.0000
    39 H26     -2.3508   3.4178  15.4677   H         1 RES1   0.0000
    40 H27     -3.4870   2.4425  15.9321   H         1 RES1   0.0000
    41 C14      7.3696   3.5356   6.0010   C.3       1 RES1   0.0000
    42 H28      7.0838   2.6284   6.1297   H         1 RES1   0.0000
    43 H29      6.7442   3.9922   5.4331   H         1 RES1   0.0000
    44 H30      8.2377   3.5418   5.5900   H         1 RES1   0.0000
    45 C15      3.8013   7.0856  11.2113   C.3       1 RES1   0.0000
    46 H31      4.1266   7.6704  10.5241   H         1 RES1   0.0000
    47 H32      2.9211   6.7798  10.9823   H         1 RES1   0.0000
    48 H33      3.7681   7.5568  12.0460   H         1 RES1   0.0000
    49 C16      7.8987   5.6722   7.0914   C.3       1 RES1   0.0000
    50 H34      7.9535   6.1433   7.9261   H         1 RES1   0.0000
    51 H35      8.7632   5.6619   6.6725   H         1 RES1   0.0000
    52 H36      7.2695   6.1124   6.5172   H         1 RES1   0.0000
    53 Fe1      1.1067   3.6864   9.0702   Fe        1 RES1   0.0000
    54 Cl1      3.7692  -1.1818   5.3052   Cl        1 RES1   0.0000
    55 Cl2     -3.0050   8.6528  10.9539   Cl        1 RES1   0.0000
    56 O1       2.4677   4.6665   9.9623   O.2       1 RES1   0.0000
    57 N1       2.5835   3.0543   8.0610   N.2       1 RES1   0.0000
    58 N2      -0.3448   4.2594  10.1664   N.2       1 RES1   0.0000
    59 O2       1.2355   2.3396  10.3908   O.2       1 RES1   0.0000
    60 O3       0.6313   5.2040   8.0359   O.3       1 RES1   0.0000
    61 C17      0.9176   1.7234   7.2373   C.ar      1 RES1   0.0000
    62 C18     -1.7090   6.3293  10.5524   C.ar      1 RES1   0.0000
    63 H37     -2.0694   6.0483  11.3619   H         1 RES1   0.0000
    64 C19      3.7887   3.6575   8.3387   C.2       1 RES1   0.0000
    65 C20      2.3104   1.9465   7.2812   C.ar      1 RES1   0.0000
    66 C21     -1.8265   3.4075  12.0020   C.2       1 RES1   0.0000
    67 H38     -2.4820   4.0584  11.8922   H         1 RES1   0.0000
    68 O4       0.1329   2.5239   7.9261   O.3       1 RES1   0.0000
    69 C22     -0.6886   3.4116  11.1705   C.2       1 RES1   0.0000
    70 C23      3.6732   4.5130   9.4620   C.2       1 RES1   0.0000
    71 C24      6.1060   4.2340   8.0782   C.2       1 RES1   0.0000
    72 C25     -1.9747   2.4549  12.9685   C.2       1 RES1   0.0000
    73 C26      0.2757   2.3722  11.2835   C.2       1 RES1   0.0000
    74 C27     -0.8366   5.5110   9.8323   C.ar      1 RES1   0.0000
    75 C28      0.2076   1.4547  12.3660   C.2       1 RES1   0.0000
    76 C29      5.9851   4.9531   9.2988   C.2       1 RES1   0.0000
    77 H39      6.7566   5.3499   9.6314   H         1 RES1   0.0000
    78 C30      3.1986   1.0559   6.6851   C.ar      1 RES1   0.0000
    79 H40      4.1187   1.1799   6.7494   H         1 RES1   0.0000
    80 C31     -0.2692   5.9615   8.6179   C.ar      1 RES1   0.0000
    81 C32      4.8351   5.1143  10.0299   C.2       1 RES1   0.0000
    82 C33     -2.0189   7.5650  10.0252   C.ar      1 RES1   0.0000
    83 C34      5.0042   3.5666   7.6327   C.2       1 RES1   0.0000
    84 H41      5.0557   3.0479   6.8623   H         1 RES1   0.0000
    85 C35      0.4313   0.6571   6.4842   C.ar      1 RES1   0.0000
    86 H42     -0.4860   0.5249   6.4089   H         1 RES1   0.0000
    87 C36     -1.5182   7.9762   8.7937   C.ar      1 RES1   0.0000
    88 H43     -1.7755   8.7986   8.4422   H         1 RES1   0.0000
    89 C37      2.6767  -0.0083   5.9995   C.ar      1 RES1   0.0000
    90 C38     -0.9126   1.5250  13.1473   C.2       1 RES1   0.0000
    91 H44     -0.9853   0.9195  13.8486   H         1 RES1   0.0000
    92 C39     -0.6585   7.1869   8.1049   C.ar      1 RES1   0.0000
    93 H45     -0.3285   7.4700   7.2828   H         1 RES1   0.0000
    94 C40      1.2898  -0.1839   5.8630   C.ar      1 RES1   0.0000
    95 H46      0.9597  -0.8823   5.3437   H         1 RES1   0.0000
@<TRIPOS>BOND
     1     1     3    1
     2     2    33    1
     3     3     4    1
     4     5     3    1
     5     6     3    1
     6     7     8    1
     7     8     9    1
     8    10     8    1
     9    11     8    1
    10    12    13    1
    11    14    12    1
    12    15    12    1
    13    16    12    1
    14    17     1    1
    15    18    17    1
    16    19    17    1
    17    20    17    1
    18    21     7    1
    19    22    21    1
    20    23    21    1
    21    24    21    1
    22    25     1    1
    23    26    25    1
    24    27    25    1
    25    28    25    1
    26    29    16    1
    27    30    29    1
    28    31    29    1
    29    32    29    1
    30    33    34    1
    31    35    33    1
    32    36    33    1
    33    37    16    1
    34    38    37    1
    35    39    37    1
    36    40    37    1
    37    41     2    1
    38    42    41    1
    39    43    41    1
    40    44    41    1
    41    45     7    1
    42    46    45    1
    43    47    45    1
    44    48    45    1
    45    49     2    1
    46    50    49    1
    47    51    49    1
    48    52    49    1
    49    53    56    1
    50    54    89    1
    51    55    82    1
    52    56    70    2
    53    57    53    1
    54    58    53    1
    55    59    53    1
    56    60    53    1
    57    61    65   ar
    58    62    63    1
    59    64    57    2
    60    65    57    1
    61    66    67    1
    62    68    53    1
    63    69    58    2
    64    70    64    1
    65    71     2    1
    66    72    16    1
    67    73    59    2
    68    74    58    1
    69    75     1    1
    70    76    71    1
    71    77    76    1
    72    78    65   ar
    73    79    78    1
    74    80    60    1
    75    81     7    1
    76    82    62   ar
    77    83    64    1
    78    84    83    1
    79    85    61   ar
    80    86    85    1
    81    87    82   ar
    82    88    87    1
    83    89    78   ar
    84    90    72    1
    85    91    90    1
    86    92    80   ar
    87    93    92    1
    88    94    85   ar
    89    95    94    1
    90    61    68    1
    91    62    74   ar
    92    66    69    1
    93    66    72    2
    94    69    73    1
    95    70    81    1
    96    71    83    2
    97    73    75    1
    98    74    80   ar
    99    75    90    2
   100    76    81    2
   101    87    92   ar
   102    89    94   ar
@<TRIPOS>SUBSTRUCTURE
     1 RES1        1 GROUP             0 ****  ****    0  
@<TRIPOS>CRYSIN
   11.8964   20.6638   15.8441   90.0000   98.0250   90.0000   231     1
