@<TRIPOS>MOLECULE
DOKLEX
    92    95     2     0     0
SMALL
USER_CHARGES
****
Generated from the CSD

@<TRIPOS>ATOM
     1 Fe1      1.9379  -0.0455  12.9269   Fe        1 RES1   0.0000
     2 O1       3.7780   0.8044  15.0054   O.2       1 RES1   0.0000
     3 O2       0.1092  -1.3452  14.8278   O.2       1 RES1   0.0000
     4 N1      -0.5899   3.6420  11.8324   N.pl3     1 RES1   0.0000
     5 O3       3.6000  -2.1253  11.7139   O.2       1 RES1   0.0000
     6 N2       0.5791   0.3973  11.4041   N.3       1 RES1   0.0000
     7 N3       3.9124   2.2358  11.8579   N.pl3     1 RES1   1.0000
     8 C1      -1.2538   3.1817  10.6170   C.ar      1 RES1   0.0000
     9 C2      -2.5637   2.6787  10.7307   C.ar      1 RES1   0.0000
    10 C3      -3.3918   2.7019  11.9962   C.3       1 RES1   0.0000
    11 H1      -2.8393   3.1090  12.7231   H         1 RES1   0.0000
    12 C4      -0.5787   3.2330   9.3893   C.ar      1 RES1   0.0000
    13 C5      -1.2195   2.6864   8.2698   C.ar      1 RES1   0.0000
    14 H2      -0.7793   2.7000   7.4268   H         1 RES1   0.0000
    15 C6       0.5163   3.5625  13.8883   C.3       1 RES1   0.0000
    16 C7       0.2770   2.8890  12.5205   C.2       1 RES1   0.0000
    17 C8       4.0360   3.5732  11.2674   C.3       1 RES1   0.0000
    18 H3       4.5956   3.5257  10.4644   H         1 RES1   0.0000
    19 H4       4.4467   4.1799  11.9181   H         1 RES1   0.0000
    20 H5       3.1456   3.9066  11.0271   H         1 RES1   0.0000
    21 C9      -0.3983   4.8049  13.8466   C.3       1 RES1   0.0000
    22 H6      -1.2370   4.6344  14.3450   H         1 RES1   0.0000
    23 H7       0.0569   5.5851  14.2509   H         1 RES1   0.0000
    24 C10      0.3773   5.9359  11.7337   C.3       1 RES1   0.0000
    25 H8       1.2391   5.4717  11.7740   H         1 RES1   0.0000
    26 H9       0.4422   6.7858  12.2165   H         1 RES1   0.0000
    27 H10      0.1423   6.1094  10.7988   H         1 RES1   0.0000
    28 C11     -3.8700   1.3277  12.4708   C.3       1 RES1   0.0000
    29 H11     -4.5206   1.4401  13.1957   H         1 RES1   0.0000
    30 H12     -3.1038   0.8112  12.7992   H         1 RES1   0.0000
    31 H13     -4.2889   0.8519  11.7259   H         1 RES1   0.0000
    32 C12     -3.1400   2.1379   9.5694   C.ar      1 RES1   0.0000
    33 H14     -4.0138   1.7687   9.6194   H         1 RES1   0.0000
    34 C13      1.9692   3.9172  14.1852   C.3       1 RES1   0.0000
    35 H15      2.0280   4.3378  15.0679   H         1 RES1   0.0000
    36 H16      2.2981   4.5404  13.5040   H         1 RES1   0.0000
    37 H17      2.5135   3.1022  14.1728   H         1 RES1   0.0000
    38 C14     -2.0507   5.6878  12.1440   C.3       1 RES1   0.0000
    39 H18     -2.7326   5.1800  12.6330   H         1 RES1   0.0000
    40 H19     -2.2564   5.6733  11.1853   H         1 RES1   0.0000
    41 H20     -2.0434   6.6143  12.4628   H         1 RES1   0.0000
    42 C15      0.5988   5.1567   8.2870   C.3       1 RES1   0.0000
    43 H21     -0.1053   5.7256   8.6623   H         1 RES1   0.0000
    44 H22      0.3526   4.8902   7.3768   H         1 RES1   0.0000
    45 H23      1.4438   5.6539   8.2638   H         1 RES1   0.0000
    46 C16     -0.6988   5.0656  12.3753   C.3       1 RES1   0.0000
    47 C17     -0.0062   2.6070  14.9722   C.3       1 RES1   0.0000
    48 H24     -0.8870   2.2678  14.7115   H         1 RES1   0.0000
    49 H25     -0.0781   3.0867  15.8228   H         1 RES1   0.0000
    50 H26      0.6177   1.8569  15.0719   H         1 RES1   0.0000
    51 C18      0.7661  -0.8344  14.0507   C.1       1 RES1   0.0000
    52 C19      0.7679   3.8911   9.1689   C.3       1 RES1   0.0000
    53 H27      1.1198   4.1789  10.0599   H         1 RES1   0.0000
    54 C20      1.8137   2.9888   8.5151   C.3       1 RES1   0.0000
    55 H28      2.6326   3.5024   8.3539   H         1 RES1   0.0000
    56 H29      1.4665   2.6515   7.6631   H         1 RES1   0.0000
    57 H30      2.0119   2.2348   9.1088   H         1 RES1   0.0000
    58 C21     -2.4817   2.1272   8.3679   C.ar      1 RES1   0.0000
    59 H31     -2.8895   1.7377   7.6030   H         1 RES1   0.0000
    60 C22      1.0236  -0.0698  10.0846   C.3       1 RES1   0.0000
    61 H32      1.9543   0.1987   9.9398   H         1 RES1   0.0000
    62 H33      0.4572   0.3276   9.3891   H         1 RES1   0.0000
    63 H34      0.9545  -1.0467  10.0439   H         1 RES1   0.0000
    64 C23     -4.6468   3.5800  11.7940   C.3       1 RES1   0.0000
    65 H35     -5.0497   3.7806  12.6650   H         1 RES1   0.0000
    66 H36     -5.2949   3.1012  11.2353   H         1 RES1   0.0000
    67 H37     -4.3910   4.4173  11.3515   H         1 RES1   0.0000
    68 C24     -0.8121  -0.0107  11.6024   C.3       1 RES1   0.0000
    69 H38     -1.1421   0.3566  12.4488   H         1 RES1   0.0000
    70 H39     -0.8653  -0.9885  11.6278   H         1 RES1   0.0000
    71 H40     -1.3597   0.3285  10.8629   H         1 RES1   0.0000
    72 C25      5.2211   1.6785  12.1785   C.3       1 RES1   0.0000
    73 H41      5.8156   1.7716  11.4055   H         1 RES1   0.0000
    74 H42      5.1262   0.7298  12.4047   H         1 RES1   0.0000
    75 H43      5.6023   2.1592  12.9434   H         1 RES1   0.0000
    76 B1       1.0636   1.6630  12.0363   B         1 RES1   0.0000
    77 C26      2.9156  -1.3170  12.1765   C.1       1 RES1   0.0000
    78 B2       2.7255   1.5894  12.1004   B         1 RES1  -1.0000
    79 C27      3.0200   0.4545  14.1808   C.1       1 RES1   0.0000
    80 O4       4.0226   5.8187  16.5166   O.3       2 RES2   0.0000
    81 C28      5.2438   7.0717  14.9518   C.3       2 RES2   0.0000
    82 H44      5.8605   7.6019  15.5184   H         2 RES2   0.0000
    83 H45      5.1716   7.4972  14.0607   H         2 RES2   0.0000
    84 C29      5.1144   4.9503  16.0611   C.3       2 RES2   0.0000
    85 H46      4.7689   4.0500  15.8368   H         2 RES2   0.0000
    86 H47      5.8005   4.8573  16.7699   H         2 RES2   0.0000
    87 C30      5.7006   5.6084  14.8436   C.3       2 RES2   0.0000
    88 H48      5.3544   5.1916  14.0146   H         2 RES2   0.0000
    89 H49      6.6882   5.5454  14.8476   H         2 RES2   0.0000
    90 C31      3.8993   6.9196  15.5985   C.3       2 RES2   0.0000
    91 H50      3.6486   7.7472  16.0791   H         2 RES2   0.0000
    92 H51      3.2056   6.7267  14.9177   H         2 RES2   0.0000
@<TRIPOS>BOND
     1     1     6    1
     2     2    79    3
     3     3    51    3
     4     4     8    1
     5     5    77    3
     6     6    60    1
     7     7    17    1
     8     8     9   ar
     9     9    10    1
    10    10    11    1
    11    12     8   ar
    12    13    12   ar
    13    14    13    1
    14    15    16    1
    15    16     4    1
    16    17    18    1
    17    19    17    1
    18    20    17    1
    19    21    15    1
    20    22    21    1
    21    23    21    1
    22    24    25    1
    23    26    24    1
    24    27    24    1
    25    28    10    1
    26    29    28    1
    27    30    28    1
    28    31    28    1
    29    32     9   ar
    30    33    32    1
    31    34    15    1
    32    35    34    1
    33    36    34    1
    34    37    34    1
    35    38    39    1
    36    40    38    1
    37    41    38    1
    38    42    43    1
    39    44    42    1
    40    45    42    1
    41    46     4    1
    42    47    15    1
    43    48    47    1
    44    49    47    1
    45    50    47    1
    46    51     1    1
    47    52    12    1
    48    53    52    1
    49    54    52    1
    50    55    54    1
    51    56    54    1
    52    57    54    1
    53    58    13   ar
    54    59    58    1
    55    60    61    1
    56    62    60    1
    57    63    60    1
    58    64    10    1
    59    65    64    1
    60    66    64    1
    61    67    64    1
    62    68     6    1
    63    69    68    1
    64    70    68    1
    65    71    68    1
    66    72     7    1
    67    73    72    1
    68    74    72    1
    69    75    72    1
    70    76     1    1
    71    77     1    1
    72    78     1    1
    73    79     1    1
    74     6    76    1
    75     7    78    2
    76    16    76    1
    77    21    46    1
    78    24    46    1
    79    32    58   ar
    80    38    46    1
    81    42    52    1
    82    76    78    2
    83    80    84    1
    84    81    82    1
    85    83    81    1
    86    84    85    1
    87    86    84    1
    88    87    81    1
    89    88    87    1
    90    89    87    1
    91    90    80    1
    92    91    90    1
    93    92    90    1
    94    81    90    1
    95    84    87    1
@<TRIPOS>SUBSTRUCTURE
     1 RES1        1 GROUP             0 ****  ****    0  
     2 RES2       80 GROUP             0 ****  ****    0  
@<TRIPOS>CRYSIN
   16.6520    9.6913   21.4920   90.0000  111.3010   90.0000   231     1
