@<TRIPOS>MOLECULE
DOMQON
    82    94     2     0     0
SMALL
USER_CHARGES
****
Generated from the CSD

@<TRIPOS>ATOM
     1 Fe1      8.6520   2.5715   4.7540   Fe        1 RES1   2.0000
     2 N1       7.4857   0.9737   5.8170   N.ar      1 RES1   0.0000
     3 N2       9.0396   2.8984   6.7849   N.ar      1 RES1   0.0000
     4 N3      10.2595   4.1345   4.8167   N.2       1 RES1   0.0000
     5 N4      11.3185   5.6047   6.1383   N.pl3     1 RES1   0.0000
     6 C1       6.8005  -0.0409   5.3416   C.ar      1 RES1   0.0000
     7 C2       6.1931  -0.9828   6.1859   C.ar      1 RES1   0.0000
     8 H1       5.7605  -1.7202   5.8170   H         1 RES1   0.0000
     9 C3       6.2260  -0.8328   7.5360   C.ar      1 RES1   0.0000
    10 H2       5.8072  -1.4509   8.0894   H         1 RES1   0.0000
    11 C4       6.8956   0.2545   8.0761   C.ar      1 RES1   0.0000
    12 C5       7.5463   1.1100   7.1842   C.ar      1 RES1   0.0000
    13 C6       6.9527   0.5726   9.4851   C.ar      1 RES1   0.0000
    14 H3       6.4821   0.0420  10.0879   H         1 RES1   0.0000
    15 C7       7.6605   1.6100   9.9472   C.ar      1 RES1   0.0000
    16 H4       7.6622   1.7815  10.8619   H         1 RES1   0.0000
    17 C8       8.4132   2.4598   9.0877   C.ar      1 RES1   0.0000
    18 C9       8.3440   2.1746   7.6957   C.ar      1 RES1   0.0000
    19 C10      9.2109   3.5414   9.4718   C.ar      1 RES1   0.0000
    20 H5       9.2559   3.7812  10.3694   H         1 RES1   0.0000
    21 C11      9.9204   4.2504   8.5515   C.ar      1 RES1   0.0000
    22 H6      10.4620   4.9582   8.8158   H         1 RES1   0.0000
    23 C12      9.8235   3.8937   7.1861   C.ar      1 RES1   0.0000
    24 C13     10.4949   4.5470   6.0661   C.2       1 RES1   0.0000
    25 C14     11.6491   5.9535   4.8376   C.ar      1 RES1   0.0000
    26 C15     10.9950   5.0207   4.0124   C.ar      1 RES1   0.0000
    27 C16     12.4329   6.9852   4.3109   C.ar      1 RES1   0.0000
    28 H7      12.8811   7.5817   4.8662   H         1 RES1   0.0000
    29 C17     12.5194   7.0829   2.9703   C.ar      1 RES1   0.0000
    30 H8      13.0057   7.7794   2.5919   H         1 RES1   0.0000
    31 C18     11.8740   6.1319   2.1146   C.ar      1 RES1   0.0000
    32 H9      11.9657   6.2069   1.1923   H         1 RES1   0.0000
    33 C19     11.1213   5.1082   2.6413   C.ar      1 RES1   0.0000
    34 H10     10.7077   4.4879   2.0860   H         1 RES1   0.0000
    35 C20      6.7088  -0.1727   3.8355   C.3       1 RES1   0.0000
    36 H11      7.1846   0.5499   3.4210   H         1 RES1   0.0000
    37 H12      5.7865  -0.1454   3.5674   H         1 RES1   0.0000
    38 H13      7.0946  -1.0089   3.5636   H         1 RES1   0.0000
    39 H14     11.5072   6.0217   6.8267   H         1 RES1   0.0000
    40 N1C      9.8183   0.9737   3.6910   N.ar      1 RES1   0.0000
    41 N2C      8.2644   2.8984   2.7231   N.ar      1 RES1   0.0000
    42 N3C      7.0445   4.1345   4.6912   N.2       1 RES1   0.0000
    43 N4C      5.9855   5.6047   3.3696   N.pl3     1 RES1   0.0000
    44 C1C     10.5035  -0.0409   4.1664   C.ar      1 RES1   0.0000
    45 C2C     11.1109  -0.9828   3.3221   C.ar      1 RES1   0.0000
    46 H1C     11.5435  -1.7202   3.6910   H         1 RES1   0.0000
    47 C3C     11.0780  -0.8328   1.9719   C.ar      1 RES1   0.0000
    48 H2C     11.4968  -1.4509   1.4186   H         1 RES1   0.0000
    49 C4C     10.4084   0.2545   1.4319   C.ar      1 RES1   0.0000
    50 C5C      9.7577   1.1100   2.3237   C.ar      1 RES1   0.0000
    51 C6C     10.3513   0.5726   0.0228   C.ar      1 RES1   0.0000
    52 H3C     10.8219   0.0420  -0.5800   H         1 RES1   0.0000
    53 C7C      9.6435   1.6100  -0.4393   C.ar      1 RES1   0.0000
    54 H4C      9.6418   1.7815  -1.3539   H         1 RES1   0.0000
    55 C8C      8.8908   2.4598   0.4203   C.ar      1 RES1   0.0000
    56 C9C      8.9600   2.1746   1.8122   C.ar      1 RES1   0.0000
    57 C10C     8.0931   3.5414   0.0361   C.ar      1 RES1   0.0000
    58 H5C      8.0481   3.7812  -0.8614   H         1 RES1   0.0000
    59 C11C     7.3836   4.2504   0.9565   C.ar      1 RES1   0.0000
    60 H6C      6.8420   4.9582   0.6922   H         1 RES1   0.0000
    61 C12C     7.4805   3.8937   2.3218   C.ar      1 RES1   0.0000
    62 C13C     6.8091   4.5470   3.4419   C.2       1 RES1   0.0000
    63 C14C     5.6549   5.9535   4.6703   C.ar      1 RES1   0.0000
    64 C15C     6.3090   5.0207   5.4956   C.ar      1 RES1   0.0000
    65 C16C     4.8711   6.9852   5.1970   C.ar      1 RES1   0.0000
    66 H7C      4.4229   7.5817   4.6418   H         1 RES1   0.0000
    67 C17C     4.7846   7.0829   6.5377   C.ar      1 RES1   0.0000
    68 H8C      4.2983   7.7794   6.9161   H         1 RES1   0.0000
    69 C18C     5.4300   6.1319   7.3934   C.ar      1 RES1   0.0000
    70 H9C      5.3383   6.2069   8.3157   H         1 RES1   0.0000
    71 C19C     6.1827   5.1082   6.8666   C.ar      1 RES1   0.0000
    72 H10C     6.5963   4.4879   7.4219   H         1 RES1   0.0000
    73 C20C    10.5952  -0.1727   5.6724   C.3       1 RES1   0.0000
    74 H11C    10.1194   0.5499   6.0870   H         1 RES1   0.0000
    75 H12C    11.5175  -0.1454   5.9406   H         1 RES1   0.0000
    76 H13C    10.2094  -1.0089   5.9444   H         1 RES1   0.0000
    77 H14C     5.7968   6.0217   2.6812   H         1 RES1   0.0000
    78 B1      12.7479   8.0304   8.3157   B         2 RES2  -1.0000
    79 F1      13.9228   7.4476   7.8726   F         2 RES2   0.0000
    80 F2      11.7961   7.0647   8.4773   F         2 RES2   0.0000
    81 F3      12.3585   8.8928   7.3135   F         2 RES2   0.0000
    82 F4      12.9607   8.6508   9.4794   F         2 RES2   0.0000
@<TRIPOS>BOND
     1     1     2    1
     2     2     6   ar
     3     3     1    1
     4     4     1    1
     5     5    24    1
     6     6     7   ar
     7     7     8    1
     8     9     7   ar
     9    10     9    1
    10    11     9   ar
    11    12     2   ar
    12    13    11   ar
    13    14    13    1
    14    15    13   ar
    15    16    15    1
    16    17    15   ar
    17    18     3   ar
    18    19    17   ar
    19    20    19    1
    20    21    19   ar
    21    22    21    1
    22    23     3   ar
    23    24     4    2
    24    25     5    1
    25    26     4    1
    26    27    25   ar
    27    28    27    1
    28    29    27   ar
    29    30    29    1
    30    31    29   ar
    31    32    31    1
    32    33    26   ar
    33    34    33    1
    34    35     6    1
    35    36    35    1
    36    37    35    1
    37    38    35    1
    38    39     5    1
    39    40     1    1
    40    41     1    1
    41    42     1    1
    42    43    62    1
    43    44    40   ar
    44    45    44   ar
    45    46    45    1
    46    47    45   ar
    47    48    47    1
    48    49    47   ar
    49    50    40   ar
    50    51    49   ar
    51    52    51    1
    52    53    51   ar
    53    54    53    1
    54    55    53   ar
    55    56    41   ar
    56    57    55   ar
    57    58    57    1
    58    59    57   ar
    59    60    59    1
    60    61    41   ar
    61    62    42    2
    62    63    43    1
    63    64    42    1
    64    65    63   ar
    65    66    65    1
    66    67    65   ar
    67    68    67    1
    68    69    67   ar
    69    70    69    1
    70    71    64   ar
    71    72    71    1
    72    73    44    1
    73    74    73    1
    74    75    73    1
    75    76    73    1
    76    77    43    1
    77    11    12   ar
    78    12    18   ar
    79    17    18   ar
    80    21    23   ar
    81    23    24    1
    82    25    26   ar
    83    31    33   ar
    84    49    50   ar
    85    50    56   ar
    86    55    56   ar
    87    59    61   ar
    88    61    62    1
    89    63    64   ar
    90    69    71   ar
    91    78    79    1
    92    80    78    1
    93    81    78    1
    94    82    78    1
@<TRIPOS>SUBSTRUCTURE
     1 RES1        1 GROUP             0 ****  ****    0  
     2 RES2       78 GROUP             0 ****  ****    0  
@<TRIPOS>CRYSIN
   17.3040   11.3617   19.0159   90.0000   90.0000   90.0000    60     1
