@<TRIPOS>MOLECULE
DOMQIH
    82    92     4     0     0
SMALL
NO_CHARGES
****
Generated from the CSD

@<TRIPOS>ATOM
     1 Fe1      4.3139   3.7540   8.5586   Fe        1 RES1   0.0000
     2 N1       5.4573   4.2169  10.1428   N.ar      1 RES1   0.0000
     3 N2       5.9796   3.8953   7.6746   N.ar      1 RES1   0.0000
     4 N3       3.7654   3.3817   6.6770   N.2       1 RES1   0.0000
     5 N4       4.3421   1.8065   9.0284   N.ar      1 RES1   0.0000
     6 N5       2.5947   3.6218   9.3375   N.ar      1 RES1   0.0000
     7 N6       3.6957   5.6338   8.4066   N.2       1 RES1   0.0000
     8 N7       4.4595   3.2861   4.4879   N.2       1 RES1   0.0000
     9 N8       1.9357   7.0916   8.6930   N.2       1 RES1   0.0000
    10 C1       5.1603   4.4040  11.4269   C.ar      1 RES1   0.0000
    11 H1       4.2547   4.3149  11.7008   H         1 RES1   0.0000
    12 C2       6.1267   4.7296  12.3978   C.ar      1 RES1   0.0000
    13 H2       5.8673   4.8364  13.3063   H         1 RES1   0.0000
    14 C3       7.4398   4.8917  12.0385   C.ar      1 RES1   0.0000
    15 H3       8.0950   5.1049  12.6934   H         1 RES1   0.0000
    16 C4       7.8075   4.7379  10.6798   C.ar      1 RES1   0.0000
    17 C5       6.7736   4.3912   9.7957   C.ar      1 RES1   0.0000
    18 C6       9.1202   4.9427  10.1265   C.ar      1 RES1   0.0000
    19 H4       9.8336   5.1721  10.7096   H         1 RES1   0.0000
    20 C7       9.3733   4.8185   8.7909   C.ar      1 RES1   0.0000
    21 H5      10.2511   4.9819   8.4641   H         1 RES1   0.0000
    22 C8       8.3346   4.4452   7.8702   C.ar      1 RES1   0.0000
    23 C9       7.0661   4.2299   8.4139   C.ar      1 RES1   0.0000
    24 C10      8.4468   4.2981   6.4681   C.ar      1 RES1   0.0000
    25 H6       9.2865   4.4313   6.0436   H         1 RES1   0.0000
    26 C11      7.3386   3.9609   5.7114   C.ar      1 RES1   0.0000
    27 H7       7.4158   3.8673   4.7690   H         1 RES1   0.0000
    28 C12      6.0951   3.7554   6.3393   C.ar      1 RES1   0.0000
    29 C13      4.7860   3.4562   5.7752   C.2       1 RES1   0.0000
    30 C14      3.0886   3.1066   4.5399   C.ar      1 RES1   0.0000
    31 C15      2.6486   3.1529   5.8918   C.ar      1 RES1   0.0000
    32 C16      2.1655   2.9432   3.4917   C.ar      1 RES1   0.0000
    33 H8       2.4499   2.9229   2.5845   H         1 RES1   0.0000
    34 C17      0.8299   2.8148   3.8239   C.ar      1 RES1   0.0000
    35 H9       0.1876   2.7103   3.1310   H         1 RES1   0.0000
    36 C18      0.3952   2.8351   5.1704   C.ar      1 RES1   0.0000
    37 H10     -0.5293   2.7349   5.3629   H         1 RES1   0.0000
    38 C19      1.2934   2.9999   6.2172   C.ar      1 RES1   0.0000
    39 H11      1.0004   3.0079   7.1203   H         1 RES1   0.0000
    40 C20      5.3126   0.8883   8.9577   C.ar      1 RES1   0.0000
    41 H12      6.1687   1.1526   8.6444   H         1 RES1   0.0000
    42 C21      5.1102  -0.4588   9.3306   C.ar      1 RES1   0.0000
    43 H13      5.8344  -1.0720   9.2885   H         1 RES1   0.0000
    44 C22      3.8782  -0.8876   9.7523   C.ar      1 RES1   0.0000
    45 H14      3.7369  -1.7994   9.9828   H         1 RES1   0.0000
    46 C23      2.8219   0.0470   9.8418   C.ar      1 RES1   0.0000
    47 C24      3.1305   1.3721   9.5001   C.ar      1 RES1   0.0000
    48 C25      1.4790  -0.2343  10.2852   C.ar      1 RES1   0.0000
    49 H15      1.2388  -1.1302  10.4913   H         1 RES1   0.0000
    50 C26      0.5420   0.7482  10.4194   C.ar      1 RES1   0.0000
    51 H16     -0.3333   0.5237  10.7150   H         1 RES1   0.0000
    52 C27      0.8575   2.1239  10.1197   C.ar      1 RES1   0.0000
    53 C28      2.1484   2.3884   9.6655   C.ar      1 RES1   0.0000
    54 C29     -0.0083   3.2416  10.2255   C.ar      1 RES1   0.0000
    55 H17     -0.8980   3.1243  10.5374   H         1 RES1   0.0000
    56 C30      0.4419   4.5036   9.8757   C.ar      1 RES1   0.0000
    57 H18     -0.1387   5.2527   9.9489   H         1 RES1   0.0000
    58 C31      1.7620   4.6777   9.4106   C.ar      1 RES1   0.0000
    59 C32      2.4289   5.8571   8.8763   C.2       1 RES1   0.0000
    60 C33      2.9582   7.7396   8.0288   C.ar      1 RES1   0.0000
    61 C34      4.0643   6.8490   7.8580   C.ar      1 RES1   0.0000
    62 C35      3.0094   9.0383   7.4837   C.ar      1 RES1   0.0000
    63 H19      2.2689   9.6280   7.5542   H         1 RES1   0.0000
    64 C36      4.1632   9.4237   6.8477   C.ar      1 RES1   0.0000
    65 H20      4.2192  10.2972   6.4803   H         1 RES1   0.0000
    66 C37      5.2658   8.5576   6.7271   C.ar      1 RES1   0.0000
    67 H21      6.0532   8.8693   6.2972   H         1 RES1   0.0000
    68 C38      5.2344   7.2660   7.2193   C.ar      1 RES1   0.0000
    69 H22      5.9797   6.6850   7.1257   H         1 RES1   0.0000
    70 C39      9.6513   0.3617   8.3746   C.3       2 RES2   0.0000
    71 H23      9.9630  -0.5394   8.6797   H         2 RES2   0.0000
    72 Cl1      9.1634   1.2949   9.7912   Cl        2 RES2   0.0000
    73 Cl2      8.2948   0.1437   7.2758   Cl        2 RES2   0.0000
    74 Cl3     10.9776   1.1589   7.5388   Cl        2 RES2   0.0000
    75 C40      7.4374  -1.8638  13.3294   C.3       3 RES3   0.0000
    76 H24      6.8977  -2.5827  12.8927   H         3 RES3   0.0000
    77 Cl4      7.8358  -0.6555  12.1095   Cl        3 RES3   0.0000
    78 Cl5      6.4745  -1.1615  14.6283   Cl        3 RES3   0.0000
    79 Cl6      8.9222  -2.5945  13.9694   Cl        3 RES3   0.0000
    80 O1      -0.8597   7.3271   8.7917   O.3       4 RES4   0.0000
    81 H25     -0.0318   7.4191   8.8682   H         4 RES4   0.0000
    82 H26     -1.1773   7.5287   9.5448   H         4 RES4   0.0000
@<TRIPOS>BOND
     1     1     2    1
     2     2    10   ar
     3     3     1    1
     4     4     1    1
     5     5     1    1
     6     6     1    1
     7     7     1    1
     8     8    29    2
     9     9    59    2
    10    10    11    1
    11    12    10   ar
    12    13    12    1
    13    14    12   ar
    14    15    14    1
    15    16    14   ar
    16    17     2   ar
    17    18    16   ar
    18    19    18    1
    19    20    18   ar
    20    21    20    1
    21    22    20   ar
    22    23     3   ar
    23    24    22   ar
    24    25    24    1
    25    26    24   ar
    26    27    26    1
    27    28     3   ar
    28    29     4    1
    29    30     8    1
    30    31     4    1
    31    32    30   ar
    32    33    32    1
    33    34    32   ar
    34    35    34    1
    35    36    34   ar
    36    37    36    1
    37    38    31   ar
    38    39    38    1
    39    40     5   ar
    40    41    40    1
    41    42    40   ar
    42    43    42    1
    43    44    42   ar
    44    45    44    1
    45    46    44   ar
    46    47     5   ar
    47    48    46   ar
    48    49    48    1
    49    50    48   ar
    50    51    50    1
    51    52    50   ar
    52    53     6   ar
    53    54    52   ar
    54    55    54    1
    55    56    54   ar
    56    57    56    1
    57    58     6   ar
    58    59     7    1
    59    60     9    1
    60    61     7    1
    61    62    60   ar
    62    63    62    1
    63    64    62   ar
    64    65    64    1
    65    66    64   ar
    66    67    66    1
    67    68    61   ar
    68    69    68    1
    69    16    17   ar
    70    17    23   ar
    71    22    23   ar
    72    26    28   ar
    73    28    29    1
    74    30    31   ar
    75    36    38   ar
    76    46    47   ar
    77    47    53   ar
    78    52    53   ar
    79    56    58   ar
    80    58    59    1
    81    60    61   ar
    82    66    68   ar
    83    70    71    1
    84    72    70    1
    85    73    70    1
    86    74    70    1
    87    75    76    1
    88    77    75    1
    89    78    75    1
    90    79    75    1
    91    80    81    1
    92    82    80    1
@<TRIPOS>SUBSTRUCTURE
     1 RES1        1 GROUP             0 ****  ****    0  
     2 RES2       70 GROUP             0 ****  ****    0  
     3 RES3       75 GROUP             0 ****  ****    0  
     4 RES4       80 GROUP             0 ****  ****    0  
@<TRIPOS>CRYSIN
   12.4989   22.3803   13.5727   90.0000   92.4890   90.0000   231     1
