@<TRIPOS>MOLECULE
DOMZEL
    92    97     1     0     0
SMALL
NO_CHARGES
****
Generated from the CSD

@<TRIPOS>ATOM
     1 Fe1      9.7280   8.8680   3.9310   Fe        1 RES1   0.0000
     2 O1       8.1613   7.5043   3.9129   O.co2     1 RES1   0.0000
     3 O2       9.2638   8.0278   5.7010   O.co2     1 RES1   0.0000
     4 N1       8.4377  10.3353   3.9462   N.2       1 RES1   0.0000
     5 N2      10.2057   9.6787   2.3994   N.ar      1 RES1   0.0000
     6 N3      10.9446   7.5096   3.2392   N.2       1 RES1   0.0000
     7 C1       7.8286  12.5008   2.8568   C.3       1 RES1   0.0000
     8 H1       7.1342  12.5939   3.5311   H         1 RES1   0.0000
     9 H2       7.4066  12.5522   1.9786   H         1 RES1   0.0000
    10 H3       8.4120  13.2011   2.8902   H         1 RES1   0.0000
    11 C2       8.6275  11.2444   3.0184   C.2       1 RES1   0.0000
    12 C3       9.6899  10.9115   2.1047   C.ar      1 RES1   0.0000
    13 C4      10.1662  11.6229   1.0188   C.ar      1 RES1   0.0000
    14 H4       9.7993  12.4661   0.8379   H         1 RES1   0.0000
    15 C5      11.1755  11.0850   0.2400   C.ar      1 RES1   0.0000
    16 H5      11.5079  11.5498  -0.4806   H         1 RES1   0.0000
    17 C6      11.7177   9.8486   0.5652   C.ar      1 RES1   0.0000
    18 H6      12.3869   9.4713   0.0641   H         1 RES1   0.0000
    19 C7      11.2204   9.1530   1.6520   C.ar      1 RES1   0.0000
    20 C8      11.5969   7.8528   2.1558   C.2       1 RES1   0.0000
    21 C9      12.5964   7.0058   1.4405   C.3       1 RES1   0.0000
    22 H7      13.3755   7.4845   1.2753   H         1 RES1   0.0000
    23 H8      12.2343   6.7271   0.5704   H         1 RES1   0.0000
    24 H9      12.8406   6.2105   1.9370   H         1 RES1   0.0000
    25 C10      7.2418  10.3314   4.7554   C.ar      1 RES1   0.0000
    26 C11      7.3459  10.6258   6.1246   C.ar      1 RES1   0.0000
    27 C12      6.2164  10.4659   6.9118   C.ar      1 RES1   0.0000
    28 H10      6.2845  10.6772   7.8488   H         1 RES1   0.0000
    29 C13      5.0248  10.0355   6.3728   C.ar      1 RES1   0.0000
    30 H11      4.2543   9.9376   6.8988   H         1 RES1   0.0000
    31 C14      4.9289   9.7782   5.0193   C.ar      1 RES1   0.0000
    32 H12      4.1093   9.5310   4.6542   H         1 RES1   0.0000
    33 C15      6.0285   9.9147   4.1808   C.ar      1 RES1   0.0000
    34 C16      8.6370  11.1500   6.7157   C.3       1 RES1   0.0000
    35 H13      9.3348  10.8580   6.1554   H         1 RES1   0.0000
    36 C17      8.8910  10.6647   8.1305   C.3       1 RES1   0.0000
    37 H14      8.7709   9.7307   8.1404   H         1 RES1   0.0000
    38 H15      8.2634  11.0027   8.7781   H         1 RES1   0.0000
    39 H16      9.8050  10.9518   8.4320   H         1 RES1   0.0000
    40 C18      8.6797  12.6601   6.6439   C.3       1 RES1   0.0000
    41 H17      7.9886  13.0023   7.2096   H         1 RES1   0.0000
    42 H18      9.5141  13.0059   7.0173   H         1 RES1   0.0000
    43 H19      8.5582  13.0411   5.7180   H         1 RES1   0.0000
    44 C19      5.8542   9.5991   2.7068   C.3       1 RES1   0.0000
    45 H20      6.7099   9.6951   2.2846   H         1 RES1   0.0000
    46 C20      5.3849   8.1707   2.4742   C.3       1 RES1   0.0000
    47 H21      4.4840   8.0285   2.8614   H         1 RES1   0.0000
    48 H22      5.2997   7.9799   1.4916   H         1 RES1   0.0000
    49 H23      6.0141   7.5228   2.8534   H         1 RES1   0.0000
    50 C21      4.8659  10.5732   2.0557   C.3       1 RES1   0.0000
    51 H24      4.7789  10.4065   1.0975   H         1 RES1   0.0000
    52 H25      4.0329  10.4884   2.4240   H         1 RES1   0.0000
    53 H26      5.1645  11.5120   2.1437   H         1 RES1   0.0000
    54 C22     11.0280   6.1635   3.7596   C.ar      1 RES1   0.0000
    55 C23     11.8093   5.9106   4.8974   C.ar      1 RES1   0.0000
    56 C24     11.7579   4.6434   5.4578   C.ar      1 RES1   0.0000
    57 H27     12.2879   4.4694   6.2291   H         1 RES1   0.0000
    58 C25     10.9771   3.6474   4.9216   C.ar      1 RES1   0.0000
    59 H28     10.9592   2.7830   5.3383   H         1 RES1   0.0000
    60 C26     10.2350   3.9040   3.7868   C.ar      1 RES1   0.0000
    61 H29      9.7071   3.2252   3.4350   H         1 RES1   0.0000
    62 C27     10.2459   5.1504   3.1738   C.ar      1 RES1   0.0000
    63 C28      9.4522   5.3294   1.8907   C.3       1 RES1   0.0000
    64 H30      9.4836   6.2401   1.6358   H         1 RES1   0.0000
    65 C29     10.0759   4.4967   0.7615   C.3       1 RES1   0.0000
    66 H31      9.9292   3.5377   0.9453   H         1 RES1   0.0000
    67 H32      9.6327   4.6571  -0.0785   H         1 RES1   0.0000
    68 H33     11.0319   4.6843   0.6200   H         1 RES1   0.0000
    69 C30      7.9867   4.9442   2.0575   C.3       1 RES1   0.0000
    70 H34      7.8798   3.9516   2.2174   H         1 RES1   0.0000
    71 H35      7.5574   5.3661   2.8182   H         1 RES1   0.0000
    72 H36      7.4930   5.1144   1.2352   H         1 RES1   0.0000
    73 C31     12.7322   6.9461   5.5016   C.3       1 RES1   0.0000
    74 H37     12.6763   7.7381   4.9762   H         1 RES1   0.0000
    75 C32     14.1819   6.4690   5.4181   C.3       1 RES1   0.0000
    76 H38     14.8114   7.1432   5.6988   H         1 RES1   0.0000
    77 H39     14.3373   5.6805   5.9872   H         1 RES1   0.0000
    78 H40     14.4324   6.2192   4.4443   H         1 RES1   0.0000
    79 C33     12.3540   7.2585   6.9484   C.3       1 RES1   0.0000
    80 H41     11.4228   7.5494   6.9997   H         1 RES1   0.0000
    81 H42     12.4973   6.4962   7.5332   H         1 RES1   0.0000
    82 H43     12.9084   7.9837   7.2977   H         1 RES1   0.0000
    83 C34     11.1427   9.8793   4.8005   C.2       1 RES1   0.0000
    84 H44     11.2085   9.5997   5.7084   H         1 RES1   0.0000
    85 C35     11.9801  10.8162   4.3863   C.2       1 RES1   0.0000
    86 H45     12.6268  11.2084   4.9522   H         1 RES1   0.0000
    87 H46     12.0003  11.1422   3.4350   H         1 RES1   0.0000
    88 C36      8.3390   7.3601   5.1574   C.2       1 RES1   0.0000
    89 C37      7.4851   6.4402   5.9623   C.3       1 RES1   0.0000
    90 H47      7.6241   6.4997   6.8956   H         1 RES1   0.0000
    91 H48      6.6407   6.4109   5.6603   H         1 RES1   0.0000
    92 H49      7.6496   5.6348   5.7661   H         1 RES1   0.0000
@<TRIPOS>BOND
     1     1     2    1
     2     2    88   un
     3     3     1    1
     4     4     1    1
     5     5     1    1
     6     6     1    1
     7     7     8    1
     8     9     7    1
     9    10     7    1
    10    11     4    2
    11    12     5   ar
    12    13    12   ar
    13    14    13    1
    14    15    13   ar
    15    16    15    1
    16    17    15   ar
    17    18    17    1
    18    19     5   ar
    19    20     6    2
    20    21    20    1
    21    22    21    1
    22    23    21    1
    23    24    21    1
    24    25     4    1
    25    26    25   ar
    26    27    26   ar
    27    28    27    1
    28    29    27   ar
    29    30    29    1
    30    31    29   ar
    31    32    31    1
    32    33    25   ar
    33    34    26    1
    34    35    34    1
    35    36    34    1
    36    37    36    1
    37    38    36    1
    38    39    36    1
    39    40    34    1
    40    41    40    1
    41    42    40    1
    42    43    40    1
    43    44    33    1
    44    45    44    1
    45    46    44    1
    46    47    46    1
    47    48    46    1
    48    49    46    1
    49    50    44    1
    50    51    50    1
    51    52    50    1
    52    53    50    1
    53    54     6    1
    54    55    54   ar
    55    56    55   ar
    56    57    56    1
    57    58    56   ar
    58    59    58    1
    59    60    58   ar
    60    61    60    1
    61    62    54   ar
    62    63    62    1
    63    64    63    1
    64    65    63    1
    65    66    65    1
    66    67    65    1
    67    68    65    1
    68    69    63    1
    69    70    69    1
    70    71    69    1
    71    72    69    1
    72    73    55    1
    73    74    73    1
    74    75    73    1
    75    76    75    1
    76    77    75    1
    77    78    75    1
    78    79    73    1
    79    80    79    1
    80    81    79    1
    81    82    79    1
    82    83     1    1
    83    84    83    1
    84    85    83    2
    85    86    85    1
    86    87    85    1
    87    88     3   un
    88    89    88    1
    89    90    89    1
    90    91    89    1
    91    92    89    1
    92     7    11    1
    93    11    12    1
    94    17    19   ar
    95    19    20    1
    96    31    33   ar
    97    60    62   ar
@<TRIPOS>SUBSTRUCTURE
     1 RES1        1 GROUP             0 ****  ****    0  
@<TRIPOS>CRYSIN
   10.6786   10.6822   16.6653   74.1440   81.9090   66.3000     2     1
