@<TRIPOS>MOLECULE
DOPQOQ
   190   198    10     0     0
SMALL
USER_CHARGES
****
Generated from the CSD

@<TRIPOS>ATOM
     1 Fe1      6.8215   3.6836   5.4615   Fe        1 RES1   0.0000
     2 O1       6.2305   2.0283   6.4044   O.3       1 RES1  -1.0000
     3 O2       5.3402   4.8796   6.1829   O.3       1 RES1  -1.0000
     4 O3       7.4147   5.0696   4.1521   O.3       1 RES1  -1.0000
     5 O4       8.5297   2.8527   4.8357   O.3       1 RES1   0.0000
     6 O5       7.6794   4.3633   7.1234   O.3       1 RES1   0.0000
     7 O6       5.6108   2.9256   4.0648   O.3       1 RES1   0.0000
     8 O7       6.8545   7.1355  10.8182   O.2       1 RES1   0.0000
     9 O8      12.0490   3.5962   1.8252   O.2       1 RES1   0.0000
    10 O9       4.4977   7.8263   9.7445   O.2       1 RES1   0.0000
    11 C1       4.9890   1.8355   4.4072   C.2       1 RES1   0.0000
    12 C2       5.3130   1.3489   5.7956   C.2       1 RES1   0.0000
    13 O10      2.9743  -1.3104   6.0350   O.2       1 RES1   0.0000
    14 O11     10.9861   6.0214   1.2750   O.2       1 RES1   0.0000
    15 C3       6.5394   6.6058   9.7567   C.2       1 RES1   0.0000
    16 C4       4.7469   6.3079   7.9679   C.2       1 RES1   0.0000
    17 H1       3.8889   6.4525   7.6388   H         1 RES1   0.0000
    18 C5       4.6453   0.2941   6.3341   C.2       1 RES1   0.0000
    19 H2       4.8373   0.0246   7.2040   H         1 RES1   0.0000
    20 O12      2.6284  -0.6520   3.4717   O.2       1 RES1   0.0000
    21 C6       6.9727   5.1544   7.8694   C.2       1 RES1   0.0000
    22 C7       5.5964   5.4614   7.3026   C.2       1 RES1   0.0000
    23 C8       5.1604   6.9604   9.1450   C.2       1 RES1   0.0000
    24 C9       9.1866   3.5096   3.9369   C.2       1 RES1   0.0000
    25 C10      3.4336   0.0094   4.1329   C.2       1 RES1   0.0000
    26 C11     10.3593   3.1162   3.3621   C.2       1 RES1   0.0000
    27 H3      10.7374   2.3031   3.6088   H         1 RES1   0.0000
    28 C12      4.1310   1.1369   3.6107   C.2       1 RES1   0.0000
    29 H4       4.0012   1.3958   2.7275   H         1 RES1   0.0000
    30 C13      7.3626   5.6960   9.0464   C.2       1 RES1   0.0000
    31 H5       8.1931   5.4667   9.3976   H         1 RES1   0.0000
    32 C14      8.5300   4.8086   3.5420   C.2       1 RES1   0.0000
    33 C15     10.3726   5.2794   2.0422   C.2       1 RES1   0.0000
    34 C16     11.0105   3.9161   2.4021   C.2       1 RES1   0.0000
    35 C17      9.1126   5.6145   2.6182   C.2       1 RES1   0.0000
    36 H6       8.6850   6.3987   2.3586   H         1 RES1   0.0000
    37 C18      3.6620  -0.3996   5.5830   C.2       1 RES1   0.0000
    38 P1       2.2957   4.1391  12.1802   P.3       2 RES2   1.0000
    39 C19      1.2017   4.8067  10.9347   C.ar      2 RES2   0.0000
    40 C20      1.5256   2.8460  13.1436   C.ar      2 RES2   0.0000
    41 C21      0.0078   4.2295  10.5321   C.ar      2 RES2   0.0000
    42 H7      -0.3208   3.4939  10.9933   H         2 RES2   0.0000
    43 C22      2.8707   5.4843  13.2036   C.ar      2 RES2   0.0000
    44 C23      4.1461   5.9923  13.0433   C.ar      2 RES2   0.0000
    45 H8       4.7352   5.6043  12.4357   H         2 RES2   0.0000
    46 C24      3.7143   3.2935   9.9606   C.ar      2 RES2   0.0000
    47 H9       3.0169   3.6564   9.4617   H         2 RES2   0.0000
    48 C25      1.5423   2.8472  14.5244   C.ar      2 RES2   0.0000
    49 H10      1.9609   3.5419  14.9806   H         2 RES2   0.0000
    50 C26      0.9420   1.8208  15.2349   C.ar      2 RES2   0.0000
    51 H11      0.9624   1.8288  16.1648   H         2 RES2   0.0000
    52 C27      3.6806   3.3854  11.3262   C.ar      2 RES2   0.0000
    53 C28     -0.6920   4.7231   9.4694   C.ar      2 RES2   0.0000
    54 H12     -1.4874   4.3170   9.2074   H         2 RES2   0.0000
    55 C29      1.6527   5.9466  10.2517   C.ar      2 RES2   0.0000
    56 H13      2.4400   6.3673  10.5177   H         2 RES2   0.0000
    57 C30      0.3198   0.8024  14.5788   C.ar      2 RES2   0.0000
    58 H14     -0.1058   0.1300  15.0622   H         2 RES2   0.0000
    59 C31      1.9876   6.0841  14.1013   C.ar      2 RES2   0.0000
    60 H15      1.1183   5.7623  14.1886   H         2 RES2   0.0000
    61 C32      0.3210   0.7650  13.2160   C.ar      2 RES2   0.0000
    62 H16     -0.0988   0.0624  12.7734   H         2 RES2   0.0000
    63 C33      0.9416   1.7622  12.4842   C.ar      2 RES2   0.0000
    64 H17      0.9682   1.7101  11.5563   H         2 RES2   0.0000
    65 C34      4.7648   2.6694   9.2986   C.ar      2 RES2   0.0000
    66 H18      4.7735   2.6142   8.3707   H         2 RES2   0.0000
    67 C35      4.7249   2.8371  12.0629   C.ar      2 RES2   0.0000
    68 H19      4.7196   2.8881  12.9928   H         2 RES2   0.0000
    69 C36      0.9336   6.4457   9.1860   C.ar      2 RES2   0.0000
    70 H20      1.2305   7.2036   8.7356   H         2 RES2   0.0000
    71 C37     -0.2256   5.8186   8.7880   C.ar      2 RES2   0.0000
    72 H21     -0.6964   6.1394   8.0523   H         2 RES2   0.0000
    73 C38      5.7746   2.2114  11.4010   C.ar      2 RES2   0.0000
    74 H22      6.4734   1.8399  11.8882   H         2 RES2   0.0000
    75 C39      2.4072   7.1495  14.8564   C.ar      2 RES2   0.0000
    76 H23      1.8292   7.5380  15.4737   H         2 RES2   0.0000
    77 C40      4.5347   7.0842  13.7926   C.ar      2 RES2   0.0000
    78 H24      5.3858   7.4414  13.6761   H         2 RES2   0.0000
    79 C41      3.6841   7.6467  14.7030   C.ar      2 RES2   0.0000
    80 H25      3.9671   8.3648  15.2194   H         2 RES2   0.0000
    81 C42      5.7831   2.1409  10.0343   C.ar      2 RES2   0.0000
    82 H26      6.4929   1.7246   9.5995   H         2 RES2   0.0000
    83 P2      10.4469   9.1478   5.7958   P.3       3 RES3   1.0000
    84 C43     11.4151  10.0671   6.9699   C.ar      3 RES3   0.0000
    85 C44     11.0471   7.4592   5.7306   C.ar      3 RES3   0.0000
    86 C45     10.8480   5.1538   6.3382   C.ar      3 RES3   0.0000
    87 H27     10.3977   4.4693   6.7788   H         3 RES3   0.0000
    88 C46     10.4922   9.8374   4.1450   C.ar      3 RES3   0.0000
    89 C47      7.8315   8.4597   5.4530   C.ar      3 RES3   0.0000
    90 H28      8.1506   7.9878   4.7172   H         3 RES3   0.0000
    91 C48     10.3564   6.4489   6.3708   C.ar      3 RES3   0.0000
    92 H29      9.5655   6.6361   6.8216   H         3 RES3   0.0000
    93 C49     12.2194   7.1764   5.0523   C.ar      3 RES3   0.0000
    94 H30     12.6866   7.8535   4.6202   H         3 RES3   0.0000
    95 C50     10.4875  11.2002   3.9213   C.ar      3 RES3   0.0000
    96 H31     10.6551  11.7878   4.6221   H         3 RES3   0.0000
    97 C51      8.7168   9.1414   6.2714   C.ar      3 RES3   0.0000
    98 C52      9.9787  10.8514   1.6132   C.ar      3 RES3   0.0000
    99 H32      9.7743  11.1917   0.7726   H         3 RES3   0.0000
   100 C53      8.2340   9.8120   7.3593   C.ar      3 RES3   0.0000
   101 H33      8.8179  10.2504   7.9358   H         3 RES3   0.0000
   102 C54     11.1081  11.3717   7.3108   C.ar      3 RES3   0.0000
   103 H34     10.3879  11.7992   6.9070   H         3 RES3   0.0000
   104 C55     10.2638   8.9973   3.0711   C.ar      3 RES3   0.0000
   105 H35     10.2727   8.0770   3.2031   H         3 RES3   0.0000
   106 C56     12.4840   9.4523   7.6175   C.ar      3 RES3   0.0000
   107 H36     12.6997   8.5717   7.4039   H         3 RES3   0.0000
   108 C57     10.2357  11.6906   2.6537   C.ar      3 RES3   0.0000
   109 H37     10.2401  12.6100   2.5100   H         3 RES3   0.0000
   110 C58     12.0034   4.8868   5.6471   C.ar      3 RES3   0.0000
   111 H38     12.3181   4.0121   5.6083   H         3 RES3   0.0000
   112 C59     12.9078  11.4012   8.8773   C.ar      3 RES3   0.0000
   113 H39     13.4011  11.8516   9.5257   H         3 RES3   0.0000
   114 C60      6.8572   9.8366   7.6078   C.ar      3 RES3   0.0000
   115 H40      6.5275  10.3061   8.3396   H         3 RES3   0.0000
   116 C61     12.6903   5.8669   5.0240   C.ar      3 RES3   0.0000
   117 H41     13.4793   5.6674   4.5736   H         3 RES3   0.0000
   118 C62      6.4772   8.4800   5.7248   C.ar      3 RES3   0.0000
   119 H42      5.8853   8.0116   5.1812   H         3 RES3   0.0000
   120 C63     13.2244  10.1168   8.5590   C.ar      3 RES3   0.0000
   121 H43     13.9388   9.6945   8.9802   H         3 RES3   0.0000
   122 C64      6.0076   9.1833   6.7924   C.ar      3 RES3   0.0000
   123 H44      5.0935   9.2138   6.9594   H         3 RES3   0.0000
   124 C65     11.8711  12.0404   8.2503   C.ar      3 RES3   0.0000
   125 H45     11.6784  12.9259   8.4580   H         3 RES3   0.0000
   126 C66     10.0268   9.4904   1.8228   C.ar      3 RES3   0.0000
   127 H46      9.8967   8.9064   1.1104   H         3 RES3   0.0000
   128 P3       5.8330   3.5839  -1.5734   P.3       4 RES4   1.0000
   129 C67      8.7559   1.1562   0.9376   C.ar      4 RES4   0.0000
   130 H47      9.3706   0.6822   1.4501   H         4 RES4   0.0000
   131 C68      6.9207   2.5741  -0.5668   C.ar      4 RES4   0.0000
   132 C69      4.1746   3.5381  -0.9299   C.ar      4 RES4   0.0000
   133 C70      7.6245   1.6631   1.5181   C.ar      4 RES4   0.0000
   134 H48      7.4763   1.5264   2.4266   H         4 RES4   0.0000
   135 C71      5.9202   2.9439  -3.2419   C.ar      4 RES4   0.0000
   136 C72      6.6975   2.3797   0.7765   C.ar      4 RES4   0.0000
   137 H49      5.9350   2.7236   1.1822   H         4 RES4   0.0000
   138 C73      8.0684   2.0440  -1.1550   C.ar      4 RES4   0.0000
   139 H50      8.2211   2.1618  -2.0655   H         4 RES4   0.0000
   140 C74      6.2727   3.7306  -4.3232   C.ar      4 RES4   0.0000
   141 H51      6.4301   4.6416  -4.2067   H         4 RES4   0.0000
   142 C75      7.2250   7.9081  -1.5200   C.ar      4 RES4   0.0000
   143 H52      7.5118   8.7930  -1.5200   H         4 RES4   0.0000
   144 C76      5.6165   6.2612  -2.1198   C.ar      4 RES4   0.0000
   145 H53      4.8100   6.0419  -2.5256   H         4 RES4   0.0000
   146 C77      7.5694   5.6403  -0.9454   C.ar      4 RES4   0.0000
   147 H54      8.1042   4.9887  -0.5533   H         4 RES4   0.0000
   148 C78      8.9789   1.3419  -0.3883   C.ar      4 RES4   0.0000
   149 H55      9.7471   0.9958  -0.7823   H         4 RES4   0.0000
   150 C79      5.7123   1.5995  -3.4574   C.ar      4 RES4   0.0000
   151 H56      5.4835   1.0566  -2.7391   H         4 RES4   0.0000
   152 C80      6.1699   1.8248  -5.7733   C.ar      4 RES4   0.0000
   153 H57      6.2490   1.4581  -6.6235   H         4 RES4   0.0000
   154 C81      3.2052   2.7469  -1.4423   C.ar      4 RES4   0.0000
   155 H58      3.3898   2.2039  -2.1723   H         4 RES4   0.0000
   156 C82      6.3773   5.2788  -1.5297   C.ar      4 RES4   0.0000
   157 C83      5.8332   1.0362  -4.7153   C.ar      4 RES4   0.0000
   158 H59      5.6856   0.1255  -4.8376   H         4 RES4   0.0000
   159 C84      7.9793   6.9545  -0.9318   C.ar      4 RES4   0.0000
   160 H60      8.7782   7.1866  -0.5164   H         4 RES4   0.0000
   161 C85      2.6023   4.2488   0.7649   C.ar      4 RES4   0.0000
   162 H61      2.4190   4.7468   1.5297   H         4 RES4   0.0000
   163 C86      3.8662   4.2695   0.1980   C.ar      4 RES4   0.0000
   164 H62      4.5281   4.7922   0.5901   H         4 RES4   0.0000
   165 C87      6.3928   3.1573  -5.5772   C.ar      4 RES4   0.0000
   166 H63      6.6311   3.6914  -6.3013   H         4 RES4   0.0000
   167 C88      1.9246   2.7427  -0.8774   C.ar      4 RES4   0.0000
   168 H64      1.2645   2.2067  -1.2521   H         4 RES4   0.0000
   169 C89      1.6296   3.4894   0.1844   C.ar      4 RES4   0.0000
   170 H65      0.7653   3.4925   0.5280   H         4 RES4   0.0000
   171 C90      6.0489   7.5765  -2.1082   C.ar      4 RES4   0.0000
   172 H66      5.5287   8.2357  -2.5081   H         4 RES4   0.0000
   173 O13      2.8276   9.5013   8.1354   O.3       5 RES5   0.0000
   174 H67      3.0114  10.4537   8.1338   H         5 RES5   0.0000
   175 H68      3.5803   9.1480   8.6580   H         5 RES5   0.0000
   176 O14      3.4123   6.2065   4.5386   O.3       6 RES6   0.0000
   177 H69      4.0162   6.2440   3.7078   H         6 RES6   0.0000
   178 H70      4.0141   5.6957   5.1249   H         6 RES6   0.0000
   179 O15     -1.3863   0.8271   1.3996   O.3       7 RES7   0.0000
   180 H71     -1.2933   0.8432   0.4232   H         7 RES7   0.0000
   181 H72     -1.3218   1.7632   1.6501   H         7 RES7   0.0000
   182 O16      1.0653  -0.3892   1.3026   O.3       8 RES8   0.0000
   183 H73      0.2565  -0.3208   1.7665   H         8 RES8   0.0000
   184 H74      1.7698  -0.3334   1.9995   H         8 RES8   0.0000
   185 O17      5.4253   6.3881   2.5275   O.3       9 RES9   0.0000
   186 H75      6.1856   6.1106   3.0885   H         9 RES9   0.0000
   187 H76      5.6861   7.3436   1.9413   H         9 RES9   0.0000
   188 O18      1.8513   8.3715   5.7578   O.3      10 RES10   0.0000
   189 H77      2.7175   8.3303   5.0647   H        10 RES10   0.0000
   190 H78      2.1624   9.0477   6.4042   H        10 RES10   0.0000
@<TRIPOS>BOND
     1     1     2    1
     2     2    12    1
     3     3     1    1
     4     4     1    1
     5     5     1    1
     6     6     1    1
     7     7     1    1
     8     8    15    2
     9     9    34    2
    10    10    23    2
    11    11     7    1
    12    12    11    1
    13    13    37    2
    14    14    33    2
    15    15    23    1
    16    16    17    1
    17    18    12    2
    18    19    18    1
    19    20    25    2
    20    21     6    1
    21    22     3    1
    22    23    16    1
    23    24     5    1
    24    25    28    1
    25    26    24    2
    26    27    26    1
    27    28    11    2
    28    29    28    1
    29    30    15    1
    30    31    30    1
    31    32     4    1
    32    33    34    1
    33    34    26    1
    34    35    32    2
    35    36    35    1
    36    37    18    1
    37    16    22    2
    38    21    22    1
    39    21    30    2
    40    24    32    1
    41    25    37    1
    42    33    35    1
    43    38    39    1
    44    39    41   ar
    45    40    38    1
    46    41    42    1
    47    43    38    1
    48    44    43   ar
    49    45    44    1
    50    46    47    1
    51    48    40   ar
    52    49    48    1
    53    50    48   ar
    54    51    50    1
    55    52    38    1
    56    53    41   ar
    57    54    53    1
    58    55    39   ar
    59    56    55    1
    60    57    50   ar
    61    58    57    1
    62    59    43   ar
    63    60    59    1
    64    61    57   ar
    65    62    61    1
    66    63    40   ar
    67    64    63    1
    68    65    46   ar
    69    66    65    1
    70    67    52   ar
    71    68    67    1
    72    69    55   ar
    73    70    69    1
    74    71    53   ar
    75    72    71    1
    76    73    67   ar
    77    74    73    1
    78    75    59   ar
    79    76    75    1
    80    77    44   ar
    81    78    77    1
    82    79    75   ar
    83    80    79    1
    84    81    65   ar
    85    82    81    1
    86    46    52   ar
    87    61    63   ar
    88    69    71   ar
    89    73    81   ar
    90    77    79   ar
    91    83    84    1
    92    84   102   ar
    93    85    83    1
    94    86    87    1
    95    88    83    1
    96    89    90    1
    97    91    85   ar
    98    92    91    1
    99    93    85   ar
   100    94    93    1
   101    95    88   ar
   102    96    95    1
   103    97    83    1
   104    98    99    1
   105   100    97   ar
   106   101   100    1
   107   102   103    1
   108   104    88   ar
   109   105   104    1
   110   106    84   ar
   111   107   106    1
   112   108    95   ar
   113   109   108    1
   114   110    86   ar
   115   111   110    1
   116   112   113    1
   117   114   100   ar
   118   115   114    1
   119   116    93   ar
   120   117   116    1
   121   118    89   ar
   122   119   118    1
   123   120   106   ar
   124   121   120    1
   125   122   114   ar
   126   123   122    1
   127   124   102   ar
   128   125   124    1
   129   126    98   ar
   130   127   126    1
   131    86    91   ar
   132    89    97   ar
   133    98   108   ar
   134   104   126   ar
   135   110   116   ar
   136   112   120   ar
   137   112   124   ar
   138   118   122   ar
   139   128   131    1
   140   129   130    1
   141   131   136   ar
   142   132   128    1
   143   133   129   ar
   144   134   133    1
   145   135   128    1
   146   136   133   ar
   147   137   136    1
   148   138   131   ar
   149   139   138    1
   150   140   135   ar
   151   141   140    1
   152   142   143    1
   153   144   145    1
   154   146   147    1
   155   148   129   ar
   156   149   148    1
   157   150   135   ar
   158   151   150    1
   159   152   153    1
   160   154   132   ar
   161   155   154    1
   162   156   128    1
   163   157   150   ar
   164   158   157    1
   165   159   142   ar
   166   160   159    1
   167   161   162    1
   168   163   132   ar
   169   164   163    1
   170   165   140   ar
   171   166   165    1
   172   167   154   ar
   173   168   167    1
   174   169   161   ar
   175   170   169    1
   176   171   142   ar
   177   172   171    1
   178   138   148   ar
   179   144   156   ar
   180   144   171   ar
   181   146   156   ar
   182   146   159   ar
   183   152   157   ar
   184   152   165   ar
   185   161   163   ar
   186   167   169   ar
   187   173   174    1
   188   175   173    1
   189   176   177    1
   190   178   176    1
   191   179   180    1
   192   181   179    1
   193   182   183    1
   194   184   182    1
   195   185   186    1
   196   187   185    1
   197   188   189    1
   198   190   188    1
@<TRIPOS>SUBSTRUCTURE
     1 RES1        1 GROUP             0 ****  ****    0  
     2 RES2       38 GROUP             0 ****  ****    0  
     3 RES3       83 GROUP             0 ****  ****    0  
     4 RES4      128 GROUP             0 ****  ****    0  
     5 RES5      173 GROUP             0 ****  ****    0  
     6 RES6      176 GROUP             0 ****  ****    0  
     7 RES7      179 GROUP             0 ****  ****    0  
     8 RES8      182 GROUP             0 ****  ****    0  
     9 RES9      185 GROUP             0 ****  ****    0  
    10 RES10     188 GROUP             0 ****  ****    0  
@<TRIPOS>CRYSIN
   13.7040   17.1060   19.9230   77.0070   84.6960   64.1230     2     1
