@<TRIPOS>MOLECULE
DOZROA
    81    84     3     0     0
SMALL
USER_CHARGES
****
Generated from the CSD

@<TRIPOS>ATOM
     1 Fe1      5.3961   3.7700   9.9390   Fe        1 RES1   2.0000
     2 O1       6.8436   2.4151  10.5783   O.3       1 RES1   0.0000
     3 O2       6.7979   5.4107  10.2936   O.3       1 RES1   0.0000
     4 N1       4.8517   3.8823  12.1033   N.ar      1 RES1   0.0000
     5 N2       7.5807   2.7988  11.6632   N.pl3     1 RES1   0.0000
     6 N3       8.1100   3.3319  13.7530   N.pl3     1 RES1   0.0000
     7 H1       8.0230   3.8756  14.4712   H         1 RES1   0.0000
     8 C1       3.5865   4.2322  12.4204   C.ar      1 RES1   0.0000
     9 H2       3.0088   4.4629  11.7300   H         1 RES1   0.0000
    10 C2       3.0976   4.2654  13.7270   C.ar      1 RES1   0.0000
    11 H3       2.2161   4.5127  13.8947   H         1 RES1   0.0000
    12 C3       3.9391   3.9276  14.7640   C.ar      1 RES1   0.0000
    13 H4       3.6330   3.9268  15.6420   H         1 RES1   0.0000
    14 C4       5.2647   3.5845  14.4730   C.ar      1 RES1   0.0000
    15 H5       5.8557   3.3696  15.1590   H         1 RES1   0.0000
    16 C5       5.6922   3.5687  13.1374   C.ar      1 RES1   0.0000
    17 C6       7.1108   3.2384  12.8184   C.2       1 RES1   0.0000
    18 C7       9.4395   3.3003  13.0231   C.3       1 RES1   0.0000
    19 C8       9.8262   4.7638  12.6683   C.3       1 RES1   0.0000
    20 H6       9.8607   5.2893  13.4694   H         1 RES1   0.0000
    21 H7      10.6864   4.7728  12.2409   H         1 RES1   0.0000
    22 H8       9.1697   5.1325  12.0719   H         1 RES1   0.0000
    23 C9      10.5209   2.6759  13.9325   C.3       1 RES1   0.0000
    24 H9      10.2580   1.7855  14.1770   H         1 RES1   0.0000
    25 H10     11.3562   2.6435  13.4594   H         1 RES1   0.0000
    26 H11     10.6213   3.2098  14.7237   H         1 RES1   0.0000
    27 C10      9.0553   2.4399  11.7539   C.3       1 RES1   0.0000
    28 C11      9.1361   0.9101  11.9924   C.3       1 RES1   0.0000
    29 H12      8.7286   0.4494  11.2549   H         1 RES1   0.0000
    30 H13     10.0554   0.6454  12.0660   H         1 RES1   0.0000
    31 H14      8.6732   0.6876  12.8034   H         1 RES1   0.0000
    32 C12      9.8013   2.8071  10.4612   C.3       1 RES1   0.0000
    33 H15      9.6073   3.7187  10.2292   H         1 RES1   0.0000
    34 H16     10.7458   2.7054  10.5970   H         1 RES1   0.0000
    35 H17      9.5146   2.2281   9.7522   H         1 RES1   0.0000
    36 H18      6.5033   6.0546  10.7679   H         1 RES1   0.0000
    37 H19      7.4265   5.5947   9.7542   H         1 RES1   0.0000
    38 O1B      3.9485   5.1249   9.2997   O.3       1 RES1   0.0000
    39 O2B      3.9942   2.1293   9.5844   O.3       1 RES1   0.0000
    40 N1B      5.9404   3.6577   7.7747   N.ar      1 RES1   0.0000
    41 N2B      3.2114   4.7412   8.2148   N.pl3     1 RES1   0.0000
    42 N3B      2.6821   4.2081   6.1250   N.pl3     1 RES1   0.0000
    43 H1B      2.7691   3.6644   5.4068   H         1 RES1   0.0000
    44 C1B      7.2056   3.3078   7.4576   C.ar      1 RES1   0.0000
    45 H2B      7.7833   3.0771   8.1480   H         1 RES1   0.0000
    46 C2B      7.6945   3.2746   6.1511   C.ar      1 RES1   0.0000
    47 H3B      8.5760   3.0273   5.9833   H         1 RES1   0.0000
    48 C3B      6.8531   3.6124   5.1140   C.ar      1 RES1   0.0000
    49 H4B      7.1592   3.6132   4.2360   H         1 RES1   0.0000
    50 C4B      5.5275   3.9555   5.4050   C.ar      1 RES1   0.0000
    51 H5B      4.9365   4.1704   4.7190   H         1 RES1   0.0000
    52 C5B      5.1000   3.9713   6.7406   C.ar      1 RES1   0.0000
    53 C6B      3.6813   4.3016   7.0597   C.2       1 RES1   0.0000
    54 C7B      1.3526   4.2397   6.8549   C.3       1 RES1   0.0000
    55 C8B      0.9659   2.7762   7.2098   C.3       1 RES1   0.0000
    56 H6B      0.9315   2.2507   6.4087   H         1 RES1   0.0000
    57 H7B      0.1058   2.7672   7.6371   H         1 RES1   0.0000
    58 H8B      1.6224   2.4075   7.8061   H         1 RES1   0.0000
    59 C9B      0.2712   4.8641   5.9455   C.3       1 RES1   0.0000
    60 H9B      0.5342   5.7545   5.7010   H         1 RES1   0.0000
    61 H10B    -0.5641   4.8965   6.4186   H         1 RES1   0.0000
    62 H11B     0.1708   4.3302   5.1544   H         1 RES1   0.0000
    63 C10B     1.7368   5.1001   8.1242   C.3       1 RES1   0.0000
    64 C11B     1.6561   6.6299   7.8856   C.3       1 RES1   0.0000
    65 H12B     2.0636   7.0906   8.6231   H         1 RES1   0.0000
    66 H13B     0.7367   6.8946   7.8121   H         1 RES1   0.0000
    67 H14B     2.1189   6.8524   7.0746   H         1 RES1   0.0000
    68 C12B     0.9908   4.7329   9.4168   C.3       1 RES1   0.0000
    69 H15B     1.1849   3.8213   9.6488   H         1 RES1   0.0000
    70 H16B     0.0464   4.8346   9.2811   H         1 RES1   0.0000
    71 H17B     1.2775   5.3119  10.1259   H         1 RES1   0.0000
    72 H18B     4.2888   1.4854   9.1101   H         1 RES1   0.0000
    73 H19B     3.3656   1.9453  10.1239   H         1 RES1   0.0000
    74 Cl1      1.8140   0.5604  12.2866   Cl        2 RES2   0.0000
    75 O3       2.9487  -0.1319  11.8076   O.3       2 RES2  -1.0000
    76 O4       2.0587   1.1416  13.5582   O.2       2 RES2   0.0000
    77 O5       0.7532  -0.3710  12.4019   O.2       2 RES2   0.0000
    78 O6       1.5269   1.6151  11.3615   O.2       2 RES2   0.0000
    79 O7       4.9726   7.5196   8.2158   O.3       3 RES3   0.0000
    80 H20      5.8234   7.5777   8.1301   H         3 RES3   0.0000
    81 H21      4.7045   6.8539   8.6827   H         3 RES3   0.0000
@<TRIPOS>BOND
     1     1     2    1
     2     2     5    1
     3     3     1    1
     4     4     1    1
     5     5    17    2
     6     6     7    1
     7     8     4   ar
     8     9     8    1
     9    10     8   ar
    10    11    10    1
    11    12    10   ar
    12    13    12    1
    13    14    12   ar
    14    15    14    1
    15    16     4   ar
    16    17     6    1
    17    18     6    1
    18    19    18    1
    19    20    19    1
    20    21    19    1
    21    22    19    1
    22    23    18    1
    23    24    23    1
    24    25    23    1
    25    26    23    1
    26    27     5    1
    27    28    27    1
    28    29    28    1
    29    30    28    1
    30    31    28    1
    31    32    27    1
    32    33    32    1
    33    34    32    1
    34    35    32    1
    35    36     3    1
    36    37     3    1
    37    38     1    1
    38    39     1    1
    39    40     1    1
    40    41    38    1
    41    42    43    1
    42    44    40   ar
    43    45    44    1
    44    46    44   ar
    45    47    46    1
    46    48    46   ar
    47    49    48    1
    48    50    48   ar
    49    51    50    1
    50    52    40   ar
    51    53    41    2
    52    54    42    1
    53    55    54    1
    54    56    55    1
    55    57    55    1
    56    58    55    1
    57    59    54    1
    58    60    59    1
    59    61    59    1
    60    62    59    1
    61    63    41    1
    62    64    63    1
    63    65    64    1
    64    66    64    1
    65    67    64    1
    66    68    63    1
    67    69    68    1
    68    70    68    1
    69    71    68    1
    70    72    39    1
    71    73    39    1
    72    14    16   ar
    73    16    17    1
    74    18    27    1
    75    42    53    1
    76    50    52   ar
    77    52    53    1
    78    54    63    1
    79    74    75    1
    80    76    74    2
    81    77    74    2
    82    78    74    2
    83    79    80    1
    84    81    79    1
@<TRIPOS>SUBSTRUCTURE
     1 RES1        1 GROUP             0 ****  ****    0  
     2 RES2       74 GROUP             0 ****  ****    0  
     3 RES3       79 GROUP             0 ****  ****    0  
@<TRIPOS>CRYSIN
   11.8840    7.5400   19.9080   90.0000   93.1440   90.0000    14     1
