@<TRIPOS>MOLECULE
DPPDFE01
    84    92     1     0     0
SMALL
NO_CHARGES
****
Generated from the CSD

@<TRIPOS>ATOM
     1 Fe1      2.4996   0.5074   4.2282   Fe        1 RES1   0.0000
     2 O1       1.3705   1.7791   5.2677   O.2       1 RES1   0.0000
     3 O2       3.3002  -0.0297   5.9463   O.2       1 RES1   0.0000
     4 O3       3.8268   1.9846   3.8673   O.2       1 RES1   0.0000
     5 O4       3.7360  -0.7029   3.2185   O.2       1 RES1   0.0000
     6 O5       1.5300   1.1591   2.5847   O.2       1 RES1   0.0000
     7 O6       1.0861  -0.9164   4.3132   O.2       1 RES1   0.0000
     8 C1       1.2655   1.9198   6.5355   C.2       1 RES1   0.0000
     9 C2       2.0455   1.2512   7.4661   C.2       1 RES1   0.0000
    10 C3       3.0484   0.3621   7.1231   C.2       1 RES1   0.0000
    11 C4       4.9080   1.9613   3.1827   C.2       1 RES1   0.0000
    12 C5       5.4102   0.8550   2.5354   C.2       1 RES1   0.0000
    13 C6       4.7939  -0.4215   2.5697   C.2       1 RES1   0.0000
    14 C7       0.3050   0.9923   2.2908   C.2       1 RES1   0.0000
    15 C8      -0.5125   0.0591   2.9351   C.2       1 RES1   0.0000
    16 C9      -0.1103  -0.8430   3.9210   C.2       1 RES1   0.0000
    17 C10      0.2443   2.9524   6.9531   C.ar      1 RES1   0.0000
    18 C11     -0.7013   3.3996   6.0343   C.ar      1 RES1   0.0000
    19 C12     -1.6289   4.3512   6.4251   C.ar      1 RES1   0.0000
    20 C13     -1.6014   4.8488   7.6868   C.ar      1 RES1   0.0000
    21 C14     -0.6629   4.4474   8.6130   C.ar      1 RES1   0.0000
    22 C15      0.2426   3.4720   8.2476   C.ar      1 RES1   0.0000
    23 C16      3.8899  -0.2222   8.2029   C.ar      1 RES1   0.0000
    24 C17      3.9814   0.2782   9.4930   C.ar      1 RES1   0.0000
    25 C18      4.7641  -0.3237  10.4520   C.ar      1 RES1   0.0000
    26 C19      5.4764  -1.4436  10.1417   C.ar      1 RES1   0.0000
    27 C20      5.4123  -1.9534   8.9024   C.ar      1 RES1   0.0000
    28 C21      4.6555  -1.3503   7.9523   C.ar      1 RES1   0.0000
    29 C22      5.6167   3.2536   3.0843   C.ar      1 RES1   0.0000
    30 C23      6.9814   3.3416   2.8621   C.ar      1 RES1   0.0000
    31 C24      7.5778   4.6165   2.7815   C.ar      1 RES1   0.0000
    32 C25      6.8422   5.7419   2.9381   C.ar      1 RES1   0.0000
    33 C26      5.5199   5.6708   3.1350   C.ar      1 RES1   0.0000
    34 C27      4.8927   4.4411   3.2275   C.ar      1 RES1   0.0000
    35 C28      5.3647  -1.5594   1.7838   C.ar      1 RES1   0.0000
    36 C29      4.9594  -2.8387   2.0477   C.ar      1 RES1   0.0000
    37 C30      5.4582  -3.8602   1.2990   C.ar      1 RES1   0.0000
    38 C31      6.3771  -3.6806   0.3087   C.ar      1 RES1   0.0000
    39 C32      6.7902  -2.4354   0.0462   C.ar      1 RES1   0.0000
    40 C33      6.2744  -1.3414   0.7547   C.ar      1 RES1   0.0000
    41 C34     -0.2362   1.8402   1.2125   C.ar      1 RES1   0.0000
    42 C35     -1.1549   1.3690   0.2983   C.ar      1 RES1   0.0000
    43 C36     -1.5771   2.2349  -0.7666   C.ar      1 RES1   0.0000
    44 C37     -1.1153   3.4794  -0.7755   C.ar      1 RES1   0.0000
    45 C38     -0.2285   3.9699   0.0746   C.ar      1 RES1   0.0000
    46 C39      0.2444   3.1460   1.0798   C.ar      1 RES1   0.0000
    47 C40     -1.0593  -1.7629   4.5310   C.ar      1 RES1   0.0000
    48 C41     -2.4126  -1.6599   4.3714   C.ar      1 RES1   0.0000
    49 C42     -3.2883  -2.5358   5.0321   C.ar      1 RES1   0.0000
    50 C43     -2.7967  -3.5221   5.8240   C.ar      1 RES1   0.0000
    51 C44     -1.4726  -3.6522   5.9672   C.ar      1 RES1   0.0000
    52 C45     -0.6014  -2.7927   5.3483   C.ar      1 RES1   0.0000
    53 H1       1.9113   1.4981   8.4117   H         1 RES1   0.0000
    54 H2       6.2818   0.9920   1.9389   H         1 RES1   0.0000
    55 H3      -1.4151   0.0054   2.6249   H         1 RES1   0.0000
    56 H4      -0.5796   3.1226   5.0560   H         1 RES1   0.0000
    57 H5      -2.2288   4.4362   5.7868   H         1 RES1   0.0000
    58 H6      -2.1822   5.4334   7.9792   H         1 RES1   0.0000
    59 H7       0.9027   2.9974   9.0232   H         1 RES1   0.0000
    60 H8       3.5078   1.2173   9.5750   H         1 RES1   0.0000
    61 H9       4.7296  -0.0502  11.4244   H         1 RES1   0.0000
    62 H10      6.0890  -1.5083  10.5892   H         1 RES1   0.0000
    63 H11      5.8547  -2.5059   8.5459   H         1 RES1   0.0000
    64 H12      4.5574  -1.8074   7.1738   H         1 RES1   0.0000
    65 H13      7.6336   2.2700   2.9978   H         1 RES1   0.0000
    66 H14      8.6168   5.0465   2.5056   H         1 RES1   0.0000
    67 H15      7.1949   6.4301   3.0276   H         1 RES1   0.0000
    68 H16      4.8596   6.2789   3.2662   H         1 RES1   0.0000
    69 H17      4.0111   4.4943   3.2662   H         1 RES1   0.0000
    70 H18      4.2683  -2.7354   2.6995   H         1 RES1   0.0000
    71 H19      5.2538  -4.5983   1.5362   H         1 RES1   0.0000
    72 H20      6.7002  -4.3391  -0.2834   H         1 RES1   0.0000
    73 H21      7.3336  -2.2060  -0.6413   H         1 RES1   0.0000
    74 H22      6.6748  -0.3545   0.4623   H         1 RES1   0.0000
    75 H23     -1.5547   0.3063   0.3132   H         1 RES1   0.0000
    76 H24     -2.3233   2.1063  -1.2677   H         1 RES1   0.0000
    77 H25     -1.4278   3.9895  -1.3423   H         1 RES1   0.0000
    78 H26      0.1558   4.6926   0.2685   H         1 RES1   0.0000
    79 H27      0.9145   3.4957   1.6406   H         1 RES1   0.0000
    80 H28     -2.8198  -1.1507   3.9225   H         1 RES1   0.0000
    81 H29     -4.1497  -2.3353   4.9963   H         1 RES1   0.0000
    82 H30     -3.4632  -3.9318   6.3237   H         1 RES1   0.0000
    83 H31     -1.0963  -4.0019   6.5921   H         1 RES1   0.0000
    84 H32      0.3433  -3.4724   5.6525   H         1 RES1   0.0000
@<TRIPOS>BOND
     1     1     2    1
     2     2     8   un
     3     3     1    1
     4     4     1    1
     5     5     1    1
     6     6     1    1
     7     7     1    1
     8     8     9   un
     9     9    10   un
    10    10     3   un
    11    11     4   un
    12    12    11   un
    13    13     5   un
    14    14     6   un
    15    15    14   un
    16    16     7   un
    17    17     8    1
    18    18    17   ar
    19    19    18   ar
    20    20    19   ar
    21    21    20   ar
    22    22    17   ar
    23    23    10    1
    24    24    23   ar
    25    25    24   ar
    26    26    25   ar
    27    27    26   ar
    28    28    23   ar
    29    29    11    1
    30    30    29   ar
    31    31    30   ar
    32    32    31   ar
    33    33    32   ar
    34    34    29   ar
    35    35    13    1
    36    36    35   ar
    37    37    36   ar
    38    38    37   ar
    39    39    38   ar
    40    40    35   ar
    41    41    14    1
    42    42    41   ar
    43    43    42   ar
    44    44    43   ar
    45    45    44   ar
    46    46    41   ar
    47    47    16    1
    48    48    47   ar
    49    49    48   ar
    50    50    49   ar
    51    51    50   ar
    52    52    47   ar
    53    53     9    1
    54    54    12    1
    55    55    15    1
    56    56    18    1
    57    57    19    1
    58    58    20    1
    59    59    22    1
    60    60    24    1
    61    61    25    1
    62    62    26    1
    63    63    27    1
    64    64    28    1
    65    65    30    1
    66    66    31    1
    67    67    32    1
    68    68    33    1
    69    69    34    1
    70    70    36    1
    71    71    37    1
    72    72    38    1
    73    73    39    1
    74    74    40    1
    75    75    42    1
    76    76    43    1
    77    77    44    1
    78    78    45    1
    79    79    46    1
    80    80    48    1
    81    81    49    1
    82    82    50    1
    83    83    51    1
    84    84    52    1
    85    12    13   un
    86    15    16   un
    87    21    22   ar
    88    27    28   ar
    89    33    34   ar
    90    39    40   ar
    91    45    46   ar
    92    51    52   ar
@<TRIPOS>SUBSTRUCTURE
     1 RES1        1 GROUP             0 ****  ****    0  
@<TRIPOS>CRYSIN
   10.3860   11.8440   16.1330  109.1700   96.9900  101.9300     2     1
