@<TRIPOS>MOLECULE
DPPDFE
    52    60     1     0     0
SMALL
NO_CHARGES
****
Generated from the CSD

@<TRIPOS>ATOM
     1 Fe1      3.9955  -0.5853   1.7163   Fe        1 RES1   0.0000
     2 O1       2.1942  -1.2537   2.1184   O.2       1 RES1   0.0000
     3 O2       3.1293   1.0700   1.0635   O.3       1 RES1   0.0000
     4 C1       1.0708  -0.6460   2.1052   C.2       1 RES1   0.0000
     5 C2      -0.0907  -1.4393   2.5640   C.ar      1 RES1   0.0000
     6 C3       0.1495  -2.5117   3.4411   C.ar      1 RES1   0.0000
     7 C4      -0.9179  -3.2764   3.9094   C.ar      1 RES1   0.0000
     8 C5      -2.2229  -2.9996   3.4742   C.ar      1 RES1   0.0000
     9 C6      -2.4528  -1.9552   2.5858   C.ar      1 RES1   0.0000
    10 C7      -1.3839  -1.1488   2.1496   C.ar      1 RES1   0.0000
    11 C8       0.9092   0.7238   1.7797   C.2       1 RES1   0.0000
    12 C9       1.9734   1.5274   1.3180   C.2       1 RES1   0.0000
    13 C10      1.7662   2.9864   1.1429   C.ar      1 RES1   0.0000
    14 C11      2.8744   3.7395   0.7172   C.ar      1 RES1   0.0000
    15 C12      2.7401   5.1486   0.6424   C.ar      1 RES1   0.0000
    16 C13      1.5846   5.7817   0.9793   C.ar      1 RES1   0.0000
    17 C14      0.4787   5.0230   1.3643   C.ar      1 RES1   0.0000
    18 C15      0.5659   3.6198   1.4296   C.ar      1 RES1   0.0000
    19 O3       3.8951  -1.4993  -0.0445   O.2       1 RES1   0.0000
    20 O4       5.7480   0.1667   1.0871   O.3       1 RES1   0.0000
    21 C16      4.4361  -1.1600  -1.1514   C.2       1 RES1   0.0000
    22 C17      3.8720  -1.7513  -2.3682   C.ar      1 RES1   0.0000
    23 C18      4.1010  -1.2110  -3.6530   C.ar      1 RES1   0.0000
    24 C19      3.5944  -1.8168  -4.7685   C.ar      1 RES1   0.0000
    25 C20      2.8566  -2.9848  -4.6588   C.ar      1 RES1   0.0000
    26 C21      2.5897  -3.5175  -3.3853   C.ar      1 RES1   0.0000
    27 C22      3.0944  -2.8993  -2.2584   C.ar      1 RES1   0.0000
    28 C23      5.5655  -0.3184  -1.2177   C.2       1 RES1   0.0000
    29 C24      6.1616   0.2480  -0.1107   C.2       1 RES1   0.0000
    30 C25      7.4092   1.0452  -0.2952   C.ar      1 RES1   0.0000
    31 C26      8.3013   0.7423  -1.3369   C.ar      1 RES1   0.0000
    32 C27      9.4779   1.4912  -1.4892   C.ar      1 RES1   0.0000
    33 C28      9.7302   2.5319  -0.6188   C.ar      1 RES1   0.0000
    34 C29      8.8513   2.8431   0.4513   C.ar      1 RES1   0.0000
    35 C30      7.6801   2.0633   0.5876   C.ar      1 RES1   0.0000
    36 O5       4.2367   0.3563   3.4581   O.2       1 RES1   0.0000
    37 O6       4.9038  -2.1270   2.6028   O.3       1 RES1   0.0000
    38 C31      5.0286   0.1011   4.4241   C.2       1 RES1   0.0000
    39 C32      5.1101   1.1466   5.4573   C.ar      1 RES1   0.0000
    40 C33      4.8347   2.4862   5.0997   C.ar      1 RES1   0.0000
    41 C34      4.9020   3.4898   6.0203   C.ar      1 RES1   0.0000
    42 C35      5.1943   3.2409   7.3439   C.ar      1 RES1   0.0000
    43 C36      5.4857   1.9173   7.7148   C.ar      1 RES1   0.0000
    44 C37      5.4679   0.8728   6.7838   C.ar      1 RES1   0.0000
    45 C38      5.7891  -1.0749   4.5150   C.2       1 RES1   0.0000
    46 C39      5.7095  -2.0865   3.6142   C.2       1 RES1   0.0000
    47 C40      6.6136  -3.2970   3.7013   C.ar      1 RES1   0.0000
    48 C41      6.3069  -4.4170   2.9453   C.ar      1 RES1   0.0000
    49 C42      7.1653  -5.4925   2.8895   C.ar      1 RES1   0.0000
    50 C43      8.3656  -5.4440   3.6426   C.ar      1 RES1   0.0000
    51 C44      8.6577  -4.3534   4.4194   C.ar      1 RES1   0.0000
    52 C45      7.7841  -3.2559   4.4648   C.ar      1 RES1   0.0000
@<TRIPOS>BOND
     1     1     2    1
     2     2     4    2
     3     3     1    1
     4     4     5    1
     5     5     6   ar
     6     6     7   ar
     7     7     8   ar
     8     8     9   ar
     9     9    10   ar
    10    10     5   ar
    11    11     4    1
    12    12     3    1
    13    13    12    1
    14    14    13   ar
    15    15    14   ar
    16    16    15   ar
    17    17    16   ar
    18    18    13   ar
    19    19     1    1
    20    20     1    1
    21    21    19    2
    22    22    21    1
    23    23    22   ar
    24    24    23   ar
    25    25    24   ar
    26    26    25   ar
    27    27    22   ar
    28    28    21    1
    29    29    20    1
    30    30    29    1
    31    31    30   ar
    32    32    31   ar
    33    33    32   ar
    34    34    33   ar
    35    35    30   ar
    36    36     1    1
    37    37     1    1
    38    38    36    2
    39    39    38    1
    40    40    39   ar
    41    41    40   ar
    42    42    41   ar
    43    43    42   ar
    44    44    39   ar
    45    45    38    1
    46    46    37    1
    47    47    46    1
    48    48    47   ar
    49    49    48   ar
    50    50    49   ar
    51    51    50   ar
    52    52    47   ar
    53    11    12    2
    54    17    18   ar
    55    26    27   ar
    56    28    29    2
    57    34    35   ar
    58    43    44   ar
    59    45    46    2
    60    51    52   ar
@<TRIPOS>SUBSTRUCTURE
     1 RES1        1 GROUP             0 ****  ****    0  
@<TRIPOS>CRYSIN
   18.2880   10.5070    9.8980  106.2800   93.9100   93.9500     2     1
