@<TRIPOS>MOLECULE
DPPDFE03
    85    93     1     0     0
SMALL
NO_CHARGES
****
Generated from the CSD

@<TRIPOS>ATOM
     1 Fe1      1.3107   4.6755   4.9930   Fe        1 RES1   0.0000
     2 O1       0.6163   5.0515   6.7957   O.2       1 RES1   0.0000
     3 C1       0.7686   4.3941   7.8821   C.2       1 RES1   0.0000
     4 C2       1.4934   3.1947   7.9883   C.2       1 RES1   0.0000
     5 H1       1.5065   2.7494   8.8273   H         1 RES1   0.0000
     6 C3       2.1985   2.6208   6.9202   C.2       1 RES1   0.0000
     7 O2       2.3669   3.1987   5.7949   O.2       1 RES1   0.0000
     8 C4       0.0714   4.9588   9.0693   C.ar      1 RES1   0.0000
     9 C5      -1.0738   5.7318   8.8545   C.ar      1 RES1   0.0000
    10 H2      -1.3823   5.8855   7.9692   H         1 RES1   0.0000
    11 C6      -1.7615   6.2755   9.9311   C.ar      1 RES1   0.0000
    12 H3      -2.5512   6.7824   9.7835   H         1 RES1   0.0000
    13 C7      -1.2937   6.0777  11.2250   C.ar      1 RES1   0.0000
    14 H4      -1.7590   6.4593  11.9604   H         1 RES1   0.0000
    15 C8      -0.1536   5.3268  11.4447   C.ar      1 RES1   0.0000
    16 H5       0.1683   5.2045  12.3301   H         1 RES1   0.0000
    17 C9       0.5262   4.7486  10.3740   C.ar      1 RES1   0.0000
    18 H6       1.2956   4.2136  10.5304   H         1 RES1   0.0000
    19 C10      2.7808   1.2485   7.0288   C.ar      1 RES1   0.0000
    20 C11      3.4327   0.7114   5.9155   C.ar      1 RES1   0.0000
    21 H7       3.5633   1.2460   5.1410   H         1 RES1   0.0000
    22 C12      3.8916  -0.6026   5.9354   C.ar      1 RES1   0.0000
    23 H8       4.3457  -0.9551   5.1791   H         1 RES1   0.0000
    24 C13      3.6911  -1.3985   7.0480   C.ar      1 RES1   0.0000
    25 H9       3.9757  -2.3049   7.0447   H         1 RES1   0.0000
    26 C14      3.0742  -0.8679   8.1653   C.ar      1 RES1   0.0000
    27 H10      2.9541  -1.4062   8.9388   H         1 RES1   0.0000
    28 C15      2.6267   0.4538   8.1638   C.ar      1 RES1   0.0000
    29 H11      2.2148   0.8140   8.9404   H         1 RES1   0.0000
    30 O3       0.0696   5.9777   4.1282   O.2       1 RES1   0.0000
    31 C16     -0.7999   5.7486   3.2164   C.2       1 RES1   0.0000
    32 C17     -1.3756   4.4957   2.9703   C.2       1 RES1   0.0000
    33 H12     -2.0509   4.4273   2.3056   H         1 RES1   0.0000
    34 C18     -0.9947   3.3346   3.6669   C.2       1 RES1   0.0000
    35 O4      -0.0610   3.2900   4.5297   O.2       1 RES1   0.0000
    36 C19     -1.1693   6.9343   2.3827   C.ar      1 RES1   0.0000
    37 C20     -0.8016   8.2020   2.8425   C.ar      1 RES1   0.0000
    38 H13     -0.4165   8.2995   3.7055   H         1 RES1   0.0000
    39 C21     -0.9980   9.3219   2.0400   C.ar      1 RES1   0.0000
    40 H14     -0.7491  10.1821   2.3574   H         1 RES1   0.0000
    41 C22     -1.5558   9.1845   0.7764   C.ar      1 RES1   0.0000
    42 H15     -1.6635   9.9465   0.2199   H         1 RES1   0.0000
    43 C23     -1.9549   7.9380   0.3264   C.ar      1 RES1   0.0000
    44 H16     -2.3575   7.8495  -0.5295   H         1 RES1   0.0000
    45 C24     -1.7672   6.8122   1.1260   C.ar      1 RES1   0.0000
    46 H17     -2.0468   5.9589   0.8155   H         1 RES1   0.0000
    47 C25     -1.6736   2.0319   3.3950   C.ar      1 RES1   0.0000
    48 C26     -2.9909   1.9461   2.9521   C.ar      1 RES1   0.0000
    49 H18     -3.4875   2.7375   2.7804   H         1 RES1   0.0000
    50 C27     -3.5794   0.6981   2.7610   C.ar      1 RES1   0.0000
    51 H19     -4.4841   0.6398   2.4771   H         1 RES1   0.0000
    52 C28     -2.8497  -0.4576   2.9833   C.ar      1 RES1   0.0000
    53 H20     -3.2546  -1.3067   2.8503   H         1 RES1   0.0000
    54 C29     -1.5351  -0.3788   3.3983   C.ar      1 RES1   0.0000
    55 H21     -1.0302  -1.1727   3.5294   H         1 RES1   0.0000
    56 C30     -0.9515   0.8590   3.6236   C.ar      1 RES1   0.0000
    57 H22     -0.0555   0.9090   3.9350   H         1 RES1   0.0000
    58 O5       2.2355   4.2965   3.2578   O.2       1 RES1   0.0000
    59 C31      3.4369   4.5841   2.9383   C.2       1 RES1   0.0000
    60 C32      4.3041   5.3820   3.6978   C.2       1 RES1   0.0000
    61 H23      5.2075   5.4603   3.4146   H         1 RES1   0.0000
    62 C33      3.9077   6.0722   4.8559   C.2       1 RES1   0.0000
    63 O6       2.7206   6.0561   5.3248   O.2       1 RES1   0.0000
    64 C34      3.9358   3.9954   1.6631   C.ar      1 RES1   0.0000
    65 C35      3.4101   2.7803   1.2349   C.ar      1 RES1   0.0000
    66 H24      2.7338   2.3488   1.7439   H         1 RES1   0.0000
    67 C36      3.8762   2.1979   0.0604   C.ar      1 RES1   0.0000
    68 H25      3.5358   1.3555  -0.2172   H         1 RES1   0.0000
    69 C37      4.8331   2.8400  -0.7050   C.ar      1 RES1   0.0000
    70 H26      5.1477   2.4385  -1.5064   H         1 RES1   0.0000
    71 C38      5.3319   4.0664  -0.3044   C.ar      1 RES1   0.0000
    72 H27      5.9726   4.5164  -0.8424   H         1 RES1   0.0000
    73 C39      4.8964   4.6421   0.8857   C.ar      1 RES1   0.0000
    74 H28      5.2537   5.4757   1.1685   H         1 RES1   0.0000
    75 C40      4.8965   6.9242   5.5737   C.ar      1 RES1   0.0000
    76 C41      4.4190   7.9559   6.3842   C.ar      1 RES1   0.0000
    77 H29      3.4833   8.0719   6.5004   H         1 RES1   0.0000
    78 C42      5.3079   8.8138   7.0219   C.ar      1 RES1   0.0000
    79 H30      4.9782   9.5220   7.5625   H         1 RES1   0.0000
    80 C43      6.6757   8.6373   6.8701   C.ar      1 RES1   0.0000
    81 H31      7.2811   9.2321   7.2971   H         1 RES1   0.0000
    82 C44      7.1626   7.5893   6.0925   C.ar      1 RES1   0.0000
    83 H32      8.0993   7.4565   6.0052   H         1 RES1   0.0000
    84 C45      6.2756   6.7386   5.4446   C.ar      1 RES1   0.0000
    85 H33      6.6084   6.0267   4.9107   H         1 RES1   0.0000
@<TRIPOS>BOND
     1     1     2    1
     2     2     3   un
     3     3     4   un
     4     4     5    1
     5     6     4   un
     6     7     1    1
     7     8     3    1
     8     9     8   ar
     9    10     9    1
    10    11     9   ar
    11    12    11    1
    12    13    11   ar
    13    14    13    1
    14    15    13   ar
    15    16    15    1
    16    17     8   ar
    17    18    17    1
    18    19     6    1
    19    20    19   ar
    20    21    20    1
    21    22    20   ar
    22    23    22    1
    23    24    22   ar
    24    25    24    1
    25    26    24   ar
    26    27    26    1
    27    28    19   ar
    28    29    28    1
    29    30     1    1
    30    31    30   un
    31    32    31   un
    32    33    32    1
    33    34    32   un
    34    35     1    1
    35    36    31    1
    36    37    36   ar
    37    38    37    1
    38    39    37   ar
    39    40    39    1
    40    41    39   ar
    41    42    41    1
    42    43    41   ar
    43    44    43    1
    44    45    36   ar
    45    46    45    1
    46    47    34    1
    47    48    47   ar
    48    49    48    1
    49    50    48   ar
    50    51    50    1
    51    52    50   ar
    52    53    52    1
    53    54    52   ar
    54    55    54    1
    55    56    47   ar
    56    57    56    1
    57    58     1    1
    58    59    58   un
    59    60    59   un
    60    61    60    1
    61    62    60   un
    62    63     1    1
    63    64    59    1
    64    65    64   ar
    65    66    65    1
    66    67    65   ar
    67    68    67    1
    68    69    67   ar
    69    70    69    1
    70    71    69   ar
    71    72    71    1
    72    73    64   ar
    73    74    73    1
    74    75    62    1
    75    76    75   ar
    76    77    76    1
    77    78    76   ar
    78    79    78    1
    79    80    78   ar
    80    81    80    1
    81    82    80   ar
    82    83    82    1
    83    84    75   ar
    84    85    84    1
    85     6     7   un
    86    15    17   ar
    87    26    28   ar
    88    34    35   un
    89    43    45   ar
    90    54    56   ar
    91    62    63   un
    92    71    73   ar
    93    82    84   ar
@<TRIPOS>SUBSTRUCTURE
     1 RES1        1 GROUP             0 ****  ****    0  
@<TRIPOS>CRYSIN
    9.7947   10.4344   18.2360   93.2580   93.3330  106.1510     2     1
