@<TRIPOS>MOLECULE
DUCYAB
    49    52     1     0     0
SMALL
NO_CHARGES
****
Generated from the CSD

@<TRIPOS>ATOM
     1 Fe1      0.0000   0.0000   9.1510   Fe        1 RES1   0.0000
     2 As1      2.0785   0.6413   8.2432   As        1 RES1   0.0000
     3 O1       1.3181  -1.3477  11.3106   O.3       1 RES1   0.0000
     4 O2      -0.9381   2.7177   9.0723   O.3       1 RES1   0.0000
     5 N1       0.7928  -0.1792  10.8604   N.2       1 RES1   0.0000
     6 N2      -0.3066   1.7489   9.8154   N.2       1 RES1   0.0000
     7 C1       0.7782   0.8839  11.6437   C.2       1 RES1   0.0000
     8 C2       0.1368   2.0335  10.9977   C.2       1 RES1   0.0000
     9 C3       1.2804   0.8865  13.0420   C.3       1 RES1   0.0000
    10 C4       0.0309   3.3949  11.6144   C.3       1 RES1   0.0000
    11 C5       3.6450  -0.3352   8.9112   C.3       1 RES1   0.0000
    12 C6       4.1574   0.1003  10.2729   C.3       1 RES1   0.0000
    13 C7       5.2324  -0.8333  10.7927   C.3       1 RES1   0.0000
    14 C8       5.8043  -0.4518  12.0866   C.3       1 RES1   0.0000
    15 C9       2.5767   2.5162   8.5068   C.3       1 RES1   0.0000
    16 C10      3.8423   2.9929   7.8040   C.3       1 RES1   0.0000
    17 C11      4.2140   4.3894   8.2103   C.3       1 RES1   0.0000
    18 C12      5.4351   4.9269   7.5148   C.3       1 RES1   0.0000
    19 C13      2.2799   0.3815   6.3233   C.ar      1 RES1   0.0000
    20 C14      1.7420   1.2937   5.4339   C.ar      1 RES1   0.0000
    21 C15      1.9078   1.1008   4.0722   C.ar      1 RES1   0.0000
    22 C16      2.5653   0.0214   3.5634   C.ar      1 RES1   0.0000
    23 C17      3.0678  -0.9045   4.4401   C.ar      1 RES1   0.0000
    24 C18      2.9343  -0.7373   5.8164   C.ar      1 RES1   0.0000
    25 H1      -1.2276   2.1176   8.0895   H         1 RES1   0.0000
    26 As1B    -2.0785  -0.6413  10.0588   As        1 RES1   0.0000
    27 N1B     -0.7928   0.1792   7.4416   N.2       1 RES1   0.0000
    28 N2B      0.3066  -1.7489   8.4866   N.2       1 RES1   0.0000
    29 C5B     -3.6450   0.3352   9.3908   C.3       1 RES1   0.0000
    30 C9B     -2.5767  -2.5162   9.7952   C.3       1 RES1   0.0000
    31 C13B    -2.2799  -0.3815  11.9787   C.ar      1 RES1   0.0000
    32 O1B     -1.3181   1.3477   6.9914   O.3       1 RES1   0.0000
    33 C1B     -0.7782  -0.8839   6.6583   C.2       1 RES1   0.0000
    34 O2B      0.9381  -2.7177   9.2297   O.3       1 RES1   0.0000
    35 C2B     -0.1368  -2.0335   7.3043   C.2       1 RES1   0.0000
    36 C6B     -4.1574  -0.1003   8.0291   C.3       1 RES1   0.0000
    37 C10B    -3.8423  -2.9929  10.4980   C.3       1 RES1   0.0000
    38 C14B    -1.7420  -1.2937  12.8681   C.ar      1 RES1   0.0000
    39 C18B    -2.9343   0.7373  12.4856   C.ar      1 RES1   0.0000
    40 C3B     -1.2804  -0.8865   5.2600   C.3       1 RES1   0.0000
    41 H1B      1.2276  -2.1176  10.2125   H         1 RES1   0.0000
    42 C4B     -0.0309  -3.3949   6.6876   C.3       1 RES1   0.0000
    43 C7B     -5.2324   0.8333   7.5093   C.3       1 RES1   0.0000
    44 C11B    -4.2140  -4.3894  10.0917   C.3       1 RES1   0.0000
    45 C15B    -1.9078  -1.1008  14.2298   C.ar      1 RES1   0.0000
    46 C17B    -3.0678   0.9045  13.8619   C.ar      1 RES1   0.0000
    47 C8B     -5.8043   0.4518   6.2154   C.3       1 RES1   0.0000
    48 C12B    -5.4351  -4.9269  10.7872   C.3       1 RES1   0.0000
    49 C16B    -2.5653  -0.0214  14.7386   C.ar      1 RES1   0.0000
@<TRIPOS>BOND
     1     1     2    1
     2     2    11    1
     3     3     5    1
     4     4     6    1
     5     5     1    1
     6     6     1    1
     7     7     5    2
     8     8     6    2
     9     9     7    1
    10    10     8    1
    11    11    12    1
    12    12    13    1
    13    13    14    1
    14    15     2    1
    15    16    15    1
    16    17    16    1
    17    18    17    1
    18    19     2    1
    19    20    19   ar
    20    21    20   ar
    21    22    21   ar
    22    23    22   ar
    23    24    19   ar
    24    25     4    1
    25    26     1    1
    26    27     1    1
    27    28     1    1
    28    29    26    1
    29    30    26    1
    30    31    26    1
    31    32    27    1
    32    33    27    2
    33    34    28    1
    34    35    28    2
    35    36    29    1
    36    37    30    1
    37    38    31   ar
    38    39    31   ar
    39    40    33    1
    40    41    34    1
    41    42    35    1
    42    43    36    1
    43    44    37    1
    44    45    38   ar
    45    46    39   ar
    46    47    43    1
    47    48    44    1
    48    49    45   ar
    49     7     8    1
    50    23    24   ar
    51    33    35    1
    52    46    49   ar
@<TRIPOS>SUBSTRUCTURE
     1 RES1        1 GROUP             0 ****  ****    0  
