@<TRIPOS>MOLECULE
DUDDIR
    80    88     4     0     0
SMALL
USER_CHARGES
****
Generated from the CSD

@<TRIPOS>ATOM
     1 Fe1     10.8577   3.9204   3.1061   Fe        1 RES1   2.0000
     2 N1      11.9738   5.4664   3.1215   N.ar      1 RES1   0.0000
     3 C1      12.6034   5.8200   2.0043   C.ar      1 RES1   0.0000
     4 C2      13.2324   7.0352   1.8571   C.ar      1 RES1   0.0000
     5 H1      13.6689   7.2797   1.0497   H         1 RES1   0.0000
     6 C3      13.1921   7.8816   2.9558   C.ar      1 RES1   0.0000
     7 H2      13.6189   8.7281   2.8977   H         1 RES1   0.0000
     8 C4      12.5472   7.5344   4.1361   C.ar      1 RES1   0.0000
     9 H3      12.5373   8.1160   4.8876   H         1 RES1   0.0000
    10 C5      11.9240   6.3053   4.1663   C.ar      1 RES1   0.0000
    11 N2      12.4781   4.8202   1.0189   N.pl3     1 RES1   0.0000
    12 N3      11.7196   3.7216   1.3493   N.2       1 RES1   0.0000
    13 C6      11.8436   2.8891   0.3243   C.2       1 RES1   0.0000
    14 H4      11.4290   2.0363   0.2684   H         1 RES1   0.0000
    15 C7      12.6728   3.4365  -0.6667   C.2       1 RES1   0.0000
    16 H5      12.9160   3.0373  -1.4924   H         1 RES1   0.0000
    17 C8      13.0582   4.6681  -0.1964   C.2       1 RES1   0.0000
    18 H6      13.6230   5.2916  -0.6377   H         1 RES1   0.0000
    19 N4      11.0933   5.7946   5.1785   N.pl3     1 RES1   0.0000
    20 N5      10.4107   4.6221   4.8686   N.2       1 RES1   0.0000
    21 C9       9.5677   4.3805   5.8458   C.2       1 RES1   0.0000
    22 H7       8.9782   3.6354   5.8825   H         1 RES1   0.0000
    23 C10      9.6630   5.3879   6.8380   C.ar      1 RES1   0.0000
    24 C11      8.9854   5.6375   8.0562   C.ar      1 RES1   0.0000
    25 H8       8.3054   5.0534   8.3682   H         1 RES1   0.0000
    26 C12      9.3461   6.7589   8.7735   C.ar      1 RES1   0.0000
    27 H9       8.8959   6.9541   9.5871   H         1 RES1   0.0000
    28 C13     10.3573   7.6130   8.3272   C.ar      1 RES1   0.0000
    29 H10     10.5907   8.3631   8.8606   H         1 RES1   0.0000
    30 C14     11.0341   7.4090   7.1368   C.ar      1 RES1   0.0000
    31 H11     11.7167   7.9995   6.8399   H         1 RES1   0.0000
    32 C15     10.6573   6.2837   6.3985   C.ar      1 RES1   0.0000
    33 N6       9.5733   2.5238   3.1170   N.ar      1 RES1   0.0000
    34 C16      9.8938   1.3432   3.6634   C.ar      1 RES1   0.0000
    35 C17      8.9751   0.3358   3.8355   C.ar      1 RES1   0.0000
    36 H12      9.2135  -0.4904   4.2397   H         1 RES1   0.0000
    37 C18      7.6845   0.5854   3.3919   C.ar      1 RES1   0.0000
    38 H13      7.0238  -0.0912   3.4892   H         1 RES1   0.0000
    39 C19      7.3310   1.7981   2.8100   C.ar      1 RES1   0.0000
    40 H14      6.4499   1.9577   2.4908   H         1 RES1   0.0000
    41 C20      8.3119   2.7548   2.7168   C.ar      1 RES1   0.0000
    42 N7      11.2384   1.3072   4.0434   N.pl3     1 RES1   0.0000
    43 N8      11.9653   2.4621   3.8707   N.2       1 RES1   0.0000
    44 C21     13.1910   2.1757   4.2740   C.2       1 RES1   0.0000
    45 H15     13.9198   2.7852   4.2670   H         1 RES1   0.0000
    46 C22     13.2661   0.8376   4.7149   C.2       1 RES1   0.0000
    47 H16     14.0337   0.3915   5.0534   H         1 RES1   0.0000
    48 C23     12.0173   0.3130   4.5600   C.2       1 RES1   0.0000
    49 H17     11.7427  -0.5715   4.7713   H         1 RES1   0.0000
    50 N9       8.1685   4.0737   2.2598   N.pl3     1 RES1   0.0000
    51 N10      9.3159   4.8684   2.3616   N.2       1 RES1   0.0000
    52 C24      8.9694   6.0975   2.0496   C.2       1 RES1   0.0000
    53 H18      9.5665   6.8362   2.0241   H         1 RES1   0.0000
    54 C25      7.5876   6.1697   1.7564   C.ar      1 RES1   0.0000
    55 C26      6.7300   7.2240   1.4126   C.ar      1 RES1   0.0000
    56 H19      7.0569   8.1122   1.3249   H         1 RES1   0.0000
    57 C27      5.4015   6.9325   1.2069   C.ar      1 RES1   0.0000
    58 H20      4.8023   7.6320   0.9744   H         1 RES1   0.0000
    59 C28      4.9143   5.6172   1.3317   C.ar      1 RES1   0.0000
    60 H21      3.9917   5.4500   1.1727   H         1 RES1   0.0000
    61 C29      5.7416   4.5592   1.6829   C.ar      1 RES1   0.0000
    62 H22      5.4088   3.6734   1.7694   H         1 RES1   0.0000
    63 C30      7.0867   4.8595   1.9024   C.ar      1 RES1   0.0000
    64 B1      16.0479   3.9015   1.5796   B         2 RES2  -1.0000
    65 F1      15.7510   5.2172   1.2463   F         2 RES2   0.0000
    66 F2      17.1643   3.8439   2.3807   F         2 RES2   0.0000
    67 F3      16.3329   3.2350   0.3761   F         2 RES2   0.0000
    68 F4      14.9826   3.3022   2.1369   F         2 RES2   0.0000
    69 B2       9.5323   9.5302   3.0088   B         3 RES3  -1.0000
    70 F5      10.5271  10.4919   3.1415   F         3 RES3   0.0000
    71 F6       9.5224   9.0511   1.7136   F         3 RES3   0.0000
    72 F7       9.7420   8.4777   3.8887   F         3 RES3   0.0000
    73 F8       8.2787  10.0989   3.3032   F         3 RES3   0.0000
    74 C31     16.1443   5.7934   7.1151   C.3       4 RES4   0.0000
    75 H23     16.2034   6.7678   7.2074   H         4 RES4   0.0000
    76 H24     16.8909   5.4715   6.5664   H         4 RES4   0.0000
    77 H25     16.1849   5.3777   8.0007   H         4 RES4   0.0000
    78 N11     14.8728   5.4398   6.4662   N.pl3     4 RES4   0.0000
    79 O1      14.8842   4.5972   5.6039   O.2       4 RES4   0.0000
    80 O2      13.8624   5.9670   6.8313   O.2       4 RES4   0.0000
@<TRIPOS>BOND
     1     1     2    1
     2     2     3   ar
     3     3     4   ar
     4     4     5    1
     5     6     4   ar
     6     7     6    1
     7     8     6   ar
     8     9     8    1
     9    10     2   ar
    10    11     3    1
    11    12     1    1
    12    13    12    2
    13    14    13    1
    14    15    13    1
    15    16    15    1
    16    17    11    1
    17    18    17    1
    18    19    10    1
    19    20     1    1
    20    21    20    2
    21    22    21    1
    22    23    21    1
    23    24    23   ar
    24    25    24    1
    25    26    24   ar
    26    27    26    1
    27    28    26   ar
    28    29    28    1
    29    30    28   ar
    30    31    30    1
    31    32    19    1
    32    33     1    1
    33    34    33   ar
    34    35    34   ar
    35    36    35    1
    36    37    35   ar
    37    38    37    1
    38    39    37   ar
    39    40    39    1
    40    41    33   ar
    41    42    34    1
    42    43     1    1
    43    44    43    2
    44    45    44    1
    45    46    44    1
    46    47    46    1
    47    48    42    1
    48    49    48    1
    49    50    41    1
    50    51     1    1
    51    52    51    2
    52    53    52    1
    53    54    52    1
    54    55    54   ar
    55    56    55    1
    56    57    55   ar
    57    58    57    1
    58    59    57   ar
    59    60    59    1
    60    61    59   ar
    61    62    61    1
    62    63    50    1
    63     8    10   ar
    64    11    12    1
    65    15    17    2
    66    19    20    1
    67    23    32   ar
    68    30    32   ar
    69    39    41   ar
    70    42    43    1
    71    46    48    2
    72    50    51    1
    73    54    63   ar
    74    61    63   ar
    75    64    65    1
    76    66    64    1
    77    67    64    1
    78    68    64    1
    79    69    70    1
    80    71    69    1
    81    72    69    1
    82    73    69    1
    83    74    75    1
    84    76    74    1
    85    77    74    1
    86    78    74    1
    87    79    78    2
    88    80    78    2
@<TRIPOS>SUBSTRUCTURE
     1 RES1        1 GROUP             0 ****  ****    0  
     2 RES2       64 GROUP             0 ****  ****    0  
     3 RES3       69 GROUP             0 ****  ****    0  
     4 RES4       74 GROUP             0 ****  ****    0  
@<TRIPOS>CRYSIN
   15.0240   12.6714   17.1017   90.0000   91.5520   90.0000    14     1
