@<TRIPOS>MOLECULE
DUDDUD
    80    88     4     0     0
SMALL
USER_CHARGES
****
Generated from the CSD

@<TRIPOS>ATOM
     1 Fe1     10.8767   3.9421   3.1107   Fe        1 RES1   2.0000
     2 N1      11.9895   5.4773   3.1376   N.ar      1 RES1   0.0000
     3 C1      12.6403   5.8334   2.0213   C.ar      1 RES1   0.0000
     4 C2      13.2861   7.0505   1.8888   C.ar      1 RES1   0.0000
     5 H1      13.7341   7.2959   1.0878   H         1 RES1   0.0000
     6 C3      13.2438   7.8949   2.9916   C.ar      1 RES1   0.0000
     7 H2      13.6825   8.7361   2.9440   H         1 RES1   0.0000
     8 C4      12.5801   7.5476   4.1620   C.ar      1 RES1   0.0000
     9 H3      12.5705   8.1247   4.9163   H         1 RES1   0.0000
    10 C5      11.9332   6.3210   4.1786   C.ar      1 RES1   0.0000
    11 N2      12.5197   4.8418   1.0335   N.pl3     1 RES1   0.0000
    12 N3      11.7641   3.7393   1.3625   N.2       1 RES1   0.0000
    13 C6      11.9044   2.8997   0.3439   C.2       1 RES1   0.0000
    14 H4      11.5012   2.0414   0.2920   H         1 RES1   0.0000
    15 C7      12.7325   3.4561  -0.6501   C.2       1 RES1   0.0000
    16 H5      12.9794   3.0596  -1.4771   H         1 RES1   0.0000
    17 C8      13.1087   4.6860  -0.1786   C.2       1 RES1   0.0000
    18 H6      13.6751   5.3107  -0.6165   H         1 RES1   0.0000
    19 N4      11.0929   5.8112   5.1808   N.pl3     1 RES1   0.0000
    20 N5      10.4056   4.6493   4.8555   N.2       1 RES1   0.0000
    21 C9       9.5497   4.4081   5.8278   C.2       1 RES1   0.0000
    22 H7       8.9593   3.6646   5.8572   H         1 RES1   0.0000
    23 C10      9.6350   5.4160   6.8263   C.ar      1 RES1   0.0000
    24 C11      8.9440   5.6621   8.0247   C.ar      1 RES1   0.0000
    25 H8       8.2473   5.0856   8.3162   H         1 RES1   0.0000
    26 C12      9.3098   6.7663   8.7637   C.ar      1 RES1   0.0000
    27 H9       8.8587   6.9518   9.5798   H         1 RES1   0.0000
    28 C13     10.3417   7.6266   8.3331   C.ar      1 RES1   0.0000
    29 H10     10.5746   8.3729   8.8729   H         1 RES1   0.0000
    30 C14     11.0253   7.4171   7.1487   C.ar      1 RES1   0.0000
    31 H11     11.7185   8.0006   6.8630   H         1 RES1   0.0000
    32 C15     10.6436   6.3007   6.3924   C.ar      1 RES1   0.0000
    33 N6       9.6106   2.5351   3.1115   N.ar      1 RES1   0.0000
    34 C16      9.9293   1.3617   3.6747   C.ar      1 RES1   0.0000
    35 C17      9.0177   0.3465   3.8507   C.ar      1 RES1   0.0000
    36 H12      9.2543  -0.4694   4.2759   H         1 RES1   0.0000
    37 C18      7.7330   0.5779   3.3727   C.ar      1 RES1   0.0000
    38 H13      7.0799  -0.1062   3.4580   H         1 RES1   0.0000
    39 C19      7.3775   1.7815   2.7744   C.ar      1 RES1   0.0000
    40 H14      6.5012   1.9250   2.4368   H         1 RES1   0.0000
    41 C20      8.3515   2.7606   2.6919   C.ar      1 RES1   0.0000
    42 N7      11.2724   1.3438   4.0730   N.pl3     1 RES1   0.0000
    43 N8      11.9877   2.5079   3.9124   N.2       1 RES1   0.0000
    44 C21     13.2080   2.2394   4.3514   C.2       1 RES1   0.0000
    45 H15     13.9287   2.8587   4.3630   H         1 RES1   0.0000
    46 C22     13.2887   0.9021   4.8017   C.2       1 RES1   0.0000
    47 H16     14.0528   0.4656   5.1622   H         1 RES1   0.0000
    48 C23     12.0488   0.3647   4.6154   C.2       1 RES1   0.0000
    49 H17     11.7789  -0.5219   4.8241   H         1 RES1   0.0000
    50 N9       8.2021   4.0714   2.2385   N.pl3     1 RES1   0.0000
    51 N10      9.3390   4.8760   2.3374   N.2       1 RES1   0.0000
    52 C24      8.9898   6.0971   2.0324   C.2       1 RES1   0.0000
    53 H18      9.5830   6.8380   2.0065   H         1 RES1   0.0000
    54 C25      7.6025   6.1649   1.7445   C.ar      1 RES1   0.0000
    55 C26      6.7370   7.2194   1.4018   C.ar      1 RES1   0.0000
    56 H19      7.0598   8.1081   1.3098   H         1 RES1   0.0000
    57 C27      5.4071   6.9224   1.2041   C.ar      1 RES1   0.0000
    58 H20      4.8006   7.6195   0.9836   H         1 RES1   0.0000
    59 C28      4.9319   5.5958   1.3244   C.ar      1 RES1   0.0000
    60 H21      4.0117   5.4207   1.1646   H         1 RES1   0.0000
    61 C29      5.7620   4.5452   1.6678   C.ar      1 RES1   0.0000
    62 H22      5.4334   3.6582   1.7520   H         1 RES1   0.0000
    63 C30      7.1125   4.8517   1.8864   C.ar      1 RES1   0.0000
    64 Cl1     16.1445   3.8610   1.4906   Cl        2 RES2   0.0000
    65 O1      15.8226   5.2421   1.2189   O.3       2 RES2  -1.0000
    66 O2      17.2900   3.8018   2.3586   O.2       2 RES2   0.0000
    67 O3      16.4479   3.2035   0.2461   O.2       2 RES2   0.0000
    68 O4      15.0241   3.2156   2.1031   O.2       2 RES2   0.0000
    69 Cl2      9.5606   9.5969   3.0205   Cl        3 RES3   0.0000
    70 O5      10.6073  10.5753   3.1803   O.2       3 RES3   0.0000
    71 O6       9.5542   9.1156   1.6685   O.2       3 RES3   0.0000
    72 O7       9.7646   8.4885   3.9139   O.2       3 RES3   0.0000
    73 O8       8.2812  10.2040   3.3244   O.3       3 RES3  -1.0000
    74 C31     16.1292   6.0590   7.0689   C.3       4 RES4   0.0000
    75 H23     16.0752   7.0375   7.0525   H         4 RES4   0.0000
    76 H24     16.9415   5.7687   6.6034   H         4 RES4   0.0000
    77 H25     16.1555   5.7482   7.9986   H         4 RES4   0.0000
    78 N11     14.9484   5.4906   6.3946   N.pl3     4 RES4   0.0000
    79 O9      15.1251   4.6814   5.5068   O.2       4 RES4   0.0000
    80 O10     13.8525   5.8582   6.7703   O.2       4 RES4   0.0000
@<TRIPOS>BOND
     1     1     2    1
     2     2     3   ar
     3     3     4   ar
     4     4     5    1
     5     6     4   ar
     6     7     6    1
     7     8     6   ar
     8     9     8    1
     9    10     2   ar
    10    11     3    1
    11    12     1    1
    12    13    12    2
    13    14    13    1
    14    15    13    1
    15    16    15    1
    16    17    11    1
    17    18    17    1
    18    19    10    1
    19    20     1    1
    20    21    20    2
    21    22    21    1
    22    23    21    1
    23    24    23   ar
    24    25    24    1
    25    26    24   ar
    26    27    26    1
    27    28    26   ar
    28    29    28    1
    29    30    28   ar
    30    31    30    1
    31    32    19    1
    32    33     1    1
    33    34    33   ar
    34    35    34   ar
    35    36    35    1
    36    37    35   ar
    37    38    37    1
    38    39    37   ar
    39    40    39    1
    40    41    33   ar
    41    42    34    1
    42    43     1    1
    43    44    43    2
    44    45    44    1
    45    46    44    1
    46    47    46    1
    47    48    42    1
    48    49    48    1
    49    50    41    1
    50    51     1    1
    51    52    51    2
    52    53    52    1
    53    54    52    1
    54    55    54   ar
    55    56    55    1
    56    57    55   ar
    57    58    57    1
    58    59    57   ar
    59    60    59    1
    60    61    59   ar
    61    62    61    1
    62    63    50    1
    63     8    10   ar
    64    11    12    1
    65    15    17    2
    66    19    20    1
    67    23    32   ar
    68    30    32   ar
    69    39    41   ar
    70    42    43    1
    71    46    48    2
    72    50    51    1
    73    54    63   ar
    74    61    63   ar
    75    64    65    1
    76    66    64    2
    77    67    64    2
    78    68    64    2
    79    69    70    2
    80    71    69    2
    81    72    69    2
    82    73    69    1
    83    74    75    1
    84    76    74    1
    85    77    74    1
    86    78    74    1
    87    79    78    2
    88    80    78    2
@<TRIPOS>SUBSTRUCTURE
     1 RES1        1 GROUP             0 ****  ****    0  
     2 RES2       64 GROUP             0 ****  ****    0  
     3 RES3       69 GROUP             0 ****  ****    0  
     4 RES4       74 GROUP             0 ****  ****    0  
@<TRIPOS>CRYSIN
   15.1486   12.7908   17.0900   90.0000   92.2920   90.0000    14     1
