@<TRIPOS>MOLECULE
DUDHUH01
    99   108     5     0     0
SMALL
USER_CHARGES
****
Generated from the CSD

@<TRIPOS>ATOM
     1 Fe1      9.0362   5.1374   7.3226   Fe        1 RES1   2.0000
     2 N1       8.9164   7.0138   7.4854   N.ar      1 RES1   0.0000
     3 C1       9.9153   7.7940   7.0665   C.ar      1 RES1   0.0000
     4 C2       9.8893   9.1630   7.2123   C.ar      1 RES1   0.0000
     5 H1      10.6060   9.7069   6.9066   H         1 RES1   0.0000
     6 C3       8.7721   9.7110   7.8237   C.ar      1 RES1   0.0000
     7 H2       8.7268  10.6541   7.9383   H         1 RES1   0.0000
     8 C4       7.7348   8.9368   8.2666   C.ar      1 RES1   0.0000
     9 H3       6.9784   9.3157   8.6997   H         1 RES1   0.0000
    10 C5       7.8408   7.5679   8.0501   C.ar      1 RES1   0.0000
    11 N2      10.9626   7.0220   6.5174   N.pl3     1 RES1   0.0000
    12 N3      10.7441   5.6550   6.5018   N.2       1 RES1   0.0000
    13 C6      11.8784   5.1335   5.9810   C.2       1 RES1   0.0000
    14 C7      12.1713   3.7789   5.7106   C.2       1 RES1   0.0000
    15 H4      11.5467   3.0883   5.8932   H         1 RES1   0.0000
    16 C8      13.4018   3.5161   5.1743   C.2       1 RES1   0.0000
    17 H5      13.6316   2.6157   4.9747   H         1 RES1   0.0000
    18 C9      14.3407   4.5346   4.9082   C.2       1 RES1   0.0000
    19 H6      15.1946   4.2922   4.5685   H         1 RES1   0.0000
    20 C10     14.0755   5.8384   5.1134   C.2       1 RES1   0.0000
    21 H7      14.7105   6.5086   4.8926   H         1 RES1   0.0000
    22 C11     12.8066   6.1765   5.6767   C.2       1 RES1   0.0000
    23 C12     12.1826   7.3540   6.0220   C.2       1 RES1   0.0000
    24 H8      12.5365   8.2300   5.9314   H         1 RES1   0.0000
    25 N4       6.9005   6.5921   8.4152   N.pl3     1 RES1   0.0000
    26 N5       7.2839   5.2680   8.2284   N.2       1 RES1   0.0000
    27 C13      6.2352   4.5469   8.6785   C.2       1 RES1   0.0000
    28 C14      6.0926   3.1433   8.7875   C.2       1 RES1   0.0000
    29 H9       6.7850   2.5586   8.5016   H         1 RES1   0.0000
    30 C15      4.9399   2.6503   9.3139   C.2       1 RES1   0.0000
    31 H10      4.8425   1.7112   9.4201   H         1 RES1   0.0000
    32 C16      3.8722   3.5100   9.7102   C.2       1 RES1   0.0000
    33 H11      3.0665   3.1249  10.0329   H         1 RES1   0.0000
    34 C17      3.9776   4.8504   9.6395   C.2       1 RES1   0.0000
    35 H12      3.2668   5.4106   9.9282   H         1 RES1   0.0000
    36 C18      5.1852   5.4106   9.1200   C.2       1 RES1   0.0000
    37 C19      5.6448   6.6838   8.9389   C.2       1 RES1   0.0000
    38 H13      5.1765   7.4844   9.1413   H         1 RES1   0.0000
    39 N6       9.0684   3.2533   7.2038   N.ar      1 RES1   0.0000
    40 C20      8.5244   2.6462   6.1366   C.ar      1 RES1   0.0000
    41 C21      8.3941   1.2793   6.0659   C.ar      1 RES1   0.0000
    42 H14      7.9982   0.8576   5.3115   H         1 RES1   0.0000
    43 C22      8.8632   0.5358   7.1457   C.ar      1 RES1   0.0000
    44 H15      8.7986  -0.4115   7.1245   H         1 RES1   0.0000
    45 C23      9.4264   1.1550   8.2567   C.ar      1 RES1   0.0000
    46 H16      9.7493   0.6498   8.9941   H         1 RES1   0.0000
    47 C24      9.4958   2.5260   8.2383   C.ar      1 RES1   0.0000
    48 N7       8.0872   3.5813   5.1941   N.pl3     1 RES1   0.0000
    49 N8       8.1966   4.9196   5.5507   N.2       1 RES1   0.0000
    50 C25      7.7384   5.6041   4.4978   C.2       1 RES1   0.0000
    51 C26      7.6181   7.0036   4.3251   C.2       1 RES1   0.0000
    52 H17      7.8895   7.6086   5.0030   H         1 RES1   0.0000
    53 C27      7.0911   7.4477   3.1405   C.2       1 RES1   0.0000
    54 H18      6.9970   8.3848   3.0060   H         1 RES1   0.0000
    55 C28      6.6834   6.5697   2.1088   C.2       1 RES1   0.0000
    56 H19      6.3276   6.9303   1.3063   H         1 RES1   0.0000
    57 C29      6.7902   5.2211   2.2446   C.2       1 RES1   0.0000
    58 H20      6.5148   4.6385   1.5455   H         1 RES1   0.0000
    59 C30      7.3280   4.6976   3.4632   C.2       1 RES1   0.0000
    60 C31      7.5780   3.4305   3.9571   C.2       1 RES1   0.0000
    61 H21      7.4205   2.6075   3.5071   H         1 RES1   0.0000
    62 N9       9.9754   3.3531   9.2743   N.pl3     1 RES1   0.0000
    63 N10      9.9181   4.7139   9.0266   N.2       1 RES1   0.0000
    64 C32     10.4021   5.2884  10.1546   C.2       1 RES1   0.0000
    65 C33     10.6029   6.6634  10.4292   C.2       1 RES1   0.0000
    66 H22     10.3987   7.3316   9.7852   H         1 RES1   0.0000
    67 C34     11.0997   6.9853  11.6491   C.2       1 RES1   0.0000
    68 H23     11.2464   7.9000  11.8586   H         1 RES1   0.0000
    69 C35     11.4066   6.0075  12.6214   C.2       1 RES1   0.0000
    70 H24     11.7294   6.2866  13.4706   H         1 RES1   0.0000
    71 C36     11.2548   4.6732  12.3752   C.2       1 RES1   0.0000
    72 H25     11.4871   4.0253  13.0319   H         1 RES1   0.0000
    73 C37     10.7403   4.2820  11.1113   C.2       1 RES1   0.0000
    74 C38     10.4453   3.0720  10.5056   C.2       1 RES1   0.0000
    75 H26     10.5529   2.2082  10.8863   H         1 RES1   0.0000
    76 B1       1.3956  10.2936   4.4086   B         2 RES2  -1.0000
    77 F1       0.9651   9.0265   4.7313   F         2 RES2   0.0000
    78 F2       2.7286  10.2202   4.1086   F         2 RES2   0.0000
    79 F3       0.6968  10.7275   3.3033   F         2 RES2   0.0000
    80 F4       1.2404  11.1777   5.4361   F         2 RES2   0.0000
    81 B2       3.7954   9.6865  10.4815   B         3 RES3  -1.0000
    82 F5       5.0310   9.7517   9.8730   F         3 RES3   0.0000
    83 F6       3.3044   8.4011  10.3825   F         3 RES3   0.0000
    84 F7       3.8971  10.0308  11.8119   F         3 RES3   0.0000
    85 F8       2.9348  10.5584   9.8617   F         3 RES3   0.0000
    86 C39      1.2146   8.4887   7.8406   C.3       4 RES4   0.0000
    87 H27      1.4190   8.9593   8.6757   H         4 RES4   0.0000
    88 H28      0.4228   7.9264   7.9666   H         4 RES4   0.0000
    89 H29      1.0409   9.1426   7.1316   H         4 RES4   0.0000
    90 N11      2.3398   7.6616   7.4670   N.pl3     4 RES4   0.0000
    91 O1       2.2179   6.4210   7.6142   O.2       4 RES4   0.0000
    92 O2       3.3514   8.1444   7.0509   O.2       4 RES4   0.0000
    93 C40      8.6665   8.7128  14.1032   C.3       5 RES5   0.0000
    94 H30      9.2662   9.0306  14.8095   H         5 RES5   0.0000
    95 H31      9.0762   7.9468  13.6475   H         5 RES5   0.0000
    96 H32      7.8118   8.4398  14.4967   H         5 RES5   0.0000
    97 N12      8.4384   9.7863  13.1394   N.pl3     5 RES5   0.0000
    98 O3       8.4810   9.5195  11.9846   O.2       5 RES5   0.0000
    99 O4       8.2168  10.9149  13.5626   O.2       5 RES5   0.0000
@<TRIPOS>BOND
     1     1     2    1
     2     2     3   ar
     3     3     4   ar
     4     4     5    1
     5     6     4   ar
     6     7     6    1
     7     8     6   ar
     8     9     8    1
     9    10     2   ar
    10    11     3    1
    11    12     1    1
    12    13    12    2
    13    14    13    1
    14    15    14    1
    15    16    14    2
    16    17    16    1
    17    18    16    1
    18    19    18    1
    19    20    18    2
    20    21    20    1
    21    22    13    1
    22    23    11    1
    23    24    23    1
    24    25    10    1
    25    26     1    1
    26    27    26    2
    27    28    27    1
    28    29    28    1
    29    30    28    2
    30    31    30    1
    31    32    30    1
    32    33    32    1
    33    34    32    2
    34    35    34    1
    35    36    27    1
    36    37    25    1
    37    38    37    1
    38    39     1    1
    39    40    39   ar
    40    41    40   ar
    41    42    41    1
    42    43    41   ar
    43    44    43    1
    44    45    43   ar
    45    46    45    1
    46    47    39   ar
    47    48    40    1
    48    49     1    1
    49    50    49    2
    50    51    50    1
    51    52    51    1
    52    53    51    2
    53    54    53    1
    54    55    53    1
    55    56    55    1
    56    57    55    2
    57    58    57    1
    58    59    50    1
    59    60    48    1
    60    61    60    1
    61    62    47    1
    62    63     1    1
    63    64    63    2
    64    65    64    1
    65    66    65    1
    66    67    65    2
    67    68    67    1
    68    69    67    1
    69    70    69    1
    70    71    69    2
    71    72    71    1
    72    73    64    1
    73    74    62    1
    74    75    74    1
    75     8    10   ar
    76    11    12    1
    77    20    22    1
    78    22    23    2
    79    25    26    1
    80    34    36    1
    81    36    37    2
    82    45    47   ar
    83    48    49    1
    84    57    59    1
    85    59    60    2
    86    62    63    1
    87    71    73    1
    88    73    74    2
    89    76    77    1
    90    78    76    1
    91    79    76    1
    92    80    76    1
    93    81    82    1
    94    83    81    1
    95    84    81    1
    96    85    81    1
    97    86    87    1
    98    88    86    1
    99    89    86    1
   100    90    86    1
   101    91    90    2
   102    92    90    2
   103    93    94    1
   104    95    93    1
   105    96    93    1
   106    97    93    1
   107    98    97    2
   108    99    97    2
@<TRIPOS>SUBSTRUCTURE
     1 RES1        1 GROUP             0 ****  ****    0  
     2 RES2       76 GROUP             0 ****  ****    0  
     3 RES3       81 GROUP             0 ****  ****    0  
     4 RES4       86 GROUP             0 ****  ****    0  
     5 RES5       93 GROUP             0 ****  ****    0  
@<TRIPOS>CRYSIN
   14.1074   20.3712   14.1541   90.0000   90.7840   90.0000   231     1
