@<TRIPOS>MOLECULE
DUDHUH
    99   108     5     0     0
SMALL
USER_CHARGES
****
Generated from the CSD

@<TRIPOS>ATOM
     1 Fe1      8.9678   5.0856   7.2772   Fe        1 RES1   2.0000
     2 N1       8.8550   6.9612   7.4394   N.ar      1 RES1   0.0000
     3 C1       9.8572   7.7408   7.0034   C.ar      1 RES1   0.0000
     4 C2       9.8342   9.1134   7.1362   C.ar      1 RES1   0.0000
     5 H1      10.5465   9.6563   6.8186   H         1 RES1   0.0000
     6 C3       8.7195   9.6650   7.7576   C.ar      1 RES1   0.0000
     7 H2       8.6757  10.6055   7.8789   H         1 RES1   0.0000
     8 C4       7.6704   8.8787   8.2060   C.ar      1 RES1   0.0000
     9 H3       6.9117   9.2604   8.6332   H         1 RES1   0.0000
    10 C5       7.7739   7.5192   8.0058   C.ar      1 RES1   0.0000
    11 N2      10.8905   6.9569   6.4521   N.pl3     1 RES1   0.0000
    12 N3      10.6718   5.5918   6.4462   N.2       1 RES1   0.0000
    13 C6      11.7975   5.0628   5.9244   C.2       1 RES1   0.0000
    14 C7      12.0838   3.6987   5.6672   C.2       1 RES1   0.0000
    15 H4      11.4519   3.0154   5.8556   H         1 RES1   0.0000
    16 C8      13.3107   3.4109   5.1357   C.2       1 RES1   0.0000
    17 H5      13.5320   2.5065   4.9504   H         1 RES1   0.0000
    18 C9      14.2718   4.4284   4.8517   C.2       1 RES1   0.0000
    19 H6      15.1191   4.1788   4.4992   H         1 RES1   0.0000
    20 C10     14.0066   5.7532   5.0716   C.2       1 RES1   0.0000
    21 H7      14.6499   6.4227   4.8700   H         1 RES1   0.0000
    22 C11     12.7361   6.0965   5.6129   C.2       1 RES1   0.0000
    23 C12     12.1159   7.2861   5.9598   C.2       1 RES1   0.0000
    24 H8      12.4759   8.1617   5.8711   H         1 RES1   0.0000
    25 N4       6.8355   6.5409   8.3767   N.pl3     1 RES1   0.0000
    26 N5       7.2238   5.2232   8.1927   N.2       1 RES1   0.0000
    27 C13      6.1754   4.4981   8.6505   C.2       1 RES1   0.0000
    28 C14      6.0538   3.0912   8.7569   C.2       1 RES1   0.0000
    29 H9       6.7528   2.5105   8.4823   H         1 RES1   0.0000
    30 C15      4.8776   2.6048   9.2756   C.2       1 RES1   0.0000
    31 H10      4.7726   1.6642   9.3650   H         1 RES1   0.0000
    32 C16      3.8067   3.4590   9.6850   C.2       1 RES1   0.0000
    33 H11      3.0031   3.0740  10.0136   H         1 RES1   0.0000
    34 C17      3.9170   4.8180   9.6117   C.2       1 RES1   0.0000
    35 H12      3.2108   5.3826   9.9022   H         1 RES1   0.0000
    36 C18      5.1228   5.3632   9.0876   C.2       1 RES1   0.0000
    37 C19      5.5907   6.6554   8.9003   C.2       1 RES1   0.0000
    38 H13      5.1296   7.4608   9.0999   H         1 RES1   0.0000
    39 N6       8.9977   3.2055   7.1636   N.ar      1 RES1   0.0000
    40 C20      8.4456   2.5905   6.1044   C.ar      1 RES1   0.0000
    41 C21      8.3208   1.2167   6.0276   C.ar      1 RES1   0.0000
    42 H14      7.9299   0.7917   5.2719   H         1 RES1   0.0000
    43 C22      8.7964   0.4892   7.1090   C.ar      1 RES1   0.0000
    44 H15      8.7266  -0.4585   7.0907   H         1 RES1   0.0000
    45 C23      9.3752   1.1018   8.2259   C.ar      1 RES1   0.0000
    46 H16      9.7048   0.5958   8.9589   H         1 RES1   0.0000
    47 C24      9.4451   2.4820   8.2071   C.ar      1 RES1   0.0000
    48 N7       8.0058   3.5331   5.1540   N.pl3     1 RES1   0.0000
    49 N8       8.1202   4.8643   5.5176   N.2       1 RES1   0.0000
    50 C25      7.6488   5.5522   4.4575   C.2       1 RES1   0.0000
    51 C26      7.5368   6.9545   4.2908   C.2       1 RES1   0.0000
    52 H17      7.8168   7.5578   4.9687   H         1 RES1   0.0000
    53 C27      7.0080   7.3994   3.1107   C.2       1 RES1   0.0000
    54 H18      6.9133   8.3354   2.9764   H         1 RES1   0.0000
    55 C28      6.5947   6.5156   2.0755   C.2       1 RES1   0.0000
    56 H19      6.2326   6.8771   1.2746   H         1 RES1   0.0000
    57 C29      6.7035   5.1640   2.2031   C.2       1 RES1   0.0000
    58 H20      6.4281   4.5827   1.5044   H         1 RES1   0.0000
    59 C30      7.2458   4.6482   3.4199   C.2       1 RES1   0.0000
    60 C31      7.4850   3.3741   3.9135   C.2       1 RES1   0.0000
    61 H21      7.3165   2.5509   3.4685   H         1 RES1   0.0000
    62 N9       9.9163   3.3154   9.2368   N.pl3     1 RES1   0.0000
    63 N10      9.8650   4.6718   8.9789   N.2       1 RES1   0.0000
    64 C32     10.3405   5.2543  10.0949   C.2       1 RES1   0.0000
    65 C33     10.5231   6.6305  10.3646   C.2       1 RES1   0.0000
    66 H22     10.3156   7.2912   9.7146   H         1 RES1   0.0000
    67 C34     11.0064   6.9707  11.5892   C.2       1 RES1   0.0000
    68 H23     11.1407   7.8890  11.7901   H         1 RES1   0.0000
    69 C35     11.3208   5.9899  12.5867   C.2       1 RES1   0.0000
    70 H24     11.6430   6.2773  13.4327   H         1 RES1   0.0000
    71 C36     11.1674   4.6557  12.3499   C.2       1 RES1   0.0000
    72 H25     11.3817   4.0112  13.0140   H         1 RES1   0.0000
    73 C37     10.6723   4.2596  11.0684   C.2       1 RES1   0.0000
    74 C38     10.3826   3.0387  10.4793   C.2       1 RES1   0.0000
    75 H26     10.4903   2.1793  10.8694   H         1 RES1   0.0000
    76 B1       1.4320  10.1564   4.4118   B         2 RES2  -1.0000
    77 F1       1.0363   8.8442   4.6729   F         2 RES2   0.0000
    78 F2       2.7818  10.1533   4.0895   F         2 RES2   0.0000
    79 F3       0.6926  10.6098   3.3176   F         2 RES2   0.0000
    80 F4       1.2235  10.9752   5.4945   F         2 RES2   0.0000
    81 B2       3.7059   9.5737  10.4295   B         3 RES3  -1.0000
    82 F5       4.9465   9.6682   9.7895   F         3 RES3   0.0000
    83 F6       3.2254   8.2655  10.3119   F         3 RES3   0.0000
    84 F7       3.8286   9.9053  11.7626   F         3 RES3   0.0000
    85 F8       2.8020  10.4409   9.8108   F         3 RES3   0.0000
    86 C39      1.1376   8.3681   7.8056   C.3       4 RES4   0.0000
    87 H27      1.3468   8.8646   8.6247   H         4 RES4   0.0000
    88 H28      0.3535   7.8002   7.9592   H         4 RES4   0.0000
    89 H29      0.9467   8.9999   7.0808   H         4 RES4   0.0000
    90 N11      2.2935   7.5224   7.4316   N.pl3     4 RES4   0.0000
    91 O1       2.1724   6.2977   7.5608   O.2       4 RES4   0.0000
    92 O2       3.2986   8.0536   7.0383   O.2       4 RES4   0.0000
    93 C40      8.6071   8.6040  14.0757   C.3       5 RES5   0.0000
    94 H30      9.0660   8.9474  14.8695   H         5 RES5   0.0000
    95 H31      9.1713   7.9335  13.6358   H         5 RES5   0.0000
    96 H32      7.7569   8.1940  14.3393   H         5 RES5   0.0000
    97 N12      8.3451   9.7187  13.1380   N.pl3     5 RES5   0.0000
    98 O3       8.4022   9.4741  11.9353   O.2       5 RES5   0.0000
    99 O4       8.1170  10.8279  13.5878   O.2       5 RES5   0.0000
@<TRIPOS>BOND
     1     1     2    1
     2     2     3   ar
     3     3     4   ar
     4     4     5    1
     5     6     4   ar
     6     7     6    1
     7     8     6   ar
     8     9     8    1
     9    10     2   ar
    10    11     3    1
    11    12     1    1
    12    13    12    2
    13    14    13    1
    14    15    14    1
    15    16    14    2
    16    17    16    1
    17    18    16    1
    18    19    18    1
    19    20    18    2
    20    21    20    1
    21    22    13    1
    22    23    11    1
    23    24    23    1
    24    25    10    1
    25    26     1    1
    26    27    26    2
    27    28    27    1
    28    29    28    1
    29    30    28    2
    30    31    30    1
    31    32    30    1
    32    33    32    1
    33    34    32    2
    34    35    34    1
    35    36    27    1
    36    37    25    1
    37    38    37    1
    38    39     1    1
    39    40    39   ar
    40    41    40   ar
    41    42    41    1
    42    43    41   ar
    43    44    43    1
    44    45    43   ar
    45    46    45    1
    46    47    39   ar
    47    48    40    1
    48    49     1    1
    49    50    49    2
    50    51    50    1
    51    52    51    1
    52    53    51    2
    53    54    53    1
    54    55    53    1
    55    56    55    1
    56    57    55    2
    57    58    57    1
    58    59    50    1
    59    60    48    1
    60    61    60    1
    61    62    47    1
    62    63     1    1
    63    64    63    2
    64    65    64    1
    65    66    65    1
    66    67    65    2
    67    68    67    1
    68    69    67    1
    69    70    69    1
    70    71    69    2
    71    72    71    1
    72    73    64    1
    73    74    62    1
    74    75    74    1
    75     8    10   ar
    76    11    12    1
    77    20    22    1
    78    22    23    2
    79    25    26    1
    80    34    36    1
    81    36    37    2
    82    45    47   ar
    83    48    49    1
    84    57    59    1
    85    59    60    2
    86    62    63    1
    87    71    73    1
    88    73    74    2
    89    76    77    1
    90    78    76    1
    91    79    76    1
    92    80    76    1
    93    81    82    1
    94    83    81    1
    95    84    81    1
    96    85    81    1
    97    86    87    1
    98    88    86    1
    99    89    86    1
   100    90    86    1
   101    91    90    2
   102    92    90    2
   103    93    94    1
   104    95    93    1
   105    96    93    1
   106    97    93    1
   107    98    97    2
   108    99    97    2
@<TRIPOS>SUBSTRUCTURE
     1 RES1        1 GROUP             0 ****  ****    0  
     2 RES2       76 GROUP             0 ****  ****    0  
     3 RES3       81 GROUP             0 ****  ****    0  
     4 RES4       86 GROUP             0 ****  ****    0  
     5 RES5       93 GROUP             0 ****  ****    0  
@<TRIPOS>CRYSIN
   14.0107   20.1972   14.1012   90.0000   90.8540   90.0000   231     1
