@<TRIPOS>MOLECULE
DUDSAZ
   158   164     3     0     0
SMALL
USER_CHARGES
****
Generated from the CSD

@<TRIPOS>ATOM
     1 B1       8.3654   7.1289   2.1105   B         1 RES1  -1.0000
     2 F1       8.9231   5.8689   1.7165   F         1 RES1   0.0000
     3 F2       9.1145   7.4997   3.1369   F         1 RES1   0.0000
     4 F3       7.1238   6.8456   2.3222   F         1 RES1   0.0000
     5 F4       8.5612   7.9305   1.0519   F         1 RES1   0.0000
     6 B2       8.4175  14.4500   4.3737   B         2 RES2  -1.0000
     7 F5       8.1714  13.7617   3.2307   F         2 RES2   0.0000
     8 F6       9.4351  13.9368   5.0785   F         2 RES2   0.0000
     9 F7       7.2812  14.5118   5.1026   F         2 RES2   0.0000
    10 F8       8.7094  15.7460   4.1392   F         2 RES2   0.0000
    11 C1       7.8577  -0.6059   9.6331   C.2       3 RES3   0.0000
    12 C2       9.0799   0.2644   8.0894   C.2       3 RES3   0.0000
    13 H1       9.7156   0.8085   7.6365   H         3 RES3   0.0000
    14 C3       8.2967  -0.6986   7.4838   C.2       3 RES3   0.0000
    15 H2       8.2797  -0.9287   6.5632   H         3 RES3   0.0000
    16 C4       6.5850  -2.3517   8.3427   C.3       3 RES3   0.0000
    17 H3       6.4307  -2.7516   9.2351   H         3 RES3   0.0000
    18 H4       6.9810  -3.0503   7.7652   H         3 RES3   0.0000
    19 C5       5.2835  -1.9483   7.7745   C.3       3 RES3   0.0000
    20 H5       5.3988  -1.6857   6.8258   H         3 RES3   0.0000
    21 H6       4.9284  -1.1673   8.2703   H         3 RES3   0.0000
    22 C6       4.2760  -3.1499   7.8777   C.3       3 RES3   0.0000
    23 H7       4.6732  -3.9412   7.4342   H         3 RES3   0.0000
    24 H8       4.1399  -3.3748   8.8318   H         3 RES3   0.0000
    25 C7       3.0054  -2.8718   7.2801   C.3       3 RES3   0.0000
    26 H9       3.1076  -2.8873   6.2952   H         3 RES3   0.0000
    27 H10      2.7265  -1.9586   7.5374   H         3 RES3   0.0000
    28 C8       1.8911  -3.8554   7.6740   C.3       3 RES3   0.0000
    29 H11      1.5989  -3.6065   8.5866   H         3 RES3   0.0000
    30 H12      1.1254  -3.6786   7.0724   H         3 RES3   0.0000
    31 C9       2.0891  -5.2115   7.6767   C.3       3 RES3   0.0000
    32 H13      2.8285  -5.4192   8.3011   H         3 RES3   0.0000
    33 H14      2.3782  -5.4878   6.7709   H         3 RES3   0.0000
    34 C10      0.8586  -6.0646   8.0774   C.3       3 RES3   0.0000
    35 H15      1.0936  -7.0156   8.0385   H         3 RES3   0.0000
    36 H16      0.1199  -5.8861   7.4583   H         3 RES3   0.0000
    37 H17      0.5830  -5.8329   8.9885   H         3 RES3   0.0000
    38 C11      7.4053  -0.7553  10.9824   C.2       3 RES3   0.0000
    39 H18      6.7336  -1.3818  11.2276   H         3 RES3   0.0000
    40 C12      7.6133  -0.1099  13.2497   C.3       3 RES3   0.0000
    41 H19      8.4686  -0.0498  13.7656   H         3 RES3   0.0000
    42 C13      6.7373   1.0643  13.7039   C.ar      3 RES3   0.0000
    43 C14      6.8462   1.5209  15.0050   C.ar      3 RES3   0.0000
    44 H20      7.4702   1.1037  15.5866   H         3 RES3   0.0000
    45 C15      6.1038   2.5268  15.4700   C.ar      3 RES3   0.0000
    46 H21      6.1725   2.7825  16.3825   H         3 RES3   0.0000
    47 C16      5.2479   3.1877  14.6432   C.ar      3 RES3   0.0000
    48 H22      4.7953   3.9635  14.9488   H         3 RES3   0.0000
    49 C17      5.0410   2.7293  13.3703   C.ar      3 RES3   0.0000
    50 H23      4.3957   3.1482  12.8115   H         3 RES3   0.0000
    51 C18      5.8085   1.6101  12.8812   C.ar      3 RES3   0.0000
    52 H24      5.6675   1.2651  12.0075   H         3 RES3   0.0000
    53 C19      6.9375  -1.4350  13.6570   C.3       3 RES3   0.0000
    54 H25      7.4994  -2.1869  13.3770   H         3 RES3   0.0000
    55 H26      6.0616  -1.5020  13.2229   H         3 RES3   0.0000
    56 H27      6.8225  -1.4574  14.6298   H         3 RES3   0.0000
    57 C20      7.8303   3.5756  11.5198   C.2       3 RES3   0.0000
    58 C21      6.9783   2.9130   9.6465   C.2       3 RES3   0.0000
    59 H28      6.7956   2.3895   8.8760   H         3 RES3   0.0000
    60 C22      6.3519   4.0614   9.9761   C.2       3 RES3   0.0000
    61 H29      5.6719   4.4957   9.4736   H         3 RES3   0.0000
    62 C23      6.4767   5.6698  11.9311   C.3       3 RES3   0.0000
    63 H30      5.5817   5.4999  12.3184   H         3 RES3   0.0000
    64 H31      7.1096   5.7642  12.6855   H         3 RES3   0.0000
    65 C24      6.4267   6.9023  11.2477   C.3       3 RES3   0.0000
    66 H32      5.8363   6.7959  10.4612   H         3 RES3   0.0000
    67 H33      6.0084   7.5717  11.8454   H         3 RES3   0.0000
    68 C25      7.6282   7.3984  10.8190   C.3       3 RES3   0.0000
    69 H34      7.9716   6.8268  10.0887   H         3 RES3   0.0000
    70 H35      8.2771   7.3606  11.5653   H         3 RES3   0.0000
    71 C26      7.5184   8.9913  10.2682   C.3       3 RES3   0.0000
    72 H36      7.1210   9.5544  10.9784   H         3 RES3   0.0000
    73 H37      8.4296   9.3329  10.0833   H         3 RES3   0.0000
    74 C27      6.6730   9.1132   9.0006   C.3       3 RES3   0.0000
    75 H38      6.9450   8.4043   8.3655   H         3 RES3   0.0000
    76 H39      5.7229   8.9587   9.2338   H         3 RES3   0.0000
    77 C28      6.7923  10.4298   8.3279   C.3       3 RES3   0.0000
    78 H40      7.7507  10.6186   8.1671   H         3 RES3   0.0000
    79 H41      6.4479  11.1302   8.9363   H         3 RES3   0.0000
    80 C29      6.0423  10.5277   6.9933   C.3       3 RES3   0.0000
    81 H42      6.1650  11.4237   6.6155   H         3 RES3   0.0000
    82 H43      5.0876  10.3629   7.1421   H         3 RES3   0.0000
    83 H44      6.3957   9.8582   6.3702   H         3 RES3   0.0000
    84 C30      8.7042   3.5069  12.6494   C.2       3 RES3   0.0000
    85 H45      8.7126   4.1558  13.3421   H         3 RES3   0.0000
    86 C31     10.4845   2.3191  13.6959   C.3       3 RES3   0.0000
    87 H46     10.5468   1.3441  13.9076   H         3 RES3   0.0000
    88 C32     11.8508   2.7619  13.1920   C.ar      3 RES3   0.0000
    89 C33     12.0054   3.8932  12.3894   C.ar      3 RES3   0.0000
    90 H47     11.2410   4.3875  12.1187   H         3 RES3   0.0000
    91 C34     13.2538   4.2948  11.9887   C.ar      3 RES3   0.0000
    92 H48     13.3479   5.0776  11.4581   H         3 RES3   0.0000
    93 C35     14.3721   3.5773  12.3465   C.ar      3 RES3   0.0000
    94 H49     15.2319   3.8485  12.0477   H         3 RES3   0.0000
    95 C36     14.2334   2.4581  13.1425   C.ar      3 RES3   0.0000
    96 H50     15.0014   1.9637  13.4024   H         3 RES3   0.0000
    97 C37     12.9731   2.0547  13.5619   C.ar      3 RES3   0.0000
    98 H51     12.8823   1.2840  14.1099   H         3 RES3   0.0000
    99 C38     10.1870   3.0520  15.0077   C.3       3 RES3   0.0000
   100 H52      9.3150   2.7637  15.3534   H         3 RES3   0.0000
   101 H53     10.1695   4.0185  14.8456   H         3 RES3   0.0000
   102 H54     10.8826   2.8443  15.6643   H         3 RES3   0.0000
   103 C39     11.8708   1.7251  10.0726   C.2       3 RES3   0.0000
   104 C40     10.8060   3.4520   9.2766   C.2       3 RES3   0.0000
   105 H55     10.1217   4.0803   9.0716   H         3 RES3   0.0000
   106 C41     12.1228   3.5361   8.8653   C.2       3 RES3   0.0000
   107 H56     12.5030   4.2262   8.3333   H         3 RES3   0.0000
   108 C42     11.9814   0.4944  10.7868   C.2       3 RES3   0.0000
   109 H57     12.7942   0.0069  10.8592   H         3 RES3   0.0000
   110 C43     10.8571  -1.2531  11.9338   C.3       3 RES3   0.0000
   111 H58     10.1546  -1.2479  12.6453   H         3 RES3   0.0000
   112 C44     10.4291  -2.2830  10.8993   C.ar      3 RES3   0.0000
   113 C45     10.9061  -2.2556   9.5848   C.ar      3 RES3   0.0000
   114 H59     11.4912  -1.5586   9.3142   H         3 RES3   0.0000
   115 C46     10.5437  -3.2168   8.6871   C.ar      3 RES3   0.0000
   116 H60     10.8733  -3.1877   7.7960   H         3 RES3   0.0000
   117 C47      9.6925  -4.2365   9.0810   C.ar      3 RES3   0.0000
   118 H61      9.4425  -4.9042   8.4552   H         3 RES3   0.0000
   119 C48      9.2154  -4.2931  10.3299   C.ar      3 RES3   0.0000
   120 H62      8.6370  -5.0038  10.5831   H         3 RES3   0.0000
   121 C49      9.5638  -3.3130  11.2678   C.ar      3 RES3   0.0000
   122 H63      9.2135  -3.3507  12.1495   H         3 RES3   0.0000
   123 C50     12.1615  -1.6496  12.6038   C.3       3 RES3   0.0000
   124 H64     12.4051  -0.9733  13.2698   H         3 RES3   0.0000
   125 H65     12.8693  -1.7148  11.9298   H         3 RES3   0.0000
   126 H66     12.0518  -2.5182  13.0446   H         3 RES3   0.0000
   127 C51     14.1688   2.0530   9.1038   C.3       3 RES3   0.0000
   128 H67     14.4329   1.3183   9.7148   H         3 RES3   0.0000
   129 H68     14.7708   2.8220   9.2673   H         3 RES3   0.0000
   130 C52     14.3007   1.5913   7.6513   C.3       3 RES3   0.0000
   131 H69     15.2385   1.3149   7.4931   H         3 RES3   0.0000
   132 H70     14.1123   2.3603   7.0590   H         3 RES3   0.0000
   133 C53     13.3746   0.4274   7.2506   C.3       3 RES3   0.0000
   134 H71     13.5974  -0.3639   7.8027   H         3 RES3   0.0000
   135 H72     12.4391   0.6798   7.4503   H         3 RES3   0.0000
   136 C54     13.4802   0.0463   5.7806   C.3       3 RES3   0.0000
   137 H73     13.2881   0.8445   5.2272   H         3 RES3   0.0000
   138 H74     14.4087  -0.2386   5.5877   H         3 RES3   0.0000
   139 C55     12.5464  -1.0471   5.3934   C.3       3 RES3   0.0000
   140 H75     11.6209  -0.7536   5.5823   H         3 RES3   0.0000
   141 H76     12.7322  -1.8367   5.9602   H         3 RES3   0.0000
   142 C56     12.6383  -1.4659   3.9208   C.3       3 RES3   0.0000
   143 H77     13.5803  -1.6942   3.7198   H         3 RES3   0.0000
   144 H78     12.1011  -2.2899   3.7975   H         3 RES3   0.0000
   145 C57     12.1871  -0.4703   2.9426   C.3       3 RES3   0.0000
   146 H79     12.3122  -0.8222   2.0368   H         3 RES3   0.0000
   147 H80     12.7080   0.3519   3.0498   H         3 RES3   0.0000
   148 H81     11.2377  -0.2764   3.0886   H         3 RES3   0.0000
   149 Fe1      9.2983   1.2974  11.0110   Fe        3 RES3   2.0000
   150 N1       7.5528  -1.2479   8.4807   N.pl3     3 RES3   0.0000
   151 N2       8.8168   0.3244   9.4254   N.2       3 RES3   0.0000
   152 N3       7.9662   0.0069  11.8253   N.2       3 RES3   0.0000
   153 N4       6.8678   4.4837  11.1539   N.pl3     3 RES3   0.0000
   154 N5       7.9318   2.6178  10.6086   N.2       3 RES3   0.0000
   155 N6       9.4844   2.4736  12.6373   N.2       3 RES3   0.0000
   156 N7      12.7800   2.4427   9.3664   N.pl3     3 RES3   0.0000
   157 N8      10.6428   2.3036  10.0364   N.2       3 RES3   0.0000
   158 N9      10.8707   0.1013  11.3295   N.2       3 RES3   0.0000
@<TRIPOS>BOND
     1     1     2    1
     2     3     1    1
     3     4     1    1
     4     5     1    1
     5     6     7    1
     6     8     6    1
     7     9     6    1
     8    10     6    1
     9    11    38    1
    10    12    13    1
    11    14    12    2
    12    15    14    1
    13    16    17    1
    14    18    16    1
    15    19    16    1
    16    20    19    1
    17    21    19    1
    18    22    19    1
    19    23    22    1
    20    24    22    1
    21    25    22    1
    22    26    25    1
    23    27    25    1
    24    28    25    1
    25    29    28    1
    26    30    28    1
    27    31    28    1
    28    32    31    1
    29    33    31    1
    30    34    31    1
    31    35    34    1
    32    36    34    1
    33    37    34    1
    34    38    39    1
    35    40    41    1
    36    42    40    1
    37    43    42   ar
    38    44    43    1
    39    45    43   ar
    40    46    45    1
    41    47    45   ar
    42    48    47    1
    43    49    47   ar
    44    50    49    1
    45    51    42   ar
    46    52    51    1
    47    53    40    1
    48    54    53    1
    49    55    53    1
    50    56    53    1
    51    57    84    1
    52    58    59    1
    53    60    58    2
    54    61    60    1
    55    62    63    1
    56    64    62    1
    57    65    62    1
    58    66    65    1
    59    67    65    1
    60    68    65    1
    61    69    68    1
    62    70    68    1
    63    71    68    1
    64    72    71    1
    65    73    71    1
    66    74    71    1
    67    75    74    1
    68    76    74    1
    69    77    74    1
    70    78    77    1
    71    79    77    1
    72    80    77    1
    73    81    80    1
    74    82    80    1
    75    83    80    1
    76    84    85    1
    77    86    87    1
    78    88    86    1
    79    89    88   ar
    80    90    89    1
    81    91    89   ar
    82    92    91    1
    83    93    91   ar
    84    94    93    1
    85    95    93   ar
    86    96    95    1
    87    97    88   ar
    88    98    97    1
    89    99    86    1
    90   100    99    1
    91   101    99    1
    92   102    99    1
    93   103   108    1
    94   104   105    1
    95   106   104    2
    96   107   106    1
    97   108   109    1
    98   110   111    1
    99   112   110    1
   100   113   112   ar
   101   114   113    1
   102   115   113   ar
   103   116   115    1
   104   117   115   ar
   105   118   117    1
   106   119   117   ar
   107   120   119    1
   108   121   112   ar
   109   122   121    1
   110   123   110    1
   111   124   123    1
   112   125   123    1
   113   126   123    1
   114   127   128    1
   115   129   127    1
   116   130   127    1
   117   131   130    1
   118   132   130    1
   119   133   130    1
   120   134   133    1
   121   135   133    1
   122   136   133    1
   123   137   136    1
   124   138   136    1
   125   139   136    1
   126   140   139    1
   127   141   139    1
   128   142   139    1
   129   143   142    1
   130   144   142    1
   131   145   142    1
   132   146   145    1
   133   147   145    1
   134   148   145    1
   135   149   151    1
   136   150    11    1
   137   151    11    2
   138   152    38    2
   139   153    57    1
   140   154    57    2
   141   155    84    2
   142   156   103    1
   143   157   103    2
   144   158   108    2
   145    12   151    1
   146    14   150    1
   147    16   150    1
   148    40   152    1
   149    49    51   ar
   150    58   154    1
   151    60   153    1
   152    62   153    1
   153    86   155    1
   154    95    97   ar
   155   104   157    1
   156   106   156    1
   157   110   158    1
   158   119   121   ar
   159   127   156    1
   160   149   152    1
   161   149   154    1
   162   149   155    1
   163   149   157    1
   164   149   158    1
@<TRIPOS>SUBSTRUCTURE
     1 RES1        1 GROUP             0 ****  ****    0  
     2 RES2        6 GROUP             0 ****  ****    0  
     3 RES3       11 GROUP             0 ****  ****    0  
@<TRIPOS>CRYSIN
   12.7086   17.1656   13.4614   90.0000   95.4860   90.0000     4     1
