@<TRIPOS>MOLECULE
DUDTUS
    97   103     3     0     0
SMALL
USER_CHARGES
****
Generated from the CSD

@<TRIPOS>ATOM
     1 Fe1     -0.4637   3.9335   3.3643   Fe        1 RES1   2.0000
     2 P1       1.6672   4.7671   3.3697   P.3       1 RES1   0.0000
     3 P2      -0.3365   2.1920   4.8318   P.3       1 RES1   0.0000
     4 O1      -1.2813   5.8827   5.3731   O.2       1 RES1   0.0000
     5 N1      -2.3601   3.3433   2.9964   N.2       1 RES1   0.0000
     6 N2      -0.9249   5.3831   2.0351   N.2       1 RES1   0.0000
     7 N3       0.0162   2.7984   1.8416   N.1       1 RES1   0.0000
     8 C1      -3.0984   4.4608   2.3496   C.3       1 RES1   0.0000
     9 H1      -3.3323   5.1543   3.0164   H         1 RES1   0.0000
    10 H2      -3.9308   4.1291   1.9296   H         1 RES1   0.0000
    11 C2      -2.1672   5.0178   1.3119   C.3       1 RES1   0.0000
    12 H3      -1.9787   4.3413   0.6148   H         1 RES1   0.0000
    13 H4      -2.5661   5.8156   0.8818   H         1 RES1   0.0000
    14 C3      -0.5428   6.6008   1.9195   C.2       1 RES1   0.0000
    15 H5      -1.0364   7.1371   1.3105   H         1 RES1   0.0000
    16 C4       0.5543   7.2597   2.6051   C.ar      1 RES1   0.0000
    17 C5       0.5473   8.6558   2.5661   C.ar      1 RES1   0.0000
    18 H6      -0.1690   9.1072   2.1346   H         1 RES1   0.0000
    19 C6       1.5645   9.3959   3.1449   C.ar      1 RES1   0.0000
    20 H7       1.5204  10.3435   3.1550   H         1 RES1   0.0000
    21 C7       2.6453   8.7427   3.7092   C.ar      1 RES1   0.0000
    22 H8       3.3716   9.2419   4.0642   H         1 RES1   0.0000
    23 C8       2.6672   7.3547   3.7539   C.ar      1 RES1   0.0000
    24 H9       3.4155   6.9128   4.1378   H         1 RES1   0.0000
    25 C9       1.6116   6.5968   3.2473   C.ar      1 RES1   0.0000
    26 C10     -2.9072   2.1930   2.9212   C.2       1 RES1   0.0000
    27 H10     -3.7805   2.1673   2.5474   H         1 RES1   0.0000
    28 C11     -2.3466   0.9060   3.3455   C.ar      1 RES1   0.0000
    29 C12     -3.0740  -0.2113   2.9284   C.ar      1 RES1   0.0000
    30 H11     -3.8607  -0.0961   2.4074   H         1 RES1   0.0000
    31 C13     -2.6536  -1.4883   3.2676   C.ar      1 RES1   0.0000
    32 H12     -3.1466  -2.2459   2.9746   H         1 RES1   0.0000
    33 C14     -1.5201  -1.6554   4.0339   C.ar      1 RES1   0.0000
    34 H13     -1.2340  -2.5312   4.2634   H         1 RES1   0.0000
    35 C15     -0.7930  -0.5575   4.4741   C.ar      1 RES1   0.0000
    36 H14     -0.0189  -0.6860   5.0081   H         1 RES1   0.0000
    37 C16     -1.1952   0.7406   4.1321   C.ar      1 RES1   0.0000
    38 C17     -0.9531   5.0782   4.6300   C.1       1 RES1   0.0000
    39 C18      0.2692   2.3733   0.8111   C.1       1 RES1   0.0000
    40 C19      0.6476   1.9326  -0.5152   C.3       1 RES1   0.0000
    41 H15      0.7660   2.7115  -1.0969   H         1 RES1   0.0000
    42 H16     -0.0556   1.3553  -0.8804   H         1 RES1   0.0000
    43 H17      1.4877   1.4307  -0.4647   H         1 RES1   0.0000
    44 C20      2.7337   4.5615   4.8306   C.ar      1 RES1   0.0000
    45 C21      4.0398   4.0747   4.7787   C.ar      1 RES1   0.0000
    46 H18      4.3925   3.7582   3.9545   H         1 RES1   0.0000
    47 C22      4.8293   4.0495   5.9203   C.ar      1 RES1   0.0000
    48 H19      5.7152   3.7097   5.8726   H         1 RES1   0.0000
    49 C23      4.3374   4.5119   7.1254   C.ar      1 RES1   0.0000
    50 H20      4.8834   4.4998   7.9033   H         1 RES1   0.0000
    51 C24      3.0425   4.9966   7.1903   C.ar      1 RES1   0.0000
    52 H21      2.6932   5.3030   8.0202   H         1 RES1   0.0000
    53 C25      2.2573   5.0367   6.0603   C.ar      1 RES1   0.0000
    54 H22      1.3785   5.3943   6.1151   H         1 RES1   0.0000
    55 C26      2.7001   4.2951   1.9470   C.ar      1 RES1   0.0000
    56 C27      3.1449   2.9752   1.8127   C.ar      1 RES1   0.0000
    57 H23      2.9142   2.3338   2.4752   H         1 RES1   0.0000
    58 C28      3.9116   2.5903   0.7361   C.ar      1 RES1   0.0000
    59 H24      4.2061   1.6896   0.6610   H         1 RES1   0.0000
    60 C29      4.2571   3.5144  -0.2396   C.ar      1 RES1   0.0000
    61 H25      4.7970   3.2565  -0.9771   H         1 RES1   0.0000
    62 C30      3.8060   4.8113  -0.1227   C.ar      1 RES1   0.0000
    63 H26      4.0277   5.4422  -0.7981   H         1 RES1   0.0000
    64 C31      3.0386   5.2158   0.9540   C.ar      1 RES1   0.0000
    65 H27      2.7431   6.1157   1.0189   H         1 RES1   0.0000
    66 C32      1.2929   1.5244   5.3054   C.ar      1 RES1   0.0000
    67 C33      2.0487   0.8728   4.3168   C.ar      1 RES1   0.0000
    68 H28      1.6753   0.7292   3.4552   H         1 RES1   0.0000
    69 C34      3.3290   0.4380   4.5881   C.ar      1 RES1   0.0000
    70 H29      3.8326  -0.0027   3.9141   H         1 RES1   0.0000
    71 C35      3.8829   0.6415   5.8366   C.ar      1 RES1   0.0000
    72 H30      4.7759   0.3702   6.0126   H         1 RES1   0.0000
    73 C36      3.1331   1.2369   6.8295   C.ar      1 RES1   0.0000
    74 H31      3.5065   1.3450   7.6969   H         1 RES1   0.0000
    75 C37      1.8464   1.6803   6.5798   C.ar      1 RES1   0.0000
    76 H32      1.3409   2.0906   7.2726   H         1 RES1   0.0000
    77 C38     -1.2223   2.4149   6.4225   C.ar      1 RES1   0.0000
    78 C39     -0.8702   3.4528   7.2914   C.ar      1 RES1   0.0000
    79 H33     -0.1867   4.0608   7.0345   H         1 RES1   0.0000
    80 C40     -1.4945   3.6141   8.5153   C.ar      1 RES1   0.0000
    81 H34     -1.2376   4.3234   9.0940   H         1 RES1   0.0000
    82 C41     -2.4939   2.7407   8.8891   C.ar      1 RES1   0.0000
    83 H35     -2.9274   2.8462   9.7276   H         1 RES1   0.0000
    84 C42     -2.8652   1.7100   8.0448   C.ar      1 RES1   0.0000
    85 H36     -3.5585   1.1158   8.3060   H         1 RES1   0.0000
    86 C43     -2.2377   1.5344   6.8252   C.ar      1 RES1   0.0000
    87 H37     -2.4960   0.8175   6.2580   H         1 RES1   0.0000
    88 F1      -2.8374   8.7080   1.1994   F         2 RES2   0.0000
    89 F2      -4.4859   7.3502   1.9614   F         2 RES2   0.0000
    90 F3      -4.2713   9.4201   2.8317   F         2 RES2   0.0000
    91 F4      -2.7291   7.7995   3.2908   F         2 RES2   0.0000
    92 B1      -3.5980   8.3250   2.3164   B         2 RES2  -1.0000
    93 F5       2.3033  -2.1914   2.1894   F         3 RES3   0.0000
    94 F6       2.7346  -1.9277   0.0664   F         3 RES3   0.0000
    95 F7       4.0987  -1.0606   1.6381   F         3 RES3   0.0000
    96 F8       2.0306  -0.2020   1.3145   F         3 RES3   0.0000
    97 B2       2.8137  -1.3150   1.2398   B         3 RES3  -1.0000
@<TRIPOS>BOND
     1     1     2    1
     2     2    25    1
     3     3     1    1
     4     4    38    3
     5     5     1    1
     6     6     1    1
     7     7     1    1
     8     8     5    1
     9     9     8    1
    10    10     8    1
    11    11     6    1
    12    12    11    1
    13    13    11    1
    14    14     6    2
    15    15    14    1
    16    16    14    1
    17    17    16   ar
    18    18    17    1
    19    19    17   ar
    20    20    19    1
    21    21    19   ar
    22    22    21    1
    23    23    21   ar
    24    24    23    1
    25    25    16   ar
    26    26     5    2
    27    27    26    1
    28    28    26    1
    29    29    28   ar
    30    30    29    1
    31    31    29   ar
    32    32    31    1
    33    33    31   ar
    34    34    33    1
    35    35    33   ar
    36    36    35    1
    37    37     3    1
    38    38     1    1
    39    39     7    3
    40    40    39    1
    41    41    40    1
    42    42    40    1
    43    43    40    1
    44    44     2    1
    45    45    44   ar
    46    46    45    1
    47    47    45   ar
    48    48    47    1
    49    49    47   ar
    50    50    49    1
    51    51    49   ar
    52    52    51    1
    53    53    44   ar
    54    54    53    1
    55    55     2    1
    56    56    55   ar
    57    57    56    1
    58    58    56   ar
    59    59    58    1
    60    60    58   ar
    61    61    60    1
    62    62    60   ar
    63    63    62    1
    64    64    55   ar
    65    65    64    1
    66    66     3    1
    67    67    66   ar
    68    68    67    1
    69    69    67   ar
    70    70    69    1
    71    71    69   ar
    72    72    71    1
    73    73    71   ar
    74    74    73    1
    75    75    66   ar
    76    76    75    1
    77    77     3    1
    78    78    77   ar
    79    79    78    1
    80    80    78   ar
    81    81    80    1
    82    82    80   ar
    83    83    82    1
    84    84    82   ar
    85    85    84    1
    86    86    77   ar
    87    87    86    1
    88     8    11    1
    89    23    25   ar
    90    28    37   ar
    91    35    37   ar
    92    51    53   ar
    93    62    64   ar
    94    73    75   ar
    95    84    86   ar
    96    88    92    1
    97    89    92    1
    98    90    92    1
    99    91    92    1
   100    93    97    1
   101    94    97    1
   102    95    97    1
   103    96    97    1
@<TRIPOS>SUBSTRUCTURE
     1 RES1        1 GROUP             0 ****  ****    0  
     2 RES2       88 GROUP             0 ****  ****    0  
     3 RES3       93 GROUP             0 ****  ****    0  
@<TRIPOS>CRYSIN
    9.9487   14.2587   14.4888   92.1580   94.0940  100.3860     2     1
