@<TRIPOS>MOLECULE
DUFLUM
    75    79     2     0     0
SMALL
NO_CHARGES
****
Generated from the CSD

@<TRIPOS>ATOM
     1 Fe1      9.1087   8.9839   5.3963   Fe        1 RES1   0.0000
     2 O1       7.5367   9.8634   6.3410   O.3       1 RES1   0.0000
     3 O2      10.5561   8.4404   6.6980   O.3       1 RES1   0.0000
     4 O3       5.3316  13.0536   4.8981   O.2       1 RES1   0.0000
     5 O4      14.5548   7.4570   6.0009   O.2       1 RES1   0.0000
     6 O5       8.1111   7.0973   5.8953   O.3       1 RES1   0.0000
     7 H1       7.3945   7.0183   6.3249   H         1 RES1   0.0000
     8 O6       9.9406  10.9958   5.4070   O.3       1 RES1   0.0000
     9 H2       9.6131  11.5893   5.9030   H         1 RES1   0.0000
    10 N1       8.0325   9.3959   3.6428   N.2       1 RES1   0.0000
    11 N2      10.3538   8.1625   3.9166   N.2       1 RES1   0.0000
    12 C1       6.6380  10.6620   5.9523   C.2       1 RES1   0.0000
    13 C2       6.4371  10.9776   4.5739   C.2       1 RES1   0.0000
    14 C3       7.1108  10.3130   3.5304   C.2       1 RES1   0.0000
    15 H3       6.8675  10.5603   2.6466   H         1 RES1   0.0000
    16 C4       8.5334   8.7610   2.4850   C.ar      1 RES1   0.0000
    17 C5       7.8559   8.6603   1.2782   C.ar      1 RES1   0.0000
    18 H4       7.0005   9.0643   1.1898   H         1 RES1   0.0000
    19 C6       8.3983   7.9847   0.2034   C.ar      1 RES1   0.0000
    20 H5       7.9296   7.9462  -0.6213   H         1 RES1   0.0000
    21 C7       9.6216   7.3656   0.3329   C.ar      1 RES1   0.0000
    22 H6      10.0040   6.9099  -0.4070   H         1 RES1   0.0000
    23 C8      10.2958   7.4089   1.5445   C.ar      1 RES1   0.0000
    24 H7      11.1270   6.9570   1.6364   H         1 RES1   0.0000
    25 C9       9.7729   8.1036   2.6231   C.ar      1 RES1   0.0000
    26 C10     11.5766   7.7389   4.1018   C.2       1 RES1   0.0000
    27 H8      12.0427   7.4618   3.3223   H         1 RES1   0.0000
    28 C11     12.2908   7.6432   5.3109   C.2       1 RES1   0.0000
    29 C12     11.7316   7.9838   6.5787   C.2       1 RES1   0.0000
    30 C13      5.7563  11.2052   7.0347   C.3       1 RES1   0.0000
    31 H9       6.2326  11.9102   7.5213   H         1 RES1   0.0000
    32 H10      5.5184  10.4842   7.6548   H         1 RES1   0.0000
    33 H11      4.9410  11.5756   6.6364   H         1 RES1   0.0000
    34 C14      5.5331  12.0705   4.1886   C.2       1 RES1   0.0000
    35 C15      4.8285  12.0128   2.8681   C.ar      1 RES1   0.0000
    36 C16      4.2459  10.8482   2.3866   C.ar      1 RES1   0.0000
    37 H12      4.3647  10.0342   2.8625   H         1 RES1   0.0000
    38 C17      3.4989  10.8538   1.2295   C.ar      1 RES1   0.0000
    39 H13      3.0727  10.0592   0.9311   H         1 RES1   0.0000
    40 C18      3.3710  12.0308   0.5018   C.ar      1 RES1   0.0000
    41 H14      2.8892  12.0332  -0.3164   H         1 RES1   0.0000
    42 C19      3.9409  13.1847   0.9654   C.ar      1 RES1   0.0000
    43 H15      3.8470  13.9896   0.4697   H         1 RES1   0.0000
    44 C20      4.6526  13.1903   2.1486   C.ar      1 RES1   0.0000
    45 H16      5.0230  14.0019   2.4736   H         1 RES1   0.0000
    46 C21     12.4652   7.7553   7.8575   C.3       1 RES1   0.0000
    47 H17     11.8297   7.7554   8.6040   H         1 RES1   0.0000
    48 H18     13.1236   8.4703   7.9877   H         1 RES1   0.0000
    49 H19     12.9257   6.8909   7.8196   H         1 RES1   0.0000
    50 C22     13.6634   7.1727   5.1939   C.2       1 RES1   0.0000
    51 C23     14.0264   6.2718   4.0479   C.ar      1 RES1   0.0000
    52 C24     13.2855   5.1383   3.7519   C.ar      1 RES1   0.0000
    53 H20     12.4754   4.9685   4.2188   H         1 RES1   0.0000
    54 C25     13.7142   4.2623   2.7892   C.ar      1 RES1   0.0000
    55 H21     13.2159   3.4731   2.6153   H         1 RES1   0.0000
    56 C26     14.8646   4.5181   2.0713   C.ar      1 RES1   0.0000
    57 H22     15.1476   3.9156   1.3925   H         1 RES1   0.0000
    58 C27     15.5968   5.6474   2.3424   C.ar      1 RES1   0.0000
    59 H23     16.3859   5.8319   1.8474   H         1 RES1   0.0000
    60 C28     15.1847   6.5140   3.3360   C.ar      1 RES1   0.0000
    61 H24     15.7041   7.2856   3.5316   H         1 RES1   0.0000
    62 C29     10.9865  11.5194   4.7000   C.3       1 RES1   0.0000
    63 H25     10.7807  11.4906   3.7425   H         1 RES1   0.0000
    64 H26     11.7950  10.9954   4.8763   H         1 RES1   0.0000
    65 H27     11.1331  12.4484   4.9736   H         1 RES1   0.0000
    66 C30      8.5941   5.8001   5.5296   C.3       1 RES1   0.0000
    67 H28      9.5693   5.7773   5.6196   H         1 RES1   0.0000
    68 H29      8.3459   5.6094   4.6011   H         1 RES1   0.0000
    69 H30      8.1951   5.1253   6.1189   H         1 RES1   0.0000
    70 O7       5.4534   2.9056   7.4216   O.3       2 RES2   0.0000
    71 H31      5.5905   2.7882   8.2415   H         2 RES2   0.0000
    72 C31      5.1840   4.2350   7.1861   C.3       2 RES2   0.0000
    73 H32      4.3232   4.4698   7.5922   H         2 RES2   0.0000
    74 H33      5.1428   4.3937   6.2194   H         2 RES2   0.0000
    75 H34      5.8926   4.7866   7.5790   H         2 RES2   0.0000
@<TRIPOS>BOND
     1     1     2    1
     2     2    12    1
     3     3     1    1
     4     4    34    2
     5     5    50    2
     6     6     1    1
     7     7     6    1
     8     8     1    1
     9     9     8    1
    10    10     1    1
    11    11     1    1
    12    12    13    2
    13    13    14    1
    14    14    10    2
    15    15    14    1
    16    16    10    1
    17    17    16   ar
    18    18    17    1
    19    19    17   ar
    20    20    19    1
    21    21    19   ar
    22    22    21    1
    23    23    21   ar
    24    24    23    1
    25    25    11    1
    26    26    11    2
    27    27    26    1
    28    28    26    1
    29    29     3    1
    30    30    12    1
    31    31    30    1
    32    32    30    1
    33    33    30    1
    34    34    13    1
    35    35    34    1
    36    36    35   ar
    37    37    36    1
    38    38    36   ar
    39    39    38    1
    40    40    38   ar
    41    41    40    1
    42    42    40   ar
    43    43    42    1
    44    44    35   ar
    45    45    44    1
    46    46    29    1
    47    47    46    1
    48    48    46    1
    49    49    46    1
    50    50    28    1
    51    51    50    1
    52    52    51   ar
    53    53    52    1
    54    54    52   ar
    55    55    54    1
    56    56    54   ar
    57    57    56    1
    58    58    56   ar
    59    59    58    1
    60    60    51   ar
    61    61    60    1
    62    62     8    1
    63    63    62    1
    64    64    62    1
    65    65    62    1
    66    66     6    1
    67    67    66    1
    68    68    66    1
    69    69    66    1
    70    16    25   ar
    71    23    25   ar
    72    28    29    2
    73    42    44   ar
    74    58    60   ar
    75    70    71    1
    76    72    70    1
    77    73    72    1
    78    74    72    1
    79    75    72    1
@<TRIPOS>SUBSTRUCTURE
     1 RES1        1 GROUP             0 ****  ****    0  
     2 RES2       70 GROUP             0 ****  ****    0  
@<TRIPOS>CRYSIN
    9.1670   10.4630   16.7120   80.8370   89.0890   67.9050     2     1
