@<TRIPOS>MOLECULE
DUHVUY
    83    93     1     0     0
SMALL
NO_CHARGES
****
Generated from the CSD

@<TRIPOS>ATOM
     1 Fe1     11.4344   3.4734   3.5727   Fe        1 RES1   0.0000
     2 N1      10.1350   4.8640   3.4892   N.2       1 RES1   0.0000
     3 O1      10.4720   6.1866   3.6172   O.3       1 RES1   0.0000
     4 N2      12.0781   4.2591   5.1846   N.2       1 RES1   0.0000
     5 O2      12.0862   5.6188   5.3724   O.3       1 RES1   0.0000
     6 N3      12.6434   4.6805   2.6748   N.2       1 RES1   0.0000
     7 O3      12.8617   5.9730   3.0874   O.3       1 RES1   0.0000
     8 N4       9.8139   2.4829   3.7222   N.2       1 RES1   0.0000
     9 O4       9.7707   1.1199   3.5843   O.3       1 RES1   0.0000
    10 N5      12.3186   1.9828   4.3908   N.2       1 RES1   0.0000
    11 O5      12.1484   0.7029   3.9272   O.3       1 RES1   0.0000
    12 N6      11.7066   2.5581   1.8792   N.2       1 RES1   0.0000
    13 O6      11.3034   1.2520   1.6845   O.3       1 RES1   0.0000
    14 B1      11.8632   6.3675   4.1104   B         1 RES1   0.0000
    15 F1      12.0283   7.6950   4.3629   F         1 RES1   0.0000
    16 B2      11.0053   0.5909   2.9719   B         1 RES1   0.0000
    17 F2      10.8165  -0.7325   2.7056   F         1 RES1   0.0000
    18 O7      13.1215   2.5656  -0.0461   O.3       1 RES1   0.0000
    19 O8      13.7671   5.0973   0.6328   O.3       1 RES1   0.0000
    20 C1       8.8602   4.5617   3.6265   C.2       1 RES1   0.0000
    21 C2       7.7667   5.5278   3.8359   C.ar      1 RES1   0.0000
    22 C3       7.6856   6.7159   3.0969   C.ar      1 RES1   0.0000
    23 H1       8.3508   6.9318   2.4847   H         1 RES1   0.0000
    24 C4       6.6061   7.5687   3.2847   C.ar      1 RES1   0.0000
    25 H2       6.5486   8.3530   2.7874   H         1 RES1   0.0000
    26 C5       5.6109   7.2658   4.2053   C.ar      1 RES1   0.0000
    27 H3       4.8868   7.8392   4.3172   H         1 RES1   0.0000
    28 C6       5.7025   6.1019   4.9589   C.ar      1 RES1   0.0000
    29 H4       5.0490   5.9056   5.5909   H         1 RES1   0.0000
    30 C7       6.7675   5.2328   4.7714   C.ar      1 RES1   0.0000
    31 H5       6.8184   4.4493   5.2705   H         1 RES1   0.0000
    32 C8       8.6657   3.1176   3.6222   C.2       1 RES1   0.0000
    33 C9       7.3733   2.4430   3.4029   C.ar      1 RES1   0.0000
    34 C10      6.5163   2.9245   2.4079   C.ar      1 RES1   0.0000
    35 H6       6.7477   3.6868   1.9291   H         1 RES1   0.0000
    36 C11      5.3243   2.2739   2.1307   C.ar      1 RES1   0.0000
    37 H7       4.7682   2.5924   1.4573   H         1 RES1   0.0000
    38 C12      4.9621   1.1551   2.8517   C.ar      1 RES1   0.0000
    39 H8       4.1558   0.7274   2.6747   H         1 RES1   0.0000
    40 C13      5.8045   0.6696   3.8447   C.ar      1 RES1   0.0000
    41 H9       5.5590  -0.0847   4.3301   H         1 RES1   0.0000
    42 C14      7.0120   1.3040   4.1173   C.ar      1 RES1   0.0000
    43 H10      7.5774   0.9669   4.7745   H         1 RES1   0.0000
    44 C15     12.8322   3.5397   5.9848   C.2       1 RES1   0.0000
    45 C16     13.7075   4.0958   7.0334   C.ar      1 RES1   0.0000
    46 C17     15.0127   3.6110   7.1510   C.ar      1 RES1   0.0000
    47 H11     15.3054   2.9262   6.5941   H         1 RES1   0.0000
    48 C18     15.8785   4.1526   8.1018   C.ar      1 RES1   0.0000
    49 H12     16.7491   3.8332   8.1754   H         1 RES1   0.0000
    50 C19     15.4416   5.1627   8.9337   C.ar      1 RES1   0.0000
    51 H13     16.0209   5.5272   9.5635   H         1 RES1   0.0000
    52 C20     14.1367   5.6373   8.8364   C.ar      1 RES1   0.0000
    53 H14     13.8460   6.3110   9.4073   H         1 RES1   0.0000
    54 C21     13.2672   5.1097   7.8877   C.ar      1 RES1   0.0000
    55 H15     12.3971   5.4304   7.8228   H         1 RES1   0.0000
    56 C22     12.8059   2.1240   5.6110   C.2       1 RES1   0.0000
    57 C23     13.1363   1.0386   6.5497   C.ar      1 RES1   0.0000
    58 C24     13.6116  -0.2087   6.1318   C.ar      1 RES1   0.0000
    59 H16     13.7671  -0.3635   5.2286   H         1 RES1   0.0000
    60 C25     13.8544  -1.2224   7.0600   C.ar      1 RES1   0.0000
    61 H17     14.1599  -2.0509   6.7696   H         1 RES1   0.0000
    62 C26     13.6429  -1.0035   8.4108   C.ar      1 RES1   0.0000
    63 H18     13.8034  -1.6833   9.0257   H         1 RES1   0.0000
    64 C27     13.1919   0.2314   8.8422   C.ar      1 RES1   0.0000
    65 H19     13.0645   0.3865   9.7503   H         1 RES1   0.0000
    66 C28     12.9283   1.2400   7.9273   C.ar      1 RES1   0.0000
    67 H20     12.6104   2.0610   8.2286   H         1 RES1   0.0000
    68 C29     12.5687   3.0527   1.0477   C.2       1 RES1   0.0000
    69 C30     12.5266   1.4737  -0.8274   C.3       1 RES1   0.0000
    70 H21     12.5907   1.6782  -1.7729   H         1 RES1   0.0000
    71 H22     11.5870   1.3866  -0.6006   H         1 RES1   0.0000
    72 C31     13.2295   0.1878  -0.5448   C.3       1 RES1   0.0000
    73 H23     12.8289  -0.5167  -1.0612   H         1 RES1   0.0000
    74 H24     13.1563  -0.0187   0.3897   H         1 RES1   0.0000
    75 H25     14.1561   0.2708  -0.7826   H         1 RES1   0.0000
    76 C32     13.0492   4.3715   1.4826   C.2       1 RES1   0.0000
    77 C33     14.8456   5.9348   1.1718   C.3       1 RES1   0.0000
    78 H26     15.2862   5.4893   1.9130   H         1 RES1   0.0000
    79 H27     14.4939   6.7832   1.4847   H         1 RES1   0.0000
    80 C34     15.8050   6.1466   0.0406   C.3       1 RES1   0.0000
    81 H28     16.5363   6.6923   0.3398   H         1 RES1   0.0000
    82 H29     15.3528   6.5856  -0.6844   H         1 RES1   0.0000
    83 H30     16.1401   5.2983  -0.2576   H         1 RES1   0.0000
@<TRIPOS>BOND
     1     1     2    1
     2     2     3    1
     3     3    14    1
     4     4     1    1
     5     5     4    1
     6     6     1    1
     7     7     6    1
     8     8     1    1
     9     9     8    1
    10    10     1    1
    11    11    10    1
    12    12     1    1
    13    13    12    1
    14    14     5    1
    15    15    14    1
    16    16     9    1
    17    17    16    1
    18    18    68    1
    19    19    76    1
    20    20     2    2
    21    21    20    1
    22    22    21   ar
    23    23    22    1
    24    24    22   ar
    25    25    24    1
    26    26    24   ar
    27    27    26    1
    28    28    26   ar
    29    29    28    1
    30    30    21   ar
    31    31    30    1
    32    32     8    2
    33    33    32    1
    34    34    33   ar
    35    35    34    1
    36    36    34   ar
    37    37    36    1
    38    38    36   ar
    39    39    38    1
    40    40    38   ar
    41    41    40    1
    42    42    33   ar
    43    43    42    1
    44    44     4    2
    45    45    44    1
    46    46    45   ar
    47    47    46    1
    48    48    46   ar
    49    49    48    1
    50    50    48   ar
    51    51    50    1
    52    52    50   ar
    53    53    52    1
    54    54    45   ar
    55    55    54    1
    56    56    10    2
    57    57    56    1
    58    58    57   ar
    59    59    58    1
    60    60    58   ar
    61    61    60    1
    62    62    60   ar
    63    63    62    1
    64    64    62   ar
    65    65    64    1
    66    66    57   ar
    67    67    66    1
    68    68    12    2
    69    69    18    1
    70    70    69    1
    71    71    69    1
    72    72    69    1
    73    73    72    1
    74    74    72    1
    75    75    72    1
    76    76     6    2
    77    77    19    1
    78    78    77    1
    79    79    77    1
    80    80    77    1
    81    81    80    1
    82    82    80    1
    83    83    80    1
    84     7    14    1
    85    11    16    1
    86    13    16    1
    87    20    32    1
    88    28    30   ar
    89    40    42   ar
    90    44    56    1
    91    52    54   ar
    92    64    66   ar
    93    68    76    1
@<TRIPOS>SUBSTRUCTURE
     1 RES1        1 GROUP             0 ****  ****    0  
@<TRIPOS>CRYSIN
   10.5016   10.7442   16.7677   73.8150   84.2390   70.0560     2     1
