@<TRIPOS>MOLECULE
DUKJAW01
    75    86     1     0     0
SMALL
NO_CHARGES
****
Generated from the CSD

@<TRIPOS>ATOM
     1 Fe1     12.8120   8.6430  20.3888   Fe        1 RES1   0.0000
     2 S1      11.1764  11.7938  23.6501   S.2       1 RES1   0.0000
     3 N1      10.7454   8.3086  19.7931   N.ar      1 RES1   0.0000
     4 N2       8.1267   5.5675  16.6418   N.pl3     1 RES1   0.0000
     5 N3       9.9203   4.5367  15.8355   N.2       1 RES1   0.0000
     6 C1       9.2567   7.0910  18.3306   C.ar      1 RES1   0.0000
     7 C2      10.5443   7.3989  18.8047   C.ar      1 RES1   0.0000
     8 N4      12.8991   7.1099  18.8096   N.ar      1 RES1   0.0000
     9 C3       8.1625   7.7495  18.9115   C.ar      1 RES1   0.0000
    10 H1       7.2977   7.5826  18.6136   H         1 RES1   0.0000
    11 C4       9.6667   8.8995  20.3240   C.ar      1 RES1   0.0000
    12 H2       9.7948   9.5212  21.0031   H         1 RES1   0.0000
    13 C5       9.2003   6.1167  17.2891   C.ar      1 RES1   0.0000
    14 C6      11.7076   6.7534  18.2656   C.ar      1 RES1   0.0000
    15 C7      11.7371  10.7736  22.5366   C.1       1 RES1   0.0000
    16 C8      10.2970   5.4752  16.7778   C.ar      1 RES1   0.0000
    17 C9       8.6122   4.6251  15.7953   C.2       1 RES1   0.0000
    18 C10     12.7787   5.2289  16.7625   C.ar      1 RES1   0.0000
    19 H3      12.7479   4.5883  16.0908   H         1 RES1   0.0000
    20 C11      8.3855   8.6354  19.9184   C.ar      1 RES1   0.0000
    21 H4       7.6693   9.0614  20.3317   H         1 RES1   0.0000
    22 C12     11.6025   5.7989  17.2391   C.ar      1 RES1   0.0000
    23 N5      12.1829  10.0615  21.7714   N.2       1 RES1   0.0000
    24 C13      7.7256   3.7670  14.9825   C.ar      1 RES1   0.0000
    25 C14     13.9869   6.5527  18.3015   C.ar      1 RES1   0.0000
    26 H5      14.8094   6.8090  18.6489   H         1 RES1   0.0000
    27 C15     13.9766   5.6122  17.2845   C.ar      1 RES1   0.0000
    28 H6      14.7710   5.2507  16.9634   H         1 RES1   0.0000
    29 C16      6.3663   3.8822  15.0360   C.ar      1 RES1   0.0000
    30 H7       5.9845   4.5337  15.5797   H         1 RES1   0.0000
    31 C17      8.2637   2.7808  14.1775   C.ar      1 RES1   0.0000
    32 H8       9.1875   2.6785  14.1199   H         1 RES1   0.0000
    33 C18      7.4489   1.9684  13.4748   C.ar      1 RES1   0.0000
    34 H9       7.8089   1.3040  12.9319   H         1 RES1   0.0000
    35 C19      6.1651   2.1114  13.5544   C.ar      1 RES1   0.0000
    36 H10      5.6309   1.5294  13.0624   H         1 RES1   0.0000
    37 N6       5.5540   3.0529  14.3047   N.ar      1 RES1   0.0000
    38 H11      7.4694   5.8198  16.7405   H         1 RES1   0.0000
    39 S1C     14.4476  11.7938  17.1274   S.2       1 RES1   0.0000
    40 N1C     14.8786   8.3086  20.9844   N.ar      1 RES1   0.0000
    41 N2C     17.4973   5.5675  24.1357   N.pl3     1 RES1   0.0000
    42 N3C     15.7037   4.5367  24.9420   N.2       1 RES1   0.0000
    43 C1C     16.3673   7.0910  22.4469   C.ar      1 RES1   0.0000
    44 C2C     15.0797   7.3989  21.9728   C.ar      1 RES1   0.0000
    45 N4C     12.7249   7.1099  21.9679   N.ar      1 RES1   0.0000
    46 C3C     17.4615   7.7495  21.8660   C.ar      1 RES1   0.0000
    47 H1C     18.3263   7.5826  22.1639   H         1 RES1   0.0000
    48 C4C     15.9573   8.8995  20.4535   C.ar      1 RES1   0.0000
    49 H2C     15.8292   9.5212  19.7744   H         1 RES1   0.0000
    50 C5C     16.4237   6.1167  23.4884   C.ar      1 RES1   0.0000
    51 C6C     13.9164   6.7534  22.5119   C.ar      1 RES1   0.0000
    52 C7C     13.8869  10.7736  18.2409   C.1       1 RES1   0.0000
    53 C8C     15.3270   5.4752  23.9997   C.ar      1 RES1   0.0000
    54 C9C     17.0118   4.6251  24.9822   C.2       1 RES1   0.0000
    55 C10C    12.8453   5.2289  24.0150   C.ar      1 RES1   0.0000
    56 H3C     12.8761   4.5883  24.6867   H         1 RES1   0.0000
    57 C11C    17.2385   8.6354  20.8591   C.ar      1 RES1   0.0000
    58 H4C     17.9547   9.0614  20.4458   H         1 RES1   0.0000
    59 C12C    14.0215   5.7989  23.5384   C.ar      1 RES1   0.0000
    60 N5C     13.4411  10.0615  19.0061   N.2       1 RES1   0.0000
    61 C13C    17.8984   3.7670  25.7950   C.ar      1 RES1   0.0000
    62 C14C    11.6371   6.5527  22.4760   C.ar      1 RES1   0.0000
    63 H5C     10.8146   6.8090  22.1286   H         1 RES1   0.0000
    64 C15C    11.6474   5.6122  23.4930   C.ar      1 RES1   0.0000
    65 H6C     10.8530   5.2507  23.8141   H         1 RES1   0.0000
    66 C16C    19.2577   3.8822  25.7415   C.ar      1 RES1   0.0000
    67 H7C     19.6395   4.5337  25.1978   H         1 RES1   0.0000
    68 C17C    17.3603   2.7808  26.6000   C.ar      1 RES1   0.0000
    69 H8C     16.4365   2.6785  26.6576   H         1 RES1   0.0000
    70 C18C    18.1751   1.9684  27.3027   C.ar      1 RES1   0.0000
    71 H9C     17.8151   1.3040  27.8456   H         1 RES1   0.0000
    72 C19C    19.4589   2.1114  27.2231   C.ar      1 RES1   0.0000
    73 H10C    19.9931   1.5294  27.7151   H         1 RES1   0.0000
    74 N6C     20.0700   3.0529  26.4728   N.ar      1 RES1   0.0000
    75 H11C    18.1546   5.8198  24.0370   H         1 RES1   0.0000
@<TRIPOS>BOND
     1     1     3    1
     2     2    15    2
     3     3     7   ar
     4     4    13    1
     5     5    16    1
     6     6     7   ar
     7     7    14   ar
     8     8     1    1
     9     9     6   ar
    10    10     9    1
    11    11     3   ar
    12    12    11    1
    13    13     6   ar
    14    14     8   ar
    15    15    23    2
    16    16    13   ar
    17    17     4    1
    18    18    19    1
    19    20     9   ar
    20    21    20    1
    21    22    14   ar
    22    23     1    1
    23    24    17    1
    24    25     8   ar
    25    26    25    1
    26    27    18   ar
    27    28    27    1
    28    29    24   ar
    29    30    29    1
    30    31    24   ar
    31    32    31    1
    32    33    31   ar
    33    34    33    1
    34    35    33   ar
    35    36    35    1
    36    37    29   ar
    37    38     4    1
    38    39    52    2
    39    40     1    1
    40    41    50    1
    41    42    53    1
    42    43    44   ar
    43    44    40   ar
    44    45     1    1
    45    46    43   ar
    46    47    46    1
    47    48    40   ar
    48    49    48    1
    49    50    43   ar
    50    51    44   ar
    51    52    60    2
    52    53    50   ar
    53    54    41    1
    54    55    56    1
    55    57    46   ar
    56    58    57    1
    57    59    51   ar
    58    60     1    1
    59    61    54    1
    60    62    45   ar
    61    63    62    1
    62    64    55   ar
    63    65    64    1
    64    66    61   ar
    65    67    66    1
    66    68    61   ar
    67    69    68    1
    68    70    68   ar
    69    71    70    1
    70    72    70   ar
    71    73    72    1
    72    74    66   ar
    73    75    41    1
    74     5    17    2
    75    11    20   ar
    76    16    22   ar
    77    18    22   ar
    78    25    27   ar
    79    35    37   ar
    80    42    54    2
    81    45    51   ar
    82    48    57   ar
    83    53    59   ar
    84    55    59   ar
    85    62    64   ar
    86    72    74   ar
@<TRIPOS>SUBSTRUCTURE
     1 RES1        1 GROUP             0 ****  ****    0  
@<TRIPOS>CRYSIN
   12.8120    9.9314   27.1850   90.0000   90.0000   90.0000    60     1
