@<TRIPOS>MOLECULE
DUKJIE
    75    86     1     0     0
SMALL
NO_CHARGES
****
Generated from the CSD

@<TRIPOS>ATOM
     1 C1      -0.9958   3.8693  16.9036   C.ar      1 RES1   0.0000
     2 H1      -1.7737   4.2158  16.5299   H         1 RES1   0.0000
     3 C2      -1.0675   2.9248  17.9347   C.ar      1 RES1   0.0000
     4 H2      -1.9077   2.6498  18.2242   H         1 RES1   0.0000
     5 N1       0.0069   2.4019  18.5183   N.ar      1 RES1   0.0000
     6 Fe1      0.0000   0.8543  20.1062   Fe        1 RES1   0.0000
     7 S1      -2.2284  -1.7593  16.7752   S.2       1 RES1   0.0000
     8 N2       4.9346   3.9181  16.6181   N.2       1 RES1   0.0000
     9 N3       2.1467   1.2665  19.6735   N.ar      1 RES1   0.0000
    10 N4      -0.6128  -0.5401  18.6915   N.2       1 RES1   0.0000
    11 C3       3.7842   3.4359  17.2125   C.ar      1 RES1   0.0000
    12 C4       2.3839   2.1631  18.6805   C.ar      1 RES1   0.0000
    13 C5       2.7113   4.0140  16.6348   C.ar      1 RES1   0.0000
    14 C6       3.6949   2.4969  18.2773   C.ar      1 RES1   0.0000
    15 C7       1.3746   3.7200  17.0136   C.ar      1 RES1   0.0000
    16 C8       3.2011   0.7301  20.2895   C.ar      1 RES1   0.0000
    17 H3       3.0455   0.1176  20.9721   H         1 RES1   0.0000
    18 N5       3.1479   4.8879  15.6592   N.pl3     1 RES1   0.0000
    19 C9       4.7759   1.9152  18.9464   C.ar      1 RES1   0.0000
    20 H4       5.6486   2.1215  18.7014   H         1 RES1   0.0000
    21 C10     -1.2731  -1.0548  17.8867   C.1       1 RES1   0.0000
    22 C11      4.5256   1.0358  19.9676   C.ar      1 RES1   0.0000
    23 H5       5.2278   0.6496  20.4386   H         1 RES1   0.0000
    24 C12      1.2271   2.7746  18.0556   C.ar      1 RES1   0.0000
    25 C13      4.4647   4.7875  15.7075   C.2       1 RES1   0.0000
    26 C14      5.3726   5.5746  14.8794   C.ar      1 RES1   0.0000
    27 C15      0.2259   4.2791  16.4503   C.ar      1 RES1   0.0000
    28 H6       0.2909   4.9196  15.7793   H         1 RES1   0.0000
    29 C16      6.7363   5.3955  14.9496   C.ar      1 RES1   0.0000
    30 H7       7.1098   4.7477  15.5032   H         1 RES1   0.0000
    31 C17      4.8503   6.5489  14.0314   C.ar      1 RES1   0.0000
    32 H8       3.9330   6.6756  13.9537   H         1 RES1   0.0000
    33 C18      5.7365   7.3152  13.3146   C.ar      1 RES1   0.0000
    34 H9       5.3861   7.9783  12.7634   H         1 RES1   0.0000
    35 C19      7.5413   6.2241  14.1542   C.ar      1 RES1   0.0000
    36 H10      8.4627   6.1029  14.1869   H         1 RES1   0.0000
    37 N6       7.0597   7.1777  13.3516   N.ar      1 RES1   0.0000
    38 H11      2.5841   5.1566  15.1627   H         1 RES1   0.0000
    39 C1B      0.9958   3.8693  23.3087   C.ar      1 RES1   0.0000
    40 H1B      1.7737   4.2158  23.6824   H         1 RES1   0.0000
    41 C2B      1.0675   2.9248  22.2776   C.ar      1 RES1   0.0000
    42 H2B      1.9077   2.6498  21.9881   H         1 RES1   0.0000
    43 N1B     -0.0069   2.4019  21.6940   N.ar      1 RES1   0.0000
    44 S1B      2.2284  -1.7593  23.4371   S.2       1 RES1   0.0000
    45 N2B     -4.9346   3.9181  23.5942   N.2       1 RES1   0.0000
    46 N3B     -2.1467   1.2665  20.5388   N.ar      1 RES1   0.0000
    47 N4B      0.6128  -0.5401  21.5208   N.2       1 RES1   0.0000
    48 C3B     -3.7842   3.4359  22.9998   C.ar      1 RES1   0.0000
    49 C4B     -2.3839   2.1631  21.5318   C.ar      1 RES1   0.0000
    50 C5B     -2.7113   4.0140  23.5775   C.ar      1 RES1   0.0000
    51 C6B     -3.6949   2.4969  21.9350   C.ar      1 RES1   0.0000
    52 C7B     -1.3746   3.7200  23.1987   C.ar      1 RES1   0.0000
    53 C8B     -3.2011   0.7301  19.9228   C.ar      1 RES1   0.0000
    54 H3B     -3.0455   0.1176  19.2402   H         1 RES1   0.0000
    55 N5B     -3.1479   4.8879  24.5531   N.pl3     1 RES1   0.0000
    56 C9B     -4.7759   1.9152  21.2659   C.ar      1 RES1   0.0000
    57 H4B     -5.6486   2.1215  21.5109   H         1 RES1   0.0000
    58 C10B     1.2731  -1.0548  22.3256   C.1       1 RES1   0.0000
    59 C11B    -4.5256   1.0358  20.2447   C.ar      1 RES1   0.0000
    60 H5B     -5.2278   0.6496  19.7737   H         1 RES1   0.0000
    61 C12B    -1.2271   2.7746  22.1567   C.ar      1 RES1   0.0000
    62 C13B    -4.4647   4.7875  24.5048   C.2       1 RES1   0.0000
    63 C14B    -5.3726   5.5746  25.3329   C.ar      1 RES1   0.0000
    64 C15B    -0.2259   4.2791  23.7620   C.ar      1 RES1   0.0000
    65 H6B     -0.2909   4.9196  24.4330   H         1 RES1   0.0000
    66 C16B    -6.7363   5.3955  25.2627   C.ar      1 RES1   0.0000
    67 H7B     -7.1098   4.7477  24.7091   H         1 RES1   0.0000
    68 C17B    -4.8503   6.5489  26.1809   C.ar      1 RES1   0.0000
    69 H8B     -3.9330   6.6756  26.2586   H         1 RES1   0.0000
    70 C18B    -5.7365   7.3152  26.8977   C.ar      1 RES1   0.0000
    71 H9B     -5.3861   7.9783  27.4489   H         1 RES1   0.0000
    72 C19B    -7.5413   6.2241  26.0581   C.ar      1 RES1   0.0000
    73 H10B    -8.4627   6.1029  26.0254   H         1 RES1   0.0000
    74 N6B     -7.0597   7.1777  26.8607   N.ar      1 RES1   0.0000
    75 H11B    -2.5841   5.1566  25.0496   H         1 RES1   0.0000
@<TRIPOS>BOND
     1     1     2    1
     2     3     1   ar
     3     4     3    1
     4     5     3   ar
     5     6     5    1
     6     7    21    2
     7     8    11    1
     8     9     6    1
     9    10     6    1
    10    11    13   ar
    11    12     9   ar
    12    13    15   ar
    13    14    11   ar
    14    15    24   ar
    15    16     9   ar
    16    17    16    1
    17    18    13    1
    18    19    14   ar
    19    20    19    1
    20    21    10    2
    21    22    16   ar
    22    23    22    1
    23    24     5   ar
    24    25     8    2
    25    26    25    1
    26    27     1   ar
    27    28    27    1
    28    29    26   ar
    29    30    29    1
    30    31    26   ar
    31    32    31    1
    32    33    31   ar
    33    34    33    1
    34    35    29   ar
    35    36    35    1
    36    37    33   ar
    37    38    18    1
    38    39    40    1
    39    41    39   ar
    40    42    41    1
    41    43     6    1
    42    44    58    2
    43    45    48    1
    44    46     6    1
    45    47     6    1
    46    48    50   ar
    47    49    46   ar
    48    50    52   ar
    49    51    48   ar
    50    52    61   ar
    51    53    46   ar
    52    54    53    1
    53    55    50    1
    54    56    51   ar
    55    57    56    1
    56    58    47    2
    57    59    53   ar
    58    60    59    1
    59    61    43   ar
    60    62    45    2
    61    63    62    1
    62    64    39   ar
    63    65    64    1
    64    66    63   ar
    65    67    66    1
    66    68    63   ar
    67    69    68    1
    68    70    68   ar
    69    71    70    1
    70    72    66   ar
    71    73    72    1
    72    74    70   ar
    73    75    55    1
    74    12    14   ar
    75    12    24   ar
    76    15    27   ar
    77    18    25    1
    78    19    22   ar
    79    35    37   ar
    80    41    43   ar
    81    49    51   ar
    82    49    61   ar
    83    52    64   ar
    84    55    62    1
    85    56    59   ar
    86    72    74   ar
@<TRIPOS>SUBSTRUCTURE
     1 RES1        1 GROUP             0 ****  ****    0  
@<TRIPOS>CRYSIN
   13.5295    9.0467   26.8082   90.0000   90.0000   90.0000    60     1
