@<TRIPOS>MOLECULE
DUKJAW
    75    86     1     0     0
SMALL
NO_CHARGES
****
Generated from the CSD

@<TRIPOS>ATOM
     1 C1       7.2467   3.9819   9.7039   C.ar      1 RES1   0.0000
     2 C2       6.0472   4.5706  10.1225   C.ar      1 RES1   0.0000
     3 H1       6.0472   5.2183  10.7903   H         1 RES1   0.0000
     4 C3       4.8790   4.1798   9.5388   C.ar      1 RES1   0.0000
     5 H2       4.0719   4.5440   9.8215   H         1 RES1   0.0000
     6 C4       4.8965   3.2278   8.5096   C.ar      1 RES1   0.0000
     7 H3       4.0906   2.9719   8.1253   H         1 RES1   0.0000
     8 N1       6.0198   2.6776   8.0640   N.ar      1 RES1   0.0000
     9 C5       7.1767   3.0231   8.6745   C.ar      1 RES1   0.0000
    10 Fe1      6.2472   1.3253   6.6361   Fe        1 RES1   0.0000
    11 S1       4.8660  -1.8451   9.8347   S.2       1 RES1   0.0000
    12 N2       8.1300   1.4451   7.2044   N.ar      1 RES1   0.0000
    13 N3       5.8236  -0.0236   7.9389   N.2       1 RES1   0.0000
    14 C6       9.6606   3.6177   9.7503   C.ar      1 RES1   0.0000
    15 C7      10.7201   1.9649   8.1513   C.ar      1 RES1   0.0000
    16 H4      11.5835   2.1283   8.4571   H         1 RES1   0.0000
    17 C8      10.4890   1.0671   7.1381   C.ar      1 RES1   0.0000
    18 H5      11.2024   0.6212   6.7423   H         1 RES1   0.0000
    19 N4       8.8959   5.2409  11.1280   N.2       1 RES1   0.0000
    20 C9       9.6206   2.6283   8.7140   C.ar      1 RES1   0.0000
    21 N5      10.7126   4.1601  10.4283   N.pl3     1 RES1   0.0000
    22 C10      8.3574   2.3498   8.1988   C.ar      1 RES1   0.0000
    23 C11      8.5486   4.2802  10.2048   C.ar      1 RES1   0.0000
    24 C12     11.0462   6.0590  12.0109   C.ar      1 RES1   0.0000
    25 C13      5.3963  -0.7816   8.7039   C.1       1 RES1   0.0000
    26 C14     10.2066   5.1504  11.2230   C.2       1 RES1   0.0000
    27 C15      9.2008   0.8259   6.7051   C.ar      1 RES1   0.0000
    28 H6       9.0721   0.1988   6.0309   H         1 RES1   0.0000
    29 C16     11.2836   7.9599  13.4161   C.ar      1 RES1   0.0000
    30 H7      10.9175   8.6548  13.9146   H         1 RES1   0.0000
    31 N6      13.2202   6.8298  12.6599   N.ar      1 RES1   0.0000
    32 C17     10.4602   7.0837  12.7536   C.ar      1 RES1   0.0000
    33 H8       9.5356   7.1704  12.7998   H         1 RES1   0.0000
    34 C18     12.6217   7.8152  13.3468   C.ar      1 RES1   0.0000
    35 H9      13.1577   8.4284  13.7978   H         1 RES1   0.0000
    36 C19     12.4193   5.9733  11.9872   C.ar      1 RES1   0.0000
    37 H10     12.8142   5.2971  11.4858   H         1 RES1   0.0000
    38 H11     11.4823   3.9868  10.3656   H         1 RES1   0.0000
    39 C1B      5.2476   3.9819   3.5684   C.ar      1 RES1   0.0000
    40 C2B      6.4471   4.5706   3.1498   C.ar      1 RES1   0.0000
    41 H1B      6.4471   5.2183   2.4819   H         1 RES1   0.0000
    42 C3B      7.6153   4.1798   3.7335   C.ar      1 RES1   0.0000
    43 H2B      8.4224   4.5440   3.4508   H         1 RES1   0.0000
    44 C4B      7.5978   3.2278   4.7626   C.ar      1 RES1   0.0000
    45 H3B      8.4037   2.9719   5.1470   H         1 RES1   0.0000
    46 N1B      6.4745   2.6776   5.2083   N.ar      1 RES1   0.0000
    47 C5B      5.3176   3.0231   4.5978   C.ar      1 RES1   0.0000
    48 S1B      7.6283  -1.8451   3.4375   S.2       1 RES1   0.0000
    49 N2B      4.3643   1.4451   6.0678   N.ar      1 RES1   0.0000
    50 N3B      6.6707  -0.0236   5.3333   N.2       1 RES1   0.0000
    51 C6B      2.8337   3.6177   3.5219   C.ar      1 RES1   0.0000
    52 C7B      1.7742   1.9649   5.1210   C.ar      1 RES1   0.0000
    53 H4B      0.9108   2.1283   4.8152   H         1 RES1   0.0000
    54 C8B      2.0053   1.0671   6.1342   C.ar      1 RES1   0.0000
    55 H5B      1.2919   0.6212   6.5299   H         1 RES1   0.0000
    56 N4B      3.5984   5.2409   2.1443   N.2       1 RES1   0.0000
    57 C9B      2.8737   2.6283   4.5582   C.ar      1 RES1   0.0000
    58 N5B      1.7817   4.1601   2.8440   N.pl3     1 RES1   0.0000
    59 C10B     4.1369   2.3498   5.0735   C.ar      1 RES1   0.0000
    60 C11B     3.9457   4.2802   3.0675   C.ar      1 RES1   0.0000
    61 C12B     1.4481   6.0590   1.2614   C.ar      1 RES1   0.0000
    62 C13B     7.0980  -0.7816   4.5683   C.1       1 RES1   0.0000
    63 C14B     2.2877   5.1504   2.0492   C.2       1 RES1   0.0000
    64 C15B     3.2935   0.8259   6.5671   C.ar      1 RES1   0.0000
    65 H6B      3.4222   0.1988   7.2413   H         1 RES1   0.0000
    66 C16B     1.2107   7.9599  -0.1439   C.ar      1 RES1   0.0000
    67 H7B      1.5768   8.6548  -0.6424   H         1 RES1   0.0000
    68 N6B     -0.7259   6.8298   0.6124   N.ar      1 RES1   0.0000
    69 C17B     2.0341   7.0837   0.5187   C.ar      1 RES1   0.0000
    70 H8B      2.9587   7.1704   0.4725   H         1 RES1   0.0000
    71 C18B    -0.1274   7.8152  -0.0746   C.ar      1 RES1   0.0000
    72 H9B     -0.6634   8.4284  -0.5256   H         1 RES1   0.0000
    73 C19B     0.0750   5.9733   1.2850   C.ar      1 RES1   0.0000
    74 H10B    -0.3199   5.2971   1.7864   H         1 RES1   0.0000
    75 H11B     1.0120   3.9868   2.9066   H         1 RES1   0.0000
@<TRIPOS>BOND
     1     1     2   ar
     2     2     3    1
     3     4     2   ar
     4     5     4    1
     5     6     4   ar
     6     7     6    1
     7     8     6   ar
     8     9     1   ar
     9    10     8    1
    10    11    25    2
    11    12    10    1
    12    13    10    1
    13    14    20   ar
    14    15    16    1
    15    17    15   ar
    16    18    17    1
    17    19    23    1
    18    20    15   ar
    19    21    14    1
    20    22     9   ar
    21    23     1   ar
    22    24    26    1
    23    25    13    2
    24    26    19    2
    25    27    12   ar
    26    28    27    1
    27    29    30    1
    28    31    34   ar
    29    32    24   ar
    30    33    32    1
    31    34    29   ar
    32    35    34    1
    33    36    24   ar
    34    37    36    1
    35    38    21    1
    36    39    40   ar
    37    40    41    1
    38    42    40   ar
    39    43    42    1
    40    44    42   ar
    41    45    44    1
    42    46    10    1
    43    47    39   ar
    44    48    62    2
    45    49    10    1
    46    50    10    1
    47    51    57   ar
    48    52    53    1
    49    54    52   ar
    50    55    54    1
    51    56    60    1
    52    57    52   ar
    53    58    51    1
    54    59    47   ar
    55    60    39   ar
    56    61    63    1
    57    62    50    2
    58    63    56    2
    59    64    49   ar
    60    65    64    1
    61    66    67    1
    62    68    71   ar
    63    69    61   ar
    64    70    69    1
    65    71    66   ar
    66    72    71    1
    67    73    61   ar
    68    74    73    1
    69    75    58    1
    70     8     9   ar
    71    12    22   ar
    72    14    23   ar
    73    17    27   ar
    74    20    22   ar
    75    21    26    1
    76    29    32   ar
    77    31    36   ar
    78    44    46   ar
    79    46    47   ar
    80    49    59   ar
    81    51    60   ar
    82    54    64   ar
    83    57    59   ar
    84    58    63    1
    85    66    69   ar
    86    68    73   ar
@<TRIPOS>SUBSTRUCTURE
     1 RES1        1 GROUP             0 ****  ****    0  
@<TRIPOS>CRYSIN
   12.4943    9.8440   26.5445   90.0000   90.0000   90.0000    60     1
