@<TRIPOS>MOLECULE
DUKYEN
    81    86     1     0     0
SMALL
NO_CHARGES
****
Generated from the CSD

@<TRIPOS>ATOM
     1 Fe1     10.2045   2.4681   4.3386   Fe        1 RES1   0.0000
     2 S1       7.5979   0.3457   3.7652   S.o2      1 RES1   0.0000
     3 O1       8.7351   1.0060   4.4340   O.3       1 RES1   0.0000
     4 O2       6.6452   1.3179   3.3060   O.2       1 RES1   0.0000
     5 O3       8.0330  -0.5992   2.7958   O.2       1 RES1   0.0000
     6 N1       9.1963   3.7238   2.8097   N.ar      1 RES1   0.0000
     7 N2       9.0779   3.5086   5.9786   N.ar      1 RES1   0.0000
     8 C1       6.8125  -0.5657   5.0605   C.ar      1 RES1   0.0000
     9 C2       7.2003  -1.8461   5.3486   C.ar      1 RES1   0.0000
    10 C3       6.5635  -2.5500   6.3361   C.ar      1 RES1   0.0000
    11 C4       5.5512  -2.0031   7.0858   C.ar      1 RES1   0.0000
    12 C5       5.1798  -0.6960   6.7908   C.ar      1 RES1   0.0000
    13 C6       5.7921   0.0138   5.7981   C.ar      1 RES1   0.0000
    14 C7       4.8492  -2.7761   8.1618   C.3       1 RES1   0.0000
    15 C8       9.1473   5.0595   2.9745   C.ar      1 RES1   0.0000
    16 C9       8.5473   5.8907   2.0582   C.ar      1 RES1   0.0000
    17 C10      7.9677   5.3685   0.9371   C.ar      1 RES1   0.0000
    18 C11      8.0371   4.0022   0.7567   C.ar      1 RES1   0.0000
    19 C12      8.6453   3.2243   1.7059   C.ar      1 RES1   0.0000
    20 C13      9.6861   4.0604   7.0303   C.ar      1 RES1   0.0000
    21 C14      9.0249   4.3931   8.1913   C.ar      1 RES1   0.0000
    22 C15      7.6901   4.1917   8.2833   C.ar      1 RES1   0.0000
    23 C16      7.0329   3.6626   7.2160   C.ar      1 RES1   0.0000
    24 C17      7.7513   3.3279   6.0810   C.ar      1 RES1   0.0000
    25 H1       7.7146  -2.1818   4.8939   H         1 RES1   0.0000
    26 H2       6.7758  -3.5244   6.6988   H         1 RES1   0.0000
    27 H3       4.4900  -0.3455   7.4450   H         1 RES1   0.0000
    28 H4       5.5512   0.9576   5.6402   H         1 RES1   0.0000
    29 H5       4.6941  -3.7514   7.7921   H         1 RES1   0.0000
    30 H6       5.5104  -3.0801   8.5210   H         1 RES1   0.0000
    31 H7       4.0002  -2.5075   8.3995   H         1 RES1   0.0000
    32 H8       9.5106   5.4297   3.6618   H         1 RES1   0.0000
    33 H9       8.4085   6.7625   2.1346   H         1 RES1   0.0000
    34 H10      7.6738   6.0813   0.1909   H         1 RES1   0.0000
    35 H11      7.6330   3.6626   0.0694   H         1 RES1   0.0000
    36 H12      8.7351   2.3200   1.6487   H         1 RES1   0.0000
    37 H13     10.5719   4.1562   6.9244   H         1 RES1   0.0000
    38 H14      9.5106   4.7090   8.8681   H         1 RES1   0.0000
    39 H15      7.1840   4.4030   9.0590   H         1 RES1   0.0000
    40 H16      6.0411   3.5244   7.2368   H         1 RES1   0.0000
    41 H17      7.2656   2.9222   5.3104   H         1 RES1   0.0000
    42 O1M     11.6739   3.9301   4.4340   O.3       1 RES1   0.0000
    43 N1M     11.2127   1.2123   2.8097   N.ar      1 RES1   0.0000
    44 N2M     11.3311   1.4275   5.9786   N.ar      1 RES1   0.0000
    45 S1M     12.8111   4.5904   3.7652   S.o2      1 RES1   0.0000
    46 C8M     11.2617  -0.1234   2.9745   C.ar      1 RES1   0.0000
    47 C12M    11.7637   1.7118   1.7059   C.ar      1 RES1   0.0000
    48 C13M    10.7229   0.8757   7.0303   C.ar      1 RES1   0.0000
    49 C17M    12.6577   1.6082   6.0810   C.ar      1 RES1   0.0000
    50 O2M     13.7638   3.6182   3.3060   O.2       1 RES1   0.0000
    51 O3M     12.3760   5.5353   2.7958   O.2       1 RES1   0.0000
    52 C1M     13.5965   5.5018   5.0605   C.ar      1 RES1   0.0000
    53 C9M     11.8617  -0.9546   2.0582   C.ar      1 RES1   0.0000
    54 H8M     10.8984  -0.4936   3.6618   H         1 RES1   0.0000
    55 C11M    12.3719   0.9339   0.7567   C.ar      1 RES1   0.0000
    56 H12M    11.6739   2.6161   1.6487   H         1 RES1   0.0000
    57 C14M    11.3841   0.5430   8.1913   C.ar      1 RES1   0.0000
    58 H13M     9.8371   0.7799   6.9244   H         1 RES1   0.0000
    59 C16M    13.3761   1.2735   7.2160   C.ar      1 RES1   0.0000
    60 H17M    13.1434   2.0139   5.3104   H         1 RES1   0.0000
    61 C2M     13.2087   6.7822   5.3486   C.ar      1 RES1   0.0000
    62 C6M     14.6169   4.9223   5.7981   C.ar      1 RES1   0.0000
    63 C10M    12.4413  -0.4324   0.9371   C.ar      1 RES1   0.0000
    64 H9M     12.0005  -1.8264   2.1346   H         1 RES1   0.0000
    65 H11M    12.7760   1.2735   0.0694   H         1 RES1   0.0000
    66 C15M    12.7189   0.7444   8.2833   C.ar      1 RES1   0.0000
    67 H14M    10.8984   0.2271   8.8681   H         1 RES1   0.0000
    68 H16M    14.3679   1.4117   7.2368   H         1 RES1   0.0000
    69 C3M     13.8455   7.4861   6.3361   C.ar      1 RES1   0.0000
    70 H1M     12.6944   7.1179   4.8939   H         1 RES1   0.0000
    71 C5M     15.2292   5.6321   6.7908   C.ar      1 RES1   0.0000
    72 H4M     14.8578   3.9785   5.6402   H         1 RES1   0.0000
    73 H10M    12.7352  -1.1452   0.1909   H         1 RES1   0.0000
    74 H15M    13.2250   0.5331   9.0590   H         1 RES1   0.0000
    75 C4M     14.8578   6.9392   7.0858   C.ar      1 RES1   0.0000
    76 H2M     13.6332   8.4605   6.6988   H         1 RES1   0.0000
    77 H3M     15.9190   5.2816   7.4450   H         1 RES1   0.0000
    78 C7M     15.5598   7.7122   8.1618   C.3       1 RES1   0.0000
    79 H5M     15.7149   8.6875   7.7921   H         1 RES1   0.0000
    80 H6M     14.8986   8.0162   8.5210   H         1 RES1   0.0000
    81 H7M     16.4088   7.4436   8.3995   H         1 RES1   0.0000
@<TRIPOS>BOND
     1     1     3    1
     2     2     3    1
     3     4     2    2
     4     5     2    2
     5     6     1    1
     6     7     1    1
     7     8     2    1
     8     9     8   ar
     9    10     9   ar
    10    11    10   ar
    11    12    11   ar
    12    13     8   ar
    13    14    11    1
    14    15     6   ar
    15    16    15   ar
    16    17    16   ar
    17    18    17   ar
    18    19     6   ar
    19    20     7   ar
    20    21    20   ar
    21    22    21   ar
    22    23    22   ar
    23    24     7   ar
    24    25     9    1
    25    26    10    1
    26    27    12    1
    27    28    13    1
    28    29    14    1
    29    30    14    1
    30    31    14    1
    31    32    15    1
    32    33    16    1
    33    34    17    1
    34    35    18    1
    35    36    19    1
    36    37    20    1
    37    38    21    1
    38    39    22    1
    39    40    23    1
    40    41    24    1
    41    42     1    1
    42    43     1    1
    43    44     1    1
    44    45    42    1
    45    46    43   ar
    46    47    43   ar
    47    48    44   ar
    48    49    44   ar
    49    50    45    2
    50    51    45    2
    51    52    45    1
    52    53    46   ar
    53    54    46    1
    54    55    47   ar
    55    56    47    1
    56    57    48   ar
    57    58    48    1
    58    59    49   ar
    59    60    49    1
    60    61    52   ar
    61    62    52   ar
    62    63    53   ar
    63    64    53    1
    64    65    55    1
    65    66    57   ar
    66    67    57    1
    67    68    59    1
    68    69    61   ar
    69    70    61    1
    70    71    62   ar
    71    72    62    1
    72    73    63    1
    73    74    66    1
    74    75    69   ar
    75    76    69    1
    76    77    71    1
    77    78    75    1
    78    79    78    1
    79    80    78    1
    80    81    78    1
    81    12    13   ar
    82    18    19   ar
    83    23    24   ar
    84    55    63   ar
    85    59    66   ar
    86    71    75   ar
@<TRIPOS>SUBSTRUCTURE
     1 RES1        1 GROUP             0 ****  ****    0  
@<TRIPOS>CRYSIN
   40.8180    9.8722   17.3544   90.0000   90.0000   90.0000    43     1
