@<TRIPOS>MOLECULE
DULCOF
   169   184     3     0     0
SMALL
USER_CHARGES
****
Generated from the CSD

@<TRIPOS>ATOM
     1 Fe1      3.1430  14.4306  10.2457   Fe        1 RES1   2.0000
     2 S1       5.4069  18.2793  10.5128   S.3       1 RES1   0.0000
     3 S2       4.9874  10.5505   9.0029   S.3       1 RES1   0.0000
     4 S3       0.2168  15.3189   6.9888   S.3       1 RES1   0.0000
     5 S4       1.9721  13.5604  14.4710   S.3       1 RES1   0.0000
     6 N1       3.5956  16.3794  10.5862   N.2       1 RES1   0.0000
     7 N2       4.9750  14.4113   9.7929   N.ar      1 RES1   0.0000
     8 N3       3.3621  12.4863   9.7480   N.2       1 RES1   0.0000
     9 N4       2.3517  14.9107   8.4431   N.2       1 RES1   0.0000
    10 N5       1.3139  14.4498  10.6828   N.ar      1 RES1   0.0000
    11 N6       3.2504  13.9592  12.2232   N.2       1 RES1   0.0000
    12 C1       2.9147  17.3891  12.7116   C.3       1 RES1   0.0000
    13 H1       2.4113  16.5868  12.9593   H         1 RES1   0.0000
    14 H2       2.5073  18.1707  13.1375   H         1 RES1   0.0000
    15 H3       3.8433  17.2997  13.0110   H         1 RES1   0.0000
    16 C2       1.4627  17.7094  10.6869   C.3       1 RES1   0.0000
    17 H4       1.4540  17.6581   9.7072   H         1 RES1   0.0000
    18 H5       1.1043  18.5753  10.9713   H         1 RES1   0.0000
    19 H6       0.9104  16.9876  11.0557   H         1 RES1   0.0000
    20 C3       2.8837  17.5625  11.1863   C.3       1 RES1   0.0000
    21 C4       3.6698  18.8146  10.7468   C.3       1 RES1   0.0000
    22 H7       3.6161  19.5195  11.4408   H         1 RES1   0.0000
    23 H8       3.3028  19.1765   9.9004   H         1 RES1   0.0000
    24 C5       4.8305  16.6715  10.2964   C.2       1 RES1   0.0000
    25 C6       5.6935  15.5647   9.8365   C.ar      1 RES1   0.0000
    26 C7       7.0158  15.6052   9.4664   C.ar      1 RES1   0.0000
    27 H9       7.4970  16.4249   9.4677   H         1 RES1   0.0000
    28 C8       7.6362  14.4148   9.0895   C.ar      1 RES1   0.0000
    29 H10      8.5528  14.4171   8.8377   H         1 RES1   0.0000
    30 C9       6.9086  13.2135   9.0827   C.ar      1 RES1   0.0000
    31 H11      7.3222  12.3900   8.8513   H         1 RES1   0.0000
    32 C10      5.5787  13.2675   9.4201   C.ar      1 RES1   0.0000
    33 C11      4.5868  12.1830   9.4106   C.2       1 RES1   0.0000
    34 C12      3.3648  10.0268   9.6405   C.3       1 RES1   0.0000
    35 H12      2.9910   9.3031   9.0799   H         1 RES1   0.0000
    36 H13      3.4480   9.7000  10.5699   H         1 RES1   0.0000
    37 C13      2.4436  11.2889   9.5875   C.3       1 RES1   0.0000
    38 C14      1.4370  11.1868  10.7128   C.3       1 RES1   0.0000
    39 H14      1.8912  11.3263  11.5700   H         1 RES1   0.0000
    40 H15      1.0251  10.2974  10.7033   H         1 RES1   0.0000
    41 H16      0.7443  11.8697  10.5944   H         1 RES1   0.0000
    42 C15      1.7502  11.4053   8.2336   C.3       1 RES1   0.0000
    43 H17      1.1933  12.2127   8.2200   H         1 RES1   0.0000
    44 H18      1.1858  10.6172   8.0866   H         1 RES1   0.0000
    45 H19      2.4237  11.4612   7.5247   H         1 RES1   0.0000
    46 C16      4.1316  14.5974   6.7001   C.3       1 RES1   0.0000
    47 H20      4.8827  14.8448   7.2784   H         1 RES1   0.0000
    48 H21      4.3538  14.8063   5.7680   H         1 RES1   0.0000
    49 H22      3.9557  13.6386   6.7844   H         1 RES1   0.0000
    50 C17      3.1864  16.8573   7.2253   C.3       1 RES1   0.0000
    51 H23      2.3737  17.3267   7.5083   H         1 RES1   0.0000
    52 H24      3.4752  17.1995   6.3545   H         1 RES1   0.0000
    53 H25      3.8950  17.0030   7.8852   H         1 RES1   0.0000
    54 C18      2.8978  15.3763   7.1137   C.3       1 RES1   0.0000
    55 C19      1.7856  15.1215   6.0973   C.3       1 RES1   0.0000
    56 H26      1.8593  14.2051   5.7258   H         1 RES1   0.0000
    57 H27      1.8433  15.7697   5.3516   H         1 RES1   0.0000
    58 C20      1.0646  14.9354   8.4527   C.2       1 RES1   0.0000
    59 C21      0.3902  14.6837   9.7290   C.ar      1 RES1   0.0000
    60 C22     -0.9614  14.6984   9.9998   C.ar      1 RES1   0.0000
    61 H28     -1.5942  14.8294   9.3045   H         1 RES1   0.0000
    62 C23     -1.3767  14.5161  11.3183   C.ar      1 RES1   0.0000
    63 H29     -2.2997  14.5481  11.5387   H         1 RES1   0.0000
    64 C24     -0.4210  14.2868  12.3089   C.ar      1 RES1   0.0000
    65 H30     -0.6829  14.1666  13.2137   H         1 RES1   0.0000
    66 C25      0.9090  14.2371  11.9510   C.ar      1 RES1   0.0000
    67 C26      2.0869  13.9515  12.7974   C.2       1 RES1   0.0000
    68 C27      3.7792  13.8005  14.5894   C.3       1 RES1   0.0000
    69 H31      3.9905  14.7254  14.8724   H         1 RES1   0.0000
    70 H32      4.1734  13.1684  15.2425   H         1 RES1   0.0000
    71 C28      4.3229  13.5284  13.1716   C.3       1 RES1   0.0000
    72 C29      5.6026  14.3157  12.9919   C.3       1 RES1   0.0000
    73 H33      6.0619  14.0124  12.1823   H         1 RES1   0.0000
    74 H34      6.1826  14.1781  13.7689   H         1 RES1   0.0000
    75 H35      5.3897  15.2688  12.9076   H         1 RES1   0.0000
    76 C30      4.5684  12.0300  12.9525   C.3       1 RES1   0.0000
    77 H36      3.7328  11.5383  13.0940   H         1 RES1   0.0000
    78 H37      5.2449  11.7117  13.5852   H         1 RES1   0.0000
    79 H38      4.8816  11.8813  12.0354   H         1 RES1   0.0000
    80 C31      3.0577   8.8021   2.5622   C.ar      2 RES2   0.0000
    81 C32      3.8090   7.6833   2.1853   C.ar      2 RES2   0.0000
    82 H39      4.4136   7.3107   2.8153   H         2 RES2   0.0000
    83 C33      3.7134   7.0856   0.9185   C.ar      2 RES2   0.0000
    84 H40      4.2578   6.3356   0.7035   H         2 RES2   0.0000
    85 C34      2.8320   7.5847  -0.0109   C.ar      2 RES2   0.0000
    86 H41      2.7551   7.1835  -0.8681   H         2 RES2   0.0000
    87 C35      2.0449   8.6965   0.3266   C.ar      2 RES2   0.0000
    88 H42      1.4235   9.0449  -0.3007   H         2 RES2   0.0000
    89 C36      2.1764   9.2880   1.5825   C.ar      2 RES2   0.0000
    90 H43      1.6487  10.0507   1.7825   H         2 RES2   0.0000
    91 C37      4.6264  10.5525   3.7977   C.ar      2 RES2   0.0000
    92 C38      5.0034  11.4778   4.8019   C.ar      2 RES2   0.0000
    93 H44      4.4696  11.5383   5.5843   H         2 RES2   0.0000
    94 C39      6.1006  12.2917   4.6999   C.ar      2 RES2   0.0000
    95 H45      6.3190  12.8755   5.4169   H         2 RES2   0.0000
    96 C40      6.8980  12.2709   3.5582   C.ar      2 RES2   0.0000
    97 H46      7.6591  12.8332   3.4847   H         2 RES2   0.0000
    98 C41      6.5532  11.4092   2.5336   C.ar      2 RES2   0.0000
    99 H47      7.0741  11.3841   1.7403   H         2 RES2   0.0000
   100 C42      5.4481  10.5795   2.6615   C.ar      2 RES2   0.0000
   101 H48      5.2363   9.9968   1.9404   H         2 RES2   0.0000
   102 C43      3.5951   8.4649   5.1992   C.ar      2 RES2   0.0000
   103 C44      4.6587   8.5500   6.1286   C.ar      2 RES2   0.0000
   104 H49      5.3274   9.2144   6.0020   H         2 RES2   0.0000
   105 C45      4.7570   7.6960   7.2212   C.ar      2 RES2   0.0000
   106 H50      5.4824   7.7924   7.8267   H         2 RES2   0.0000
   107 C46      3.8071   6.7025   7.4403   C.ar      2 RES2   0.0000
   108 H51      3.8572   6.1468   8.2091   H         2 RES2   0.0000
   109 C47      2.7935   6.5418   6.5245   C.ar      2 RES2   0.0000
   110 H52      2.1556   5.8462   6.6388   H         2 RES2   0.0000
   111 C48      2.7042   7.3978   5.4251   C.ar      2 RES2   0.0000
   112 H53      2.0058   7.2529   4.7978   H         2 RES2   0.0000
   113 C49      1.9924  10.4739   4.3719   C.ar      2 RES2   0.0000
   114 C50      0.8928  10.0203   5.1081   C.ar      2 RES2   0.0000
   115 H54      0.9473   9.1605   5.5054   H         2 RES2   0.0000
   116 C51     -0.2675  10.7452   5.2958   C.ar      2 RES2   0.0000
   117 H55     -0.9779  10.3783   5.8075   H         2 RES2   0.0000
   118 C52     -0.3975  12.0000   4.7420   C.ar      2 RES2   0.0000
   119 H56     -1.1920  12.5056   4.8631   H         2 RES2   0.0000
   120 C53      0.6700  12.5079   3.9991   C.ar      2 RES2   0.0000
   121 H57      0.6026  13.3688   3.6004   H         2 RES2   0.0000
   122 C54      1.8200  11.7622   3.8426   C.ar      2 RES2   0.0000
   123 H58      2.5368  12.1433   3.3473   H         2 RES2   0.0000
   124 B1       3.3223   9.5686   3.9936   B         2 RES2  -1.0000
   125 C55      9.2543  18.6231   9.0623   C.ar      3 RES3   0.0000
   126 C56     10.0043  17.4909   8.6554   C.ar      3 RES3   0.0000
   127 H59     10.7375  17.2149   9.1942   H         3 RES3   0.0000
   128 C57      9.7213  16.7694   7.5151   C.ar      3 RES3   0.0000
   129 H60     10.2503  16.0125   7.2933   H         3 RES3   0.0000
   130 C58      8.6793  17.1355   6.6960   C.ar      3 RES3   0.0000
   131 H61      8.4996  16.6561   5.8973   H         3 RES3   0.0000
   132 C59      7.8960  18.2192   7.0579   C.ar      3 RES3   0.0000
   133 H62      7.1603  18.4751   6.5137   H         3 RES3   0.0000
   134 C60      8.1867  18.9383   8.2227   C.ar      3 RES3   0.0000
   135 H63      7.6307  19.6736   8.4513   H         3 RES3   0.0000
   136 C61     11.0582  20.3677  10.0474   C.ar      3 RES3   0.0000
   137 C62     11.9671  20.0455   9.0146   C.ar      3 RES3   0.0000
   138 H64     11.7563  19.3307   8.4254   H         3 RES3   0.0000
   139 C63     13.1800  20.7516   8.8282   C.ar      3 RES3   0.0000
   140 H65     13.7727  20.5022   8.1275   H         3 RES3   0.0000
   141 C64     13.4944  21.7848   9.6542   C.ar      3 RES3   0.0000
   142 H66     14.3107  22.2557   9.5358   H         3 RES3   0.0000
   143 C65     12.6240  22.1559  10.6679   C.ar      3 RES3   0.0000
   144 H67     12.8400  22.8839  11.2394   H         3 RES3   0.0000
   145 C66     11.4471  21.4634  10.8420   C.ar      3 RES3   0.0000
   146 H68     10.8634  21.7393  11.5387   H         3 RES3   0.0000
   147 C67     10.0305  18.4408  11.6176   C.ar      3 RES3   0.0000
   148 C68     11.1803  18.4736  12.4109   C.ar      3 RES3   0.0000
   149 H69     11.8594  19.1033  12.1946   H         3 RES3   0.0000
   150 C69     11.3826  17.6288  13.5063   C.ar      3 RES3   0.0000
   151 H70     12.1864  17.6812  14.0097   H         3 RES3   0.0000
   152 C70     10.3888  16.7051  13.8546   C.ar      3 RES3   0.0000
   153 H71     10.4993  16.1513  14.6207   H         3 RES3   0.0000
   154 C71      9.2493  16.6002  13.0818   C.ar      3 RES3   0.0000
   155 H72      8.5868  15.9509  13.2899   H         3 RES3   0.0000
   156 C72      9.0829  17.4600  11.9891   C.ar      3 RES3   0.0000
   157 H73      8.2920  17.3806  11.4707   H         3 RES3   0.0000
   158 C73      8.4855  20.5230  10.8298   C.ar      3 RES3   0.0000
   159 C74      8.1979  21.6684  10.0732   C.ar      3 RES3   0.0000
   160 H74      8.7893  21.9011   9.3670   H         3 RES3   0.0000
   161 C75      7.1005  22.4781  10.2978   C.ar      3 RES3   0.0000
   162 H75      6.9409  23.2269   9.7331   H         3 RES3   0.0000
   163 C76      6.2365  22.2075  11.3373   C.ar      3 RES3   0.0000
   164 H76      5.4792  22.7605  11.4965   H         3 RES3   0.0000
   165 C77      6.4996  21.1061  12.1483   C.ar      3 RES3   0.0000
   166 H77      5.9236  20.9069  12.8749   H         3 RES3   0.0000
   167 C78      7.5997  20.3026  11.8979   C.ar      3 RES3   0.0000
   168 H78      7.7643  19.5657  12.4762   H         3 RES3   0.0000
   169 B2       9.6988  19.4929  10.3848   B         3 RES3  -1.0000
@<TRIPOS>BOND
     1     1     6    1
     2     2    21    1
     3     3    33    1
     4     4    55    1
     5     5    67    1
     6     6    20    1
     7     7     1    1
     8     8     1    1
     9     9     1    1
    10    10     1    1
    11    11     1    1
    12    12    13    1
    13    14    12    1
    14    15    12    1
    15    16    17    1
    16    18    16    1
    17    19    16    1
    18    20    12    1
    19    21    20    1
    20    22    21    1
    21    23    21    1
    22    24     2    1
    23    25     7   ar
    24    26    25   ar
    25    27    26    1
    26    28    26   ar
    27    29    28    1
    28    30    28   ar
    29    31    30    1
    30    32     7   ar
    31    33     8    2
    32    34     3    1
    33    35    34    1
    34    36    34    1
    35    37     8    1
    36    38    37    1
    37    39    38    1
    38    40    38    1
    39    41    38    1
    40    42    37    1
    41    43    42    1
    42    44    42    1
    43    45    42    1
    44    46    47    1
    45    48    46    1
    46    49    46    1
    47    50    51    1
    48    52    50    1
    49    53    50    1
    50    54     9    1
    51    55    54    1
    52    56    55    1
    53    57    55    1
    54    58     4    1
    55    59    10   ar
    56    60    59   ar
    57    61    60    1
    58    62    60   ar
    59    63    62    1
    60    64    62   ar
    61    65    64    1
    62    66    10   ar
    63    67    11    2
    64    68     5    1
    65    69    68    1
    66    70    68    1
    67    71    11    1
    68    72    71    1
    69    73    72    1
    70    74    72    1
    71    75    72    1
    72    76    71    1
    73    77    76    1
    74    78    76    1
    75    79    76    1
    76     6    24    2
    77     9    58    2
    78    16    20    1
    79    24    25    1
    80    30    32   ar
    81    32    33    1
    82    34    37    1
    83    46    54    1
    84    50    54    1
    85    58    59    1
    86    64    66   ar
    87    66    67    1
    88    68    71    1
    89    80    81   ar
    90    81    82    1
    91    83    81   ar
    92    84    83    1
    93    85    83   ar
    94    86    85    1
    95    87    85   ar
    96    88    87    1
    97    89    80   ar
    98    90    89    1
    99    91    92   ar
   100    92    93    1
   101    94    92   ar
   102    95    94    1
   103    96    94   ar
   104    97    96    1
   105    98    96   ar
   106    99    98    1
   107   100    91   ar
   108   101   100    1
   109   102   103   ar
   110   103   104    1
   111   105   103   ar
   112   106   105    1
   113   107   105   ar
   114   108   107    1
   115   109   107   ar
   116   110   109    1
   117   111   102   ar
   118   112   111    1
   119   113   114   ar
   120   114   115    1
   121   116   114   ar
   122   117   116    1
   123   118   116   ar
   124   119   118    1
   125   120   118   ar
   126   121   120    1
   127   122   113   ar
   128   123   122    1
   129   124    80    1
   130    87    89   ar
   131    91   124    1
   132    98   100   ar
   133   102   124    1
   134   109   111   ar
   135   113   124    1
   136   120   122   ar
   137   125   126   ar
   138   126   127    1
   139   128   126   ar
   140   129   128    1
   141   130   128   ar
   142   131   130    1
   143   132   130   ar
   144   133   132    1
   145   134   125   ar
   146   135   134    1
   147   136   137   ar
   148   137   138    1
   149   139   137   ar
   150   140   139    1
   151   141   139   ar
   152   142   141    1
   153   143   141   ar
   154   144   143    1
   155   145   136   ar
   156   146   145    1
   157   147   148   ar
   158   148   149    1
   159   150   148   ar
   160   151   150    1
   161   152   150   ar
   162   153   152    1
   163   154   152   ar
   164   155   154    1
   165   156   147   ar
   166   157   156    1
   167   158   159   ar
   168   159   160    1
   169   161   159   ar
   170   162   161    1
   171   163   161   ar
   172   164   163    1
   173   165   163   ar
   174   166   165    1
   175   167   158   ar
   176   168   167    1
   177   169   125    1
   178   132   134   ar
   179   136   169    1
   180   143   145   ar
   181   147   169    1
   182   154   156   ar
   183   158   169    1
   184   165   167   ar
@<TRIPOS>SUBSTRUCTURE
     1 RES1        1 GROUP             0 ****  ****    0  
     2 RES2       80 GROUP             0 ****  ****    0  
     3 RES3      125 GROUP             0 ****  ****    0  
@<TRIPOS>CRYSIN
   12.8320   38.5380   13.6070   90.0000   90.0900   90.0000   231     1
