@<TRIPOS>MOLECULE
DULYEQ01
    85    88     1     0     0
SMALL
NO_CHARGES
****
Generated from the CSD

@<TRIPOS>ATOM
     1 Fe1     -2.0634   3.6094   4.7767   Fe        1 RES1   0.0000
     2 F1      -0.7214   6.4653   8.4654   F         1 RES1   0.0000
     3 F2       0.4624   4.6838   8.5886   F         1 RES1   0.0000
     4 F3       1.3480   6.5340   7.9399   F         1 RES1   0.0000
     5 O1      -0.9005   4.4448   6.3034   O.co2     1 RES1   0.0000
     6 O2       0.2356   6.2542   5.5267   O.co2     1 RES1   0.0000
     7 N1      -1.4381   1.6169   5.5697   N.2       1 RES1   0.0000
     8 N2       0.3513   0.6469   6.7763   N.pl3     1 RES1   0.0000
     9 N3       0.0137   0.1647   4.5255   N.pl3     1 RES1   0.0000
    10 N4      -3.2517   2.6617   6.3836   N.ar      1 RES1   0.0000
    11 N5      -2.5934   0.5786   7.3906   N.ar      1 RES1   0.0000
    12 C1      -0.3723   0.7924   5.6557   C.cat     1 RES1   0.0000
    13 C2       1.0227  -0.6091   7.1451   C.3       1 RES1   0.0000
    14 H1       0.9470  -1.2489   6.4066   H         1 RES1   0.0000
    15 H2       0.5994  -0.9827   7.9466   H         1 RES1   0.0000
    16 H3       1.9684  -0.4316   7.3285   H         1 RES1   0.0000
    17 C3       0.2171   1.5933   7.8902   C.3       1 RES1   0.0000
    18 H4      -0.1390   2.4436   7.5559   H         1 RES1   0.0000
    19 H5       1.0954   1.7450   8.2982   H         1 RES1   0.0000
    20 H6      -0.3951   1.2236   8.5609   H         1 RES1   0.0000
    21 C4       1.4062  -0.2092   4.2312   C.3       1 RES1   0.0000
    22 H7       2.0056   0.2375   4.8646   H         1 RES1   0.0000
    23 H8       1.6327   0.0660   3.3179   H         1 RES1   0.0000
    24 H9       1.5082  -1.1804   4.3144   H         1 RES1   0.0000
    25 C5      -0.9368  -0.0193   3.4268   C.3       1 RES1   0.0000
    26 H10     -1.8523   0.0502   3.7708   H         1 RES1   0.0000
    27 H11     -0.8052  -0.9038   3.0256   H         1 RES1   0.0000
    28 H12     -0.7895   0.6721   2.7476   H         1 RES1   0.0000
    29 C6      -2.4218   1.5773   6.5098   C.ar      1 RES1   0.0000
    30 C7      -4.3425   2.6959   7.1403   C.ar      1 RES1   0.0000
    31 C8      -5.3089   3.8507   6.9014   C.3       1 RES1   0.0000
    32 H13     -4.8397   4.5793   6.4457   H         1 RES1   0.0000
    33 H14     -5.6528   4.1703   7.7613   H         1 RES1   0.0000
    34 H15     -6.0544   3.5422   6.3454   H         1 RES1   0.0000
    35 C9      -4.5848   1.6969   8.0775   C.ar      1 RES1   0.0000
    36 H16     -5.3555   1.7284   8.6325   H         1 RES1   0.0000
    37 C10     -3.6795   0.6552   8.1835   C.ar      1 RES1   0.0000
    38 C11     -3.8728  -0.4709   9.1675   C.3       1 RES1   0.0000
    39 H17     -4.4119  -1.1774   8.7539   H         1 RES1   0.0000
    40 H18     -4.3314  -0.1342   9.9643   H         1 RES1   0.0000
    41 H19     -2.9990  -0.8346   9.4226   H         1 RES1   0.0000
    42 C12     -0.1578   5.4709   6.3760   C.2       1 RES1   0.0000
    43 C13      0.2434   5.7894   7.8453   C.3       1 RES1   0.0000
    44 F1A     -3.4054   0.7534   1.0881   F         1 RES1   0.0000
    45 F2A     -4.5892   2.5350   0.9649   F         1 RES1   0.0000
    46 F3A     -5.4747   0.6848   1.6136   F         1 RES1   0.0000
    47 O1A     -3.2262   2.7739   3.2501   O.co2     1 RES1   0.0000
    48 O2A     -4.3623   0.9646   4.0268   O.co2     1 RES1   0.0000
    49 N1A     -2.6886   5.6019   3.9838   N.2       1 RES1   0.0000
    50 N2A     -4.4780   6.5718   2.7772   N.pl3     1 RES1   0.0000
    51 N3A     -4.1404   7.0540   5.0280   N.pl3     1 RES1   0.0000
    52 N4A     -0.8750   4.5571   3.1699   N.ar      1 RES1   0.0000
    53 N5A     -1.5334   6.6402   2.1629   N.ar      1 RES1   0.0000
    54 C1A     -3.7544   6.4264   3.8978   C.cat     1 RES1   0.0000
    55 C2A     -5.1495   7.8278   2.4084   C.3       1 RES1   0.0000
    56 H1A     -5.0737   8.4676   3.1469   H         1 RES1   0.0000
    57 H2A     -4.7261   8.2014   1.6069   H         1 RES1   0.0000
    58 H3A     -6.0952   7.6504   2.2250   H         1 RES1   0.0000
    59 C3A     -4.3438   5.6254   1.6633   C.3       1 RES1   0.0000
    60 H4A     -3.9877   4.7752   1.9976   H         1 RES1   0.0000
    61 H5A     -5.2222   5.4737   1.2553   H         1 RES1   0.0000
    62 H6A     -3.7317   5.9952   0.9926   H         1 RES1   0.0000
    63 C4A     -5.5329   7.4279   5.3223   C.3       1 RES1   0.0000
    64 H7A     -6.1324   6.9812   4.6889   H         1 RES1   0.0000
    65 H8A     -5.7594   7.1528   6.2356   H         1 RES1   0.0000
    66 H9A     -5.6350   8.3992   5.2391   H         1 RES1   0.0000
    67 C5A     -3.1900   7.2380   6.1267   C.3       1 RES1   0.0000
    68 H10A    -2.2745   7.1686   5.7827   H         1 RES1   0.0000
    69 H11A    -3.3216   8.1225   6.5279   H         1 RES1   0.0000
    70 H12A    -3.3372   6.5467   6.8059   H         1 RES1   0.0000
    71 C6A     -1.7050   5.6414   3.0437   C.ar      1 RES1   0.0000
    72 C7A      0.2158   4.5228   2.4132   C.ar      1 RES1   0.0000
    73 C8A      1.1821   3.3681   2.6521   C.3       1 RES1   0.0000
    74 H13A     0.7129   2.6394   3.1078   H         1 RES1   0.0000
    75 H14A     1.5260   3.0484   1.7922   H         1 RES1   0.0000
    76 H15A     1.9277   3.6765   3.2081   H         1 RES1   0.0000
    77 C9A      0.4580   5.5218   1.4760   C.ar      1 RES1   0.0000
    78 H16A     1.2288   5.4903   0.9210   H         1 RES1   0.0000
    79 C10A    -0.4473   6.5635   1.3700   C.ar      1 RES1   0.0000
    80 C11A    -0.2540   7.6897   0.3860   C.3       1 RES1   0.0000
    81 H17A     0.2851   8.3962   0.7996   H         1 RES1   0.0000
    82 H18A     0.2046   7.3529  -0.4108   H         1 RES1   0.0000
    83 H19A    -1.1278   8.0534   0.1309   H         1 RES1   0.0000
    84 C12A    -3.9689   1.7478   3.1775   C.2       1 RES1   0.0000
    85 C13A    -4.3702   1.4293   1.7082   C.3       1 RES1   0.0000
@<TRIPOS>BOND
     1     1     5    1
     2     2    43    1
     3     3    43    1
     4     4    43    1
     5     5    42    1
     6     6    42    2
     7     7     1    1
     8     8    12    1
     9     9    12    1
    10    10     1    1
    11    11    29   ar
    12    12     7    2
    13    13     8    1
    14    14    13    1
    15    15    13    1
    16    16    13    1
    17    17     8    1
    18    18    17    1
    19    19    17    1
    20    20    17    1
    21    21     9    1
    22    22    21    1
    23    23    21    1
    24    24    21    1
    25    25     9    1
    26    26    25    1
    27    27    25    1
    28    28    25    1
    29    29     7    1
    30    30    10   ar
    31    31    30    1
    32    32    31    1
    33    33    31    1
    34    34    31    1
    35    35    30   ar
    36    36    35    1
    37    37    11   ar
    38    38    37    1
    39    39    38    1
    40    40    38    1
    41    41    38    1
    42    42    43    1
    43    44    85    1
    44    45    85    1
    45    46    85    1
    46    47     1    1
    47    48    84    2
    48    49     1    1
    49    50    54    1
    50    51    54    1
    51    52     1    1
    52    53    71   ar
    53    54    49    2
    54    55    50    1
    55    56    55    1
    56    57    55    1
    57    58    55    1
    58    59    50    1
    59    60    59    1
    60    61    59    1
    61    62    59    1
    62    63    51    1
    63    64    63    1
    64    65    63    1
    65    66    63    1
    66    67    51    1
    67    68    67    1
    68    69    67    1
    69    70    67    1
    70    71    49    1
    71    72    52   ar
    72    73    72    1
    73    74    73    1
    74    75    73    1
    75    76    73    1
    76    77    72   ar
    77    78    77    1
    78    79    53   ar
    79    80    79    1
    80    81    80    1
    81    82    80    1
    82    83    80    1
    83    84    47    1
    84    85    84    1
    85    10    29   ar
    86    35    37   ar
    87    52    71   ar
    88    77    79   ar
@<TRIPOS>SUBSTRUCTURE
     1 RES1        1 GROUP             0 ****  ****    0  
@<TRIPOS>CRYSIN
    8.8440   10.0380   10.3780  103.3350  106.6620   96.5850     2     1
