@<TRIPOS>MOLECULE
DUSMUB
    95   101     4     0     0
SMALL
USER_CHARGES
****
Generated from the CSD

@<TRIPOS>ATOM
     1 Fe1      3.8010   4.1104  14.1090   Fe        1 RES1   2.0000
     2 C1       4.1465   5.6325  10.9144   C.3       1 RES1   0.0000
     3 C2       2.7015   6.0488  10.6517   C.3       1 RES1   0.0000
     4 H1       2.0954   5.3659  11.0092   H         1 RES1   0.0000
     5 H2       2.5575   6.1412   9.6854   H         1 RES1   0.0000
     6 H3       2.5236   6.9070  11.0916   H         1 RES1   0.0000
     7 C3       4.4928   4.3287  10.2213   C.3       1 RES1   0.0000
     8 H4       5.3706   4.0178  10.5282   H         1 RES1   0.0000
     9 H5       4.5175   4.4704   9.2526   H         1 RES1   0.0000
    10 H6       3.8151   3.6550  10.4343   H         1 RES1   0.0000
    11 C4       5.1421   6.7533  10.5488   C.3       1 RES1   0.0000
    12 H7       5.8885   6.3971  10.0061   H         1 RES1   0.0000
    13 H8       4.6901   7.4722  10.0381   H         1 RES1   0.0000
    14 C5       5.1314   6.4298  12.7603   C.2       1 RES1   0.0000
    15 C6       5.5117   6.6217  14.1690   C.ar      1 RES1   0.0000
    16 C7       6.2801   7.6536  14.6804   C.ar      1 RES1   0.0000
    17 H9       6.6366   8.3277  14.1125   H         1 RES1   0.0000
    18 C8       6.5136   7.6720  16.0528   C.ar      1 RES1   0.0000
    19 H10      7.0174   8.3774  16.4393   H         1 RES1   0.0000
    20 C9       6.0092   6.6605  16.8511   C.ar      1 RES1   0.0000
    21 H11      6.1695   6.6549  17.7883   H         1 RES1   0.0000
    22 C10      5.2626   5.6528  16.2511   C.ar      1 RES1   0.0000
    23 C11      4.6842   4.4625  16.8976   C.2       1 RES1   0.0000
    24 C12      4.4400   2.8789  18.4314   C.3       1 RES1   0.0000
    25 H12      3.9302   2.8281  19.2792   H         1 RES1   0.0000
    26 H13      5.1928   2.2380  18.4708   H         1 RES1   0.0000
    27 C13      3.5316   2.5781  17.2302   C.3       1 RES1   0.0000
    28 C14      3.7413   1.1815  16.6691   C.3       1 RES1   0.0000
    29 H14      3.2193   1.0789  15.8462   H         1 RES1   0.0000
    30 H15      3.4478   0.5175  17.3280   H         1 RES1   0.0000
    31 H16      4.6918   1.0484  16.4714   H         1 RES1   0.0000
    32 C15      2.0666   2.8172  17.5661   C.3       1 RES1   0.0000
    33 H17      1.9702   3.6874  18.0059   H         1 RES1   0.0000
    34 H18      1.7501   2.1101  18.1662   H         1 RES1   0.0000
    35 H19      1.5369   2.8090  16.7417   H         1 RES1   0.0000
    36 C16      6.7189   2.2468  13.5310   C.3       1 RES1   0.0000
    37 C17      7.0750   1.9191  14.9658   C.3       1 RES1   0.0000
    38 H20      7.9957   1.5869  15.0057   H         1 RES1   0.0000
    39 H21      6.4640   1.2298  15.3034   H         1 RES1   0.0000
    40 H22      6.9920   2.7250  15.5164   H         1 RES1   0.0000
    41 C18      7.5455   3.3752  12.9994   C.3       1 RES1   0.0000
    42 H23      7.2798   3.5709  12.0787   H         1 RES1   0.0000
    43 H24      8.4934   3.1241  13.0200   H         1 RES1   0.0000
    44 H25      7.4084   4.1705  13.5559   H         1 RES1   0.0000
    45 C19      6.8375   1.0195  12.6293   C.3       1 RES1   0.0000
    46 H26      7.3170   1.2451  11.7924   H         1 RES1   0.0000
    47 H27      7.3255   0.2922  13.0910   H         1 RES1   0.0000
    48 C20      4.7147   1.6493  12.7562   C.2       1 RES1   0.0000
    49 C21      3.2917   1.7013  12.3751   C.ar      1 RES1   0.0000
    50 C22      2.6497   0.9042  11.4388   C.ar      1 RES1   0.0000
    51 H28      3.1042   0.1852  11.0161   H         1 RES1   0.0000
    52 C23      1.3255   1.1874  11.1356   C.ar      1 RES1   0.0000
    53 H29      0.8615   0.6588  10.4962   H         1 RES1   0.0000
    54 C24      0.6786   2.2432  11.7663   C.ar      1 RES1   0.0000
    55 H30     -0.2302   2.4424  11.5772   H         1 RES1   0.0000
    56 C25      1.3964   2.9944  12.6772   C.ar      1 RES1   0.0000
    57 C26      0.9263   4.1700  13.4242   C.2       1 RES1   0.0000
    58 C27     -0.5474   5.5493  14.3243   C.3       1 RES1   0.0000
    59 H31     -1.0172   5.1521  15.0996   H         1 RES1   0.0000
    60 H32     -1.0731   6.3188  13.9911   H         1 RES1   0.0000
    61 C28      0.8923   5.9841  14.7095   C.3       1 RES1   0.0000
    62 C29      1.3067   7.2415  14.0115   C.3       1 RES1   0.0000
    63 H33      2.2410   7.4417  14.2270   H         1 RES1   0.0000
    64 H34      0.7380   7.9821  14.3071   H         1 RES1   0.0000
    65 H35      1.2136   7.1228  13.0429   H         1 RES1   0.0000
    66 C30      1.0257   6.0966  16.2124   C.3       1 RES1   0.0000
    67 H36      0.7041   5.2705  16.6317   H         1 RES1   0.0000
    68 H37      0.4925   6.8535  16.5310   H         1 RES1   0.0000
    69 H38      1.9668   6.2367  16.4462   H         1 RES1   0.0000
    70 N1       4.3452   5.4882  12.3982   N.2       1 RES1   0.0000
    71 N2       5.0068   5.6478  14.9369   N.ar      1 RES1   0.0000
    72 N3       3.9776   3.6225  16.2481   N.2       1 RES1   0.0000
    73 N4       5.2627   2.5896  13.4270   N.2       1 RES1   0.0000
    74 N5       2.6768   2.7278  12.9657   N.ar      1 RES1   0.0000
    75 N6       1.7004   4.8406  14.1885   N.2       1 RES1   0.0000
    76 O1       5.6327   7.2608  11.8426   O.3       1 RES1   0.0000
    77 O2       4.9291   4.2486  18.1953   O.3       1 RES1   0.0000
    78 O3       5.4506   0.6187  12.3444   O.3       1 RES1   0.0000
    79 O4      -0.3471   4.5580  13.2699   O.3       1 RES1   0.0000
    80 Cl1      7.8669   8.4056   7.6950   Cl        2 RES2   0.0000
    81 O5       7.7705   7.0124   7.3611   O.2       2 RES2   0.0000
    82 O6       7.6166   9.2109   6.5407   O.2       2 RES2   0.0000
    83 O7       9.1885   8.6848   8.1853   O.2       2 RES2   0.0000
    84 O8       6.9010   8.7098   8.7167   O.3       2 RES2  -1.0000
    85 Cl2      6.1852   0.3474   8.8685   Cl        3 RES3   0.0000
    86 O9       5.0295  -0.4845   8.6612   O.2       3 RES3   0.0000
    87 O10      6.7928   0.6561   7.6036   O.2       3 RES3   0.0000
    88 O11      5.7781   1.5767   9.5059   O.3       3 RES3  -1.0000
    89 O12      7.1283  -0.3424   9.6980   O.2       3 RES3   0.0000
    90 C31      2.9244   7.5574  19.0956   C.3       4 RES4   0.0000
    91 H39      3.1753   8.1769  19.8129   H         4 RES4   0.0000
    92 H40      2.6810   8.0661  18.2944   H         4 RES4   0.0000
    93 H41      3.6814   6.9700  18.8922   H         4 RES4   0.0000
    94 C32      1.7894   6.7557  19.5232   C.1       4 RES4   0.0000
    95 N7       0.9030   6.1380  19.8742   N.1       4 RES4   0.0000
@<TRIPOS>BOND
     1     1    70    1
     2     2     3    1
     3     3     4    1
     4     5     3    1
     5     6     3    1
     6     7     2    1
     7     8     7    1
     8     9     7    1
     9    10     7    1
    10    11     2    1
    11    12    11    1
    12    13    11    1
    13    14    15    1
    14    15    16   ar
    15    16    17    1
    16    18    16   ar
    17    19    18    1
    18    20    18   ar
    19    21    20    1
    20    22    20   ar
    21    23    22    1
    22    24    25    1
    23    26    24    1
    24    27    24    1
    25    28    27    1
    26    29    28    1
    27    30    28    1
    28    31    28    1
    29    32    27    1
    30    33    32    1
    31    34    32    1
    32    35    32    1
    33    36    37    1
    34    37    38    1
    35    39    37    1
    36    40    37    1
    37    41    36    1
    38    42    41    1
    39    43    41    1
    40    44    41    1
    41    45    36    1
    42    46    45    1
    43    47    45    1
    44    48    49    1
    45    49    50   ar
    46    50    51    1
    47    52    50   ar
    48    53    52    1
    49    54    52   ar
    50    55    54    1
    51    56    54   ar
    52    57    56    1
    53    58    59    1
    54    60    58    1
    55    61    58    1
    56    62    61    1
    57    63    62    1
    58    64    62    1
    59    65    62    1
    60    66    61    1
    61    67    66    1
    62    68    66    1
    63    69    66    1
    64    70     2    1
    65    71     1    1
    66    72     1    1
    67    73     1    1
    68    74     1    1
    69    75     1    1
    70    76    11    1
    71    77    23    1
    72    78    45    1
    73    79    57    1
    74    14    70    2
    75    14    76    1
    76    15    71   ar
    77    22    71   ar
    78    23    72    2
    79    24    77    1
    80    27    72    1
    81    36    73    1
    82    48    73    2
    83    48    78    1
    84    49    74   ar
    85    56    74   ar
    86    57    75    2
    87    58    79    1
    88    61    75    1
    89    80    81    2
    90    82    80    2
    91    83    80    2
    92    84    80    1
    93    85    86    2
    94    87    85    2
    95    88    85    1
    96    89    85    2
    97    90    91    1
    98    92    90    1
    99    93    90    1
   100    94    90    1
   101    95    94    3
@<TRIPOS>SUBSTRUCTURE
     1 RES1        1 GROUP             0 ****  ****    0  
     2 RES2       80 GROUP             0 ****  ****    0  
     3 RES3       85 GROUP             0 ****  ****    0  
     4 RES4       90 GROUP             0 ****  ****    0  
@<TRIPOS>CRYSIN
   16.9258   19.0959   22.9024   90.0000   90.0000   90.0000    61     1
