@<TRIPOS>MOLECULE
DUSMAH
    89    96     3     0     0
SMALL
USER_CHARGES
****
Generated from the CSD

@<TRIPOS>ATOM
     1 Fe1      1.4499   3.8137  15.8053   Fe        1 RES1   2.0000
     2 C1       1.8151   7.0030  13.3826   C.3       1 RES1   0.0000
     3 H1       1.4875   7.1678  14.2812   H         1 RES1   0.0000
     4 H2       1.5600   7.7407  12.8056   H         1 RES1   0.0000
     5 H3       2.7813   6.9266  13.4004   H         1 RES1   0.0000
     6 C2      -0.2830   5.8131  12.8311   C.3       1 RES1   0.0000
     7 H4      -0.6552   4.9709  12.5248   H         1 RES1   0.0000
     8 H5      -0.5535   6.5246  12.2286   H         1 RES1   0.0000
     9 H6      -0.6106   6.0060  13.7247   H         1 RES1   0.0000
    10 C3       1.2157   5.7212  12.8567   C.3       1 RES1   0.0000
    11 C4       1.8054   5.3367  11.4936   C.3       1 RES1   0.0000
    12 H7       1.1014   5.0271  10.8858   H         1 RES1   0.0000
    13 H8       2.2599   6.1025  11.0849   H         1 RES1   0.0000
    14 C5       2.4760   3.8911  13.0165   C.2       1 RES1   0.0000
    15 C6       3.1145   2.6814  13.5587   C.ar      1 RES1   0.0000
    16 C7       3.9384   1.7910  12.8934   C.ar      1 RES1   0.0000
    17 H9       4.1642   1.9256  11.9912   H         1 RES1   0.0000
    18 C8       4.4194   0.7055  13.5842   C.ar      1 RES1   0.0000
    19 H10      4.9951   0.0965  13.1605   H         1 RES1   0.0000
    20 C9       4.0611   0.5106  14.8990   C.ar      1 RES1   0.0000
    21 H11      4.3775  -0.2372  15.3713   H         1 RES1   0.0000
    22 C10      3.2302   1.4287  15.5133   C.ar      1 RES1   0.0000
    23 C11      2.6948   1.3988  16.8719   C.2       1 RES1   0.0000
    24 C12      2.1930   0.5668  18.8689   C.3       1 RES1   0.0000
    25 H12      2.7590   0.5347  19.6654   H         1 RES1   0.0000
    26 H13      1.5043  -0.1266  18.9429   H         1 RES1   0.0000
    27 C13      1.5503   1.9538  18.7144   C.3       1 RES1   0.0000
    28 C14      2.1456   2.9648  19.6511   C.3       1 RES1   0.0000
    29 H14      3.1047   3.0070  19.5122   H         1 RES1   0.0000
    30 H15      1.9629   2.7035  20.5666   H         1 RES1   0.0000
    31 H16      1.7538   3.8352  19.4790   H         1 RES1   0.0000
    32 C15      0.0418   1.9116  18.8357   C.3       1 RES1   0.0000
    33 H17     -0.3206   2.7940  18.6570   H         1 RES1   0.0000
    34 H18     -0.2021   1.6382  19.7343   H         1 RES1   0.0000
    35 H19     -0.3165   1.2784  18.1974   H         1 RES1   0.0000
    36 C16      4.7414   5.8271  15.5270   C.3       1 RES1   0.0000
    37 H20      4.7749   4.9126  15.2054   H         1 RES1   0.0000
    38 H21      5.6434   6.1709  15.6164   H         1 RES1   0.0000
    39 H22      4.2479   6.3719  14.8939   H         1 RES1   0.0000
    40 C17      4.7442   4.9608  17.8502   C.3       1 RES1   0.0000
    41 H23      4.2339   4.9327  18.6748   H         1 RES1   0.0000
    42 H24      5.6336   5.3005  18.0315   H         1 RES1   0.0000
    43 H25      4.8083   4.0683  17.4800   H         1 RES1   0.0000
    44 C18      4.0527   5.8653  16.8648   C.3       1 RES1   0.0000
    45 C19      3.8910   7.2784  17.4213   C.3       1 RES1   0.0000
    46 H26      4.2200   7.3226  18.3455   H         1 RES1   0.0000
    47 H27      4.3943   7.9196  16.8776   H         1 RES1   0.0000
    48 C20      1.8932   6.4356  17.0144   C.2       1 RES1   0.0000
    49 C21      0.4252   6.3650  16.9682   C.ar      1 RES1   0.0000
    50 C22     -0.4782   7.3610  17.3054   C.ar      1 RES1   0.0000
    51 H28     -0.1868   8.1910  17.6358   H         1 RES1   0.0000
    52 C23     -1.8179   7.0894  17.1400   C.ar      1 RES1   0.0000
    53 H29     -2.4523   7.7528  17.3396   H         1 RES1   0.0000
    54 C24     -2.2445   5.8613  16.6879   C.ar      1 RES1   0.0000
    55 H30     -3.1591   5.6724  16.5942   H         1 RES1   0.0000
    56 C25     -1.2854   4.9182  16.3772   C.ar      1 RES1   0.0000
    57 C26     -1.4917   3.5875  15.8056   C.2       1 RES1   0.0000
    58 C27     -2.5220   1.6824  15.3305   C.3       1 RES1   0.0000
    59 H31     -3.1925   1.4131  14.6693   H         1 RES1   0.0000
    60 H32     -2.5735   1.0754  16.0989   H         1 RES1   0.0000
    61 C28     -1.1125   1.6710  14.7175   C.3       1 RES1   0.0000
    62 C29     -1.1460   1.8975  13.2179   C.3       1 RES1   0.0000
    63 H33     -1.6423   2.7075  13.0252   H         1 RES1   0.0000
    64 H34     -1.5781   1.1437  12.7877   H         1 RES1   0.0000
    65 H35     -0.2398   1.9859  12.8847   H         1 RES1   0.0000
    66 C30     -0.3290   0.4281  15.0624   C.3       1 RES1   0.0000
    67 H36      0.5549   0.4824  14.6667   H         1 RES1   0.0000
    68 H37     -0.7905  -0.3518  14.7178   H         1 RES1   0.0000
    69 H38     -0.2468   0.3558  16.0274   H         1 RES1   0.0000
    70 N1       1.9211   2.3079  17.3093   N.2       1 RES1   0.0000
    71 N2       2.7799   2.5015  14.8388   N.ar      1 RES1   0.0000
    72 N3       1.6600   4.5897  13.7162   N.2       1 RES1   0.0000
    73 N4       2.6196   5.4412  16.6879   N.2       1 RES1   0.0000
    74 N5       0.0250   5.1757  16.5145   N.ar      1 RES1   0.0000
    75 N6      -0.5214   2.8870  15.3494   N.2       1 RES1   0.0000
    76 O1       2.7492   4.2683  11.7732   O.3       1 RES1   0.0000
    77 O2       2.9932   0.3719  17.6580   O.3       1 RES1   0.0000
    78 O3       2.4774   7.5719  17.3751   O.3       1 RES1   0.0000
    79 O4      -2.7222   3.0720  15.7458   O.3       1 RES1   0.0000
    80 Cl1      1.2158   7.5646  20.9196   Cl        2 RES2   0.0000
    81 O5      -0.0460   7.9940  20.5130   O.2       2 RES2   0.0000
    82 O6       2.1372   8.5990  20.7146   O.2       2 RES2   0.0000
    83 O7       1.6060   6.4255  20.1811   O.3       2 RES2  -1.0000
    84 O8       1.1585   7.2663  22.2709   O.2       2 RES2   0.0000
    85 Cl2      7.7074   0.4591  15.4854   Cl        3 RES3   0.0000
    86 O9       6.7392   0.4462  16.4665   O.3       3 RES3  -1.0000
    87 O10      7.2452  -0.5347  14.6616   O.2       3 RES3   0.0000
    88 O11      8.7955   0.1186  16.2291   O.2       3 RES3   0.0000
    89 O12      7.8182   1.6603  14.9475   O.2       3 RES3   0.0000
@<TRIPOS>BOND
     1     1    70    1
     2     2     3    1
     3     4     2    1
     4     5     2    1
     5     6     7    1
     6     8     6    1
     7     9     6    1
     8    10     2    1
     9    11    10    1
    10    12    11    1
    11    13    11    1
    12    14    15    1
    13    15    16   ar
    14    16    17    1
    15    18    16   ar
    16    19    18    1
    17    20    18   ar
    18    21    20    1
    19    22    20   ar
    20    23    22    1
    21    24    25    1
    22    26    24    1
    23    27    24    1
    24    28    27    1
    25    29    28    1
    26    30    28    1
    27    31    28    1
    28    32    27    1
    29    33    32    1
    30    34    32    1
    31    35    32    1
    32    36    37    1
    33    38    36    1
    34    39    36    1
    35    40    41    1
    36    42    40    1
    37    43    40    1
    38    44    36    1
    39    45    44    1
    40    46    45    1
    41    47    45    1
    42    48    49    1
    43    49    50   ar
    44    50    51    1
    45    52    50   ar
    46    53    52    1
    47    54    52   ar
    48    55    54    1
    49    56    54   ar
    50    57    56    1
    51    58    59    1
    52    60    58    1
    53    61    58    1
    54    62    61    1
    55    63    62    1
    56    64    62    1
    57    65    62    1
    58    66    61    1
    59    67    66    1
    60    68    66    1
    61    69    66    1
    62    70    23    2
    63    71     1    1
    64    72     1    1
    65    73     1    1
    66    74     1    1
    67    75     1    1
    68    76    11    1
    69    77    23    1
    70    78    45    1
    71    79    57    1
    72     6    10    1
    73    10    72    1
    74    14    72    2
    75    14    76    1
    76    15    71   ar
    77    22    71   ar
    78    24    77    1
    79    27    70    1
    80    40    44    1
    81    44    73    1
    82    48    73    2
    83    48    78    1
    84    49    74   ar
    85    56    74   ar
    86    57    75    2
    87    58    79    1
    88    61    75    1
    89    80    81    2
    90    82    80    2
    91    83    80    1
    92    84    80    2
    93    85    86    1
    94    87    85    2
    95    88    85    2
    96    89    85    2
@<TRIPOS>SUBSTRUCTURE
     1 RES1        1 GROUP             0 ****  ****    0  
     2 RES2       80 GROUP             0 ****  ****    0  
     3 RES3       85 GROUP             0 ****  ****    0  
@<TRIPOS>CRYSIN
   13.9412   20.1005   25.5295   90.0000   90.0000   90.0000    61     1
