@<TRIPOS>MOLECULE
DUSMAH01
    89    96     3     0     0
SMALL
USER_CHARGES
****
Generated from the CSD

@<TRIPOS>ATOM
     1 Fe1      8.3546   3.8140  15.6917   Fe        1 RES1   2.0000
     2 C1       8.4484   1.9640  18.5835   C.3       1 RES1   0.0000
     3 C2       9.0930   0.5752  18.7373   C.3       1 RES1   0.0000
     4 H1       9.6614   0.5451  19.5484   H         1 RES1   0.0000
     5 H2       8.3971  -0.1243  18.8108   H         1 RES1   0.0000
     6 C3       9.5949   1.4045  16.7607   C.2       1 RES1   0.0000
     7 C4       6.9331   1.9179  18.7044   C.3       1 RES1   0.0000
     8 H3       6.5657   2.8118  18.5422   H         1 RES1   0.0000
     9 H4       6.6863   1.6233  19.6067   H         1 RES1   0.0000
    10 H5       6.5713   1.2907  18.0429   H         1 RES1   0.0000
    11 C5       9.0473   2.9821  19.5357   C.3       1 RES1   0.0000
    12 H6      10.0135   3.0443  19.3811   H         1 RES1   0.0000
    13 H7       8.8823   2.7016  20.4608   H         1 RES1   0.0000
    14 H8       8.6341   3.8559  19.3811   H         1 RES1   0.0000
    15 C6      10.1411   1.4349  15.3929   C.ar      1 RES1   0.0000
    16 C7      10.9673   0.5151  14.7810   C.ar      1 RES1   0.0000
    17 H9      11.2890  -0.2405  15.2575   H         1 RES1   0.0000
    18 C8      11.3153   0.7155  13.4682   C.ar      1 RES1   0.0000
    19 H10     11.8920   0.0982  13.0348   H         1 RES1   0.0000
    20 C9      10.8370   1.8017  12.7763   C.ar      1 RES1   0.0000
    21 H11     11.0616   1.9360  11.8639   H         1 RES1   0.0000
    22 C10     10.0191   2.6921  13.4421   C.ar      1 RES1   0.0000
    23 C11      9.3758   3.9076  12.9078   C.2       1 RES1   0.0000
    24 C12      8.6729   5.3330  11.3889   C.3       1 RES1   0.0000
    25 H12      7.9479   4.9963  10.8044   H         1 RES1   0.0000
    26 H13      9.1083   6.1045  10.9464   H         1 RES1   0.0000
    27 C13      8.1212   5.7342  12.7671   C.3       1 RES1   0.0000
    28 C14      6.6253   5.8600  12.7788   C.3       1 RES1   0.0000
    29 H14      6.2233   5.0083  12.5127   H         1 RES1   0.0000
    30 H15      6.3508   6.5615  12.1502   H         1 RES1   0.0000
    31 H16      6.3231   6.0965  13.6811   H         1 RES1   0.0000
    32 C15      8.7561   7.0084  13.2806   C.3       1 RES1   0.0000
    33 H17      8.4539   7.1788  14.1956   H         1 RES1   0.0000
    34 H18      8.4941   7.7579  12.7053   H         1 RES1   0.0000
    35 H19      9.7307   6.9142  13.2705   H         1 RES1   0.0000
    36 C16      5.8226   1.6670  14.5894   C.3       1 RES1   0.0000
    37 C17      4.4086   1.6614  15.1941   C.3       1 RES1   0.0000
    38 H20      3.7362   1.3828  14.5250   H         1 RES1   0.0000
    39 H21      4.3587   1.0522  15.9722   H         1 RES1   0.0000
    40 C18      5.4234   3.5701  15.6792   C.2       1 RES1   0.0000
    41 C19      6.6128   0.4209  14.9432   C.3       1 RES1   0.0000
    42 H22      7.5140   0.4870  14.5681   H         1 RES1   0.0000
    43 H23      6.1609  -0.3668  14.5757   H         1 RES1   0.0000
    44 H24      6.6711   0.3387  15.9190   H         1 RES1   0.0000
    45 C20      5.7949   1.9099  13.0900   C.3       1 RES1   0.0000
    46 H25      5.3028   2.7356  12.9005   H         1 RES1   0.0000
    47 H26      5.3513   1.1564  12.6445   H         1 RES1   0.0000
    48 H27      6.7127   1.9921  12.7560   H         1 RES1   0.0000
    49 C21      5.6230   4.9037  16.2525   C.ar      1 RES1   0.0000
    50 C22      4.6581   5.8380  16.5676   C.ar      1 RES1   0.0000
    51 H28      3.7334   5.6396  16.4715   H         1 RES1   0.0000
    52 C23      5.0782   7.0725  17.0263   C.ar      1 RES1   0.0000
    53 H29      4.4335   7.7379  17.2344   H         1 RES1   0.0000
    54 C24      6.4174   7.3489  17.1883   C.ar      1 RES1   0.0000
    55 H30      6.7085   8.1908  17.5183   H         1 RES1   0.0000
    56 C25      7.3324   6.3519  16.8525   C.ar      1 RES1   0.0000
    57 C26      8.7977   6.4324  16.8998   C.2       1 RES1   0.0000
    58 C27     10.7996   7.2790  17.2978   C.3       1 RES1   0.0000
    59 H31     11.1420   7.3331  18.2254   H         1 RES1   0.0000
    60 H32     11.2987   7.9243  16.7376   H         1 RES1   0.0000
    61 C28     10.9493   5.8661  16.7531   C.3       1 RES1   0.0000
    62 C29     11.6300   4.9642  17.7489   C.3       1 RES1   0.0000
    63 H33     11.1420   4.9883  18.5979   H         1 RES1   0.0000
    64 H34     12.5491   5.2708  17.8908   H         1 RES1   0.0000
    65 H35     11.6411   4.0483  17.4042   H         1 RES1   0.0000
    66 C30     11.6550   5.8079  15.4197   C.3       1 RES1   0.0000
    67 H36     11.6369   4.8880  15.0801   H         1 RES1   0.0000
    68 H37     12.5852   6.0965  15.5287   H         1 RES1   0.0000
    69 H38     11.2030   6.3992  14.7836   H         1 RES1   0.0000
    70 N1       8.8199   2.3154  17.1802   N.2       1 RES1   0.0000
    71 N2       9.6822   2.5112  14.7286   N.ar      1 RES1   0.0000
    72 N3       8.5579   4.5876  13.6154   N.2       1 RES1   0.0000
    73 N4       6.4049   2.8813  15.2289   N.2       1 RES1   0.0000
    74 N5       6.9303   5.1634  16.3975   N.ar      1 RES1   0.0000
    75 N6       9.5255   5.4346  16.5724   N.2       1 RES1   0.0000
    76 O1       9.8957   0.3764  17.5393   O.3       1 RES1   0.0000
    77 O2       9.6406   4.2848  11.6667   O.3       1 RES1   0.0000
    78 O3       4.1965   3.0587  15.6057   O.3       1 RES1   0.0000
    79 O4       9.3703   7.5656  17.2625   O.3       1 RES1   0.0000
    80 Cl1      1.1931   7.5746  17.2443   Cl        2 RES2   0.0000
    81 O5       1.1604   7.2569  15.8926   O.2       2 RES2   0.0000
    82 O6       1.5846   6.4348  17.9998   O.3       2 RES2  -1.0000
    83 O7      -0.0846   7.9926  17.6536   O.2       2 RES2   0.0000
    84 O8       2.1072   8.6251  17.4701   O.2       2 RES2   0.0000
    85 Cl2      0.7155   0.4239  15.3743   Cl        3 RES3   0.0000
    86 O9       1.8619   0.0581  16.0407   O.2       3 RES3   0.0000
    87 O10     -0.2689   0.4409  16.4000   O.3       3 RES3  -1.0000
    88 O11      0.7930   1.6334  14.8241   O.2       3 RES3   0.0000
    89 O12      0.2676  -0.5471  14.5174   O.2       3 RES3   0.0000
@<TRIPOS>BOND
     1     1    70    1
     2     2     3    1
     3     3     4    1
     4     5     3    1
     5     6    15    1
     6     7     2    1
     7     8     7    1
     8     9     7    1
     9    10     7    1
    10    11     2    1
    11    12    11    1
    12    13    11    1
    13    14    11    1
    14    15    16   ar
    15    16    17    1
    16    18    16   ar
    17    19    18    1
    18    20    18   ar
    19    21    20    1
    20    22    20   ar
    21    23    22    1
    22    24    25    1
    23    26    24    1
    24    27    24    1
    25    28    27    1
    26    29    28    1
    27    30    28    1
    28    31    28    1
    29    32    27    1
    30    33    32    1
    31    34    32    1
    32    35    32    1
    33    36    37    1
    34    37    38    1
    35    39    37    1
    36    40    49    1
    37    41    36    1
    38    42    41    1
    39    43    41    1
    40    44    41    1
    41    45    36    1
    42    46    45    1
    43    47    45    1
    44    48    45    1
    45    49    50   ar
    46    50    51    1
    47    52    50   ar
    48    53    52    1
    49    54    52   ar
    50    55    54    1
    51    56    54   ar
    52    57    56    1
    53    58    59    1
    54    60    58    1
    55    61    58    1
    56    62    61    1
    57    63    62    1
    58    64    62    1
    59    65    62    1
    60    66    61    1
    61    67    66    1
    62    68    66    1
    63    69    66    1
    64    70     2    1
    65    71     1    1
    66    72     1    1
    67    73     1    1
    68    74     1    1
    69    75     1    1
    70    76     3    1
    71    77    23    1
    72    78    37    1
    73    79    57    1
    74     6    70    2
    75     6    76    1
    76    15    71   ar
    77    22    71   ar
    78    23    72    2
    79    24    77    1
    80    27    72    1
    81    36    73    1
    82    40    73    2
    83    40    78    1
    84    49    74   ar
    85    56    74   ar
    86    57    75    2
    87    58    79    1
    88    61    75    1
    89    80    81    2
    90    82    80    1
    91    83    80    2
    92    84    80    2
    93    85    86    2
    94    87    85    1
    95    88    85    2
    96    89    85    2
@<TRIPOS>SUBSTRUCTURE
     1 RES1        1 GROUP             0 ****  ****    0  
     2 RES2       80 GROUP             0 ****  ****    0  
     3 RES3       85 GROUP             0 ****  ****    0  
@<TRIPOS>CRYSIN
   13.8634   20.0412   25.3447   90.0000   90.0000   90.0000    61     1
