@<TRIPOS>MOLECULE
DUVQAN
    91    96     5     0     0
SMALL
USER_CHARGES
****
Generated from the CSD

@<TRIPOS>ATOM
     1 Fe1      9.6884   9.6732   0.1425   Fe        1 RES1   2.0000
     2 N1      10.4328  11.5022   0.1076   N.ar      1 RES1   0.0000
     3 N2       9.6360   9.9705  -1.7164   N.ar      1 RES1   0.0000
     4 N3       8.9345   7.9425  -0.4205   N.ar      1 RES1   0.0000
     5 C1      10.8351  12.2383   1.1522   C.ar      1 RES1   0.0000
     6 H1      10.7728  11.8659   2.0232   H         1 RES1   0.0000
     7 C2      11.3361  13.5172   1.0122   C.ar      1 RES1   0.0000
     8 H2      11.6142  14.0141   1.7723   H         1 RES1   0.0000
     9 C3      11.4257  14.0600  -0.2533   C.ar      1 RES1   0.0000
    10 H3      11.7623  14.9397  -0.3745   H         1 RES1   0.0000
    11 C4      11.0200  13.3136  -1.3443   C.ar      1 RES1   0.0000
    12 H4      11.0818  13.6718  -2.2212   H         1 RES1   0.0000
    13 C5      10.5242  12.0441  -1.1440   C.ar      1 RES1   0.0000
    14 C6      10.0778  11.1388  -2.2114   C.ar      1 RES1   0.0000
    15 C7      10.1032  11.3688  -3.5701   C.ar      1 RES1   0.0000
    16 H5      10.4014  12.2004  -3.9190   H         1 RES1   0.0000
    17 C8       9.6773  10.3479  -4.4152   C.ar      1 RES1   0.0000
    18 C9       9.2205   9.1431  -3.9047   C.ar      1 RES1   0.0000
    19 H6       8.9236   8.4486  -4.4797   H         1 RES1   0.0000
    20 C10      9.2122   8.9835  -2.5273   C.ar      1 RES1   0.0000
    21 C11      8.8003   7.7991  -1.7733   C.ar      1 RES1   0.0000
    22 C12      8.3040   6.6434  -2.3359   C.ar      1 RES1   0.0000
    23 H7       8.2380   6.5585  -3.2799   H         1 RES1   0.0000
    24 C13      7.9006   5.6076  -1.5106   C.ar      1 RES1   0.0000
    25 H8       7.5316   4.8135  -1.8801   H         1 RES1   0.0000
    26 C14      8.0411   5.7415  -0.1421   C.ar      1 RES1   0.0000
    27 H9       7.7809   5.0378   0.4411   H         1 RES1   0.0000
    28 C15      8.5671   6.9189   0.3654   C.ar      1 RES1   0.0000
    29 H10      8.6717   7.0044   1.3057   H         1 RES1   0.0000
    30 N4       9.7602  10.6340  -5.8031   N.2       1 RES1   0.0000
    31 N5       9.5617   9.6885  -6.5783   N.1       1 RES1   1.0000
    32 N6       9.4166   8.9579  -7.4179   N.3       1 RES1  -1.0000
    33 N7       7.9188  10.3904   0.6609   N.ar      1 RES1   0.0000
    34 N8       9.7885   9.3907   1.9954   N.ar      1 RES1   0.0000
    35 N9      11.5002   8.8873   0.2276   N.ar      1 RES1   0.0000
    36 C16      6.9646  10.8769  -0.1463   C.ar      1 RES1   0.0000
    37 H11      7.1031  10.8444  -1.0861   H         1 RES1   0.0000
    38 C17      5.7876  11.4256   0.3341   C.ar      1 RES1   0.0000
    39 H12      5.1319  11.7583  -0.2666   H         1 RES1   0.0000
    40 C18      5.5825  11.4830   1.6990   C.ar      1 RES1   0.0000
    41 H13      4.7916  11.8724   2.0507   H         1 RES1   0.0000
    42 C19      6.5496  10.9646   2.5477   C.ar      1 RES1   0.0000
    43 H14      6.4226  10.9831   3.4897   H         1 RES1   0.0000
    44 C20      7.6981  10.4215   2.0079   C.ar      1 RES1   0.0000
    45 C21      8.7901   9.8312   2.7880   C.ar      1 RES1   0.0000
    46 C22      8.8701   9.7037   4.1639   C.ar      1 RES1   0.0000
    47 H15      8.1809  10.0354   4.7287   H         1 RES1   0.0000
    48 C23      9.9879   9.0753   4.6911   C.ar      1 RES1   0.0000
    49 C24     10.9998   8.5880   3.8687   C.ar      1 RES1   0.0000
    50 H16     11.7441   8.1219   4.2288   H         1 RES1   0.0000
    51 C25     10.8837   8.8057   2.5134   C.ar      1 RES1   0.0000
    52 C26     11.8971   8.5320   1.4843   C.ar      1 RES1   0.0000
    53 C27     13.1556   8.0238   1.7329   C.ar      1 RES1   0.0000
    54 H17     13.4166   7.7965   2.6173   H         1 RES1   0.0000
    55 C28     14.0350   7.8493   0.6758   C.ar      1 RES1   0.0000
    56 H18     14.9074   7.5023   0.8273   H         1 RES1   0.0000
    57 C29     13.6283   8.1857  -0.5968   C.ar      1 RES1   0.0000
    58 H19     14.2113   8.0623  -1.3371   H         1 RES1   0.0000
    59 C30     12.3606   8.7048  -0.7834   C.ar      1 RES1   0.0000
    60 H20     12.0895   8.9413  -1.6625   H         1 RES1   0.0000
    61 N10     10.1973   8.8789   6.0850   N.2       1 RES1   0.0000
    62 N11      9.5924   9.6118   6.8235   N.1       1 RES1   1.0000
    63 N12      9.1054  10.2247   7.6452   N.3       1 RES1  -1.0000
    64 P1       6.4928   6.4820   3.8381   P.3       2 RES2  -1.0000
    65 F1       6.4538   5.3540   2.7125   F         2 RES2   0.0000
    66 F2       6.4502   5.3524   4.9757   F         2 RES2   0.0000
    67 F3       8.0939   6.4287   3.8471   F         2 RES2   0.0000
    68 F1A      6.5317   7.6100   2.7125   F         2 RES2   0.0000
    69 F2A      6.5353   7.6116   4.9757   F         2 RES2   0.0000
    70 F3A      4.8916   6.5353   3.8471   F         2 RES2   0.0000
    71 P2      12.9855   4.9351   4.9013   P.3       3 RES3  -1.0000
    72 F4      13.6088   6.0166   4.0190   F         3 RES3   0.0000
    73 F5      13.6111   3.8542   3.9957   F         3 RES3   0.0000
    74 F6      11.7163   4.9376   3.9600   F         3 RES3   0.0000
    75 F4B     12.3622   6.0166   5.7835   F         3 RES3   0.0000
    76 F5B     12.3599   3.8542   5.8068   F         3 RES3   0.0000
    77 F6B     14.2547   4.9376   5.8425   F         3 RES3   0.0000
    78 P3      12.9855  11.8531   4.9013   P.3       4 RES4  -1.0000
    79 F7      13.0530  10.7481   3.7718   F         4 RES4   0.0000
    80 F8      11.3846  11.8494   4.8277   F         4 RES4   0.0000
    81 F9      13.0419  12.9855   3.7910   F         4 RES4   0.0000
    82 F7B     12.9180  10.7481   6.0307   F         4 RES4   0.0000
    83 F8B     14.5864  11.8494   4.9748   F         4 RES4   0.0000
    84 F9B     12.9291  12.9855   6.0115   F         4 RES4   0.0000
    85 P4       6.4928  12.9640   6.1166   P.3       5 RES5  -1.0000
    86 F10      7.6222  12.8971   4.9897   F         5 RES5   0.0000
    87 F11      7.6181  12.8998   7.2491   F         5 RES5   0.0000
    88 F12      6.5899  14.5641   6.1168   F         5 RES5   0.0000
    89 F10A     5.3633  13.0309   4.9897   F         5 RES5   0.0000
    90 F11A     5.3674  13.0282   7.2491   F         5 RES5   0.0000
    91 F12A     6.3956  11.3639   6.1168   F         5 RES5   0.0000
@<TRIPOS>BOND
     1     1     2    1
     2     2     5   ar
     3     3     1    1
     4     4     1    1
     5     5     6    1
     6     7     5   ar
     7     8     7    1
     8     9     7   ar
     9    10     9    1
    10    11     9   ar
    11    12    11    1
    12    13     2   ar
    13    14     3   ar
    14    15    14   ar
    15    16    15    1
    16    17    15   ar
    17    18    17   ar
    18    19    18    1
    19    20     3   ar
    20    21     4   ar
    21    22    21   ar
    22    23    22    1
    23    24    22   ar
    24    25    24    1
    25    26    24   ar
    26    27    26    1
    27    28     4   ar
    28    29    28    1
    29    30    17    1
    30    31    30    2
    31    32    31    2
    32    33     1    1
    33    34     1    1
    34    35     1    1
    35    36    33   ar
    36    37    36    1
    37    38    36   ar
    38    39    38    1
    39    40    38   ar
    40    41    40    1
    41    42    40   ar
    42    43    42    1
    43    44    33   ar
    44    45    34   ar
    45    46    45   ar
    46    47    46    1
    47    48    46   ar
    48    49    48   ar
    49    50    49    1
    50    51    34   ar
    51    52    35   ar
    52    53    52   ar
    53    54    53    1
    54    55    53   ar
    55    56    55    1
    56    57    55   ar
    57    58    57    1
    58    59    35   ar
    59    60    59    1
    60    61    48    1
    61    62    61    2
    62    63    62    2
    63    11    13   ar
    64    13    14    1
    65    18    20   ar
    66    20    21    1
    67    26    28   ar
    68    42    44   ar
    69    44    45    1
    70    49    51   ar
    71    51    52    1
    72    57    59   ar
    73    64    65    1
    74    66    64    1
    75    67    64    1
    76    68    64    1
    77    69    64    1
    78    70    64    1
    79    71    72    1
    80    73    71    1
    81    74    71    1
    82    75    71    1
    83    76    71    1
    84    77    71    1
    85    78    79    1
    86    80    78    1
    87    81    78    1
    88    82    78    1
    89    83    78    1
    90    84    78    1
    91    85    86    1
    92    87    85    1
    93    88    85    1
    94    89    85    1
    95    90    85    1
    96    91    85    1
@<TRIPOS>SUBSTRUCTURE
     1 RES1        1 GROUP             0 ****  ****    0  
     2 RES2       64 GROUP             0 ****  ****    0  
     3 RES3       71 GROUP             0 ****  ****    0  
     4 RES4       78 GROUP             0 ****  ****    0  
     5 RES5       85 GROUP             0 ****  ****    0  
@<TRIPOS>CRYSIN
   25.9710   12.9640   19.6050   90.0000   90.0000   90.0000    54     1
