@<TRIPOS>MOLECULE
DUXBIJ
   129   136     3     0     0
SMALL
USER_CHARGES
****
Generated from the CSD

@<TRIPOS>ATOM
     1 Fe1      0.0000   4.3764   2.5981   Fe        1 RES1   1.0000
     2 N1       1.1345   6.0154   2.6255   N.2       1 RES1   0.0000
     3 C1       0.7139   7.3233   2.5424   C.2       1 RES1   0.0000
     4 C2       1.8416   8.2278   2.5380   C.2       1 RES1   0.0000
     5 C3       2.9625   7.4545   2.6315   C.2       1 RES1   0.0000
     6 C4       2.5101   6.0777   2.6806   C.2       1 RES1   0.0000
     7 C5      -0.6078   7.7285   2.4825   C.2       1 RES1   0.0000
     8 H1      -0.7615   8.6512   2.4588   H         1 RES1   0.0000
     9 C6       1.7532   9.7077   2.3189   C.3       1 RES1   0.0000
    10 H2       1.0101  10.0622   2.7893   H         1 RES1   0.0000
    11 H3       2.4858  10.1182   2.6417   H         1 RES1   0.0000
    12 C7       1.5729  10.0322   0.8380   C.3       1 RES1   0.0000
    13 H4       2.1812   9.7261   0.4032   H         1 RES1   0.0000
    14 H5       0.8018   9.6788   0.5051   H         1 RES1   0.0000
    15 H6       1.5983  10.9689   0.6526   H         1 RES1   0.0000
    16 C8       4.3984   7.8841   2.5831   C.3       1 RES1   0.0000
    17 H7       4.4884   8.6827   2.8599   H         1 RES1   0.0000
    18 H8       4.9366   7.3891   3.1987   H         1 RES1   0.0000
    19 C9       4.9870   7.7929   1.1774   C.3       1 RES1   0.0000
    20 H9       4.5637   8.3694   0.5861   H         1 RES1   0.0000
    21 H10      4.9295   6.9619   0.8397   H         1 RES1   0.0000
    22 H11      5.8363   8.1033   1.1681   H         1 RES1   0.0000
    23 N2       0.0000   4.3764   0.5888   N.ar      1 RES1   0.0000
    24 N3       0.0000   4.3764  -3.6061   N.pl3     1 RES1   0.0000
    25 C10     -1.0362   3.8867  -0.1280   C.ar      1 RES1   0.0000
    26 H12     -1.7365   3.5466   0.3471   H         1 RES1   0.0000
    27 C11     -1.0757   3.8579  -1.5004   C.ar      1 RES1   0.0000
    28 H13     -1.7943   3.5221  -1.9434   H         1 RES1   0.0000
    29 C12      0.0000   4.3764  -2.2572   C.ar      1 RES1   0.0000
    30 C13     -1.1230   3.8181  -4.3433   C.3       1 RES1   0.0000
    31 H14     -1.9046   4.2346  -4.1029   H         1 RES1   0.0000
    32 H15     -1.0398   3.9212  -5.2211   H         1 RES1   0.0000
    33 H16     -1.4337   2.8534  -4.0821   H         1 RES1   0.0000
    34 N1K     -1.6390   5.5109   2.5706   N.2       1 RES1   0.0000
    35 C1K     -2.9469   5.0902   2.6538   C.2       1 RES1   0.0000
    36 C2K     -3.8514   6.2180   2.6581   C.2       1 RES1   0.0000
    37 C3K     -3.0782   7.3388   2.5646   C.2       1 RES1   0.0000
    38 C4K     -1.7014   6.8865   2.5155   C.2       1 RES1   0.0000
    39 C5K     -3.3521   3.7686   2.7136   C.2       1 RES1   0.0000
    40 H1K     -4.2748   3.6149   2.7373   H         1 RES1   0.0000
    41 C6K     -5.3313   6.1296   2.8772   C.3       1 RES1   0.0000
    42 H2K     -5.6858   5.3864   2.4068   H         1 RES1   0.0000
    43 H3K     -5.7418   6.8622   2.5544   H         1 RES1   0.0000
    44 C7K     -5.6559   5.9492   4.3581   C.3       1 RES1   0.0000
    45 H4K     -5.3497   6.5576   4.7929   H         1 RES1   0.0000
    46 H5K     -5.3024   5.1781   4.6911   H         1 RES1   0.0000
    47 H6K     -6.5926   5.9746   4.5435   H         1 RES1   0.0000
    48 C8K     -3.5078   8.7748   2.6130   C.3       1 RES1   0.0000
    49 H7K     -4.3064   8.8648   2.3362   H         1 RES1   0.0000
    50 H8K     -3.0127   9.3129   1.9974   H         1 RES1   0.0000
    51 C9K     -3.4165   9.3633   4.0187   C.3       1 RES1   0.0000
    52 H9K     -3.9930   8.9401   4.6100   H         1 RES1   0.0000
    53 H10K    -2.5856   9.3059   4.3564   H         1 RES1   0.0000
    54 H11K    -3.7269  10.2127   4.0280   H         1 RES1   0.0000
    55 N1N      1.6390   3.2418   2.5706   N.2       1 RES1   0.0000
    56 C1N      2.9469   3.6625   2.6538   C.2       1 RES1   0.0000
    57 C2N      3.8514   2.5348   2.6581   C.2       1 RES1   0.0000
    58 C3N      3.0782   1.4139   2.5646   C.2       1 RES1   0.0000
    59 C4N      1.7014   1.8663   2.5155   C.2       1 RES1   0.0000
    60 C5N      3.3521   4.9842   2.7136   C.2       1 RES1   0.0000
    61 H1N      4.2748   5.1379   2.7373   H         1 RES1   0.0000
    62 C6N      5.3313   2.6232   2.8772   C.3       1 RES1   0.0000
    63 H2N      5.6858   3.3663   2.4068   H         1 RES1   0.0000
    64 H3N      5.7418   1.8906   2.5544   H         1 RES1   0.0000
    65 C7N      5.6559   2.8035   4.3581   C.3       1 RES1   0.0000
    66 H4N      5.3497   2.1952   4.7929   H         1 RES1   0.0000
    67 H5N      5.3024   3.5746   4.6911   H         1 RES1   0.0000
    68 H6N      6.5926   2.7781   4.5435   H         1 RES1   0.0000
    69 C8N      3.5078  -0.0221   2.6130   C.3       1 RES1   0.0000
    70 H7N      4.3064  -0.1120   2.3362   H         1 RES1   0.0000
    71 H8N      3.0127  -0.5602   1.9974   H         1 RES1   0.0000
    72 C9N      3.4165  -0.6106   4.0187   C.3       1 RES1   0.0000
    73 H9N      3.9930  -0.1873   4.6100   H         1 RES1   0.0000
    74 H10N     2.5856  -0.5532   4.3564   H         1 RES1   0.0000
    75 H11N     3.7269  -1.4600   4.0280   H         1 RES1   0.0000
    76 N1E     -1.1345   2.7373   2.6255   N.2       1 RES1   0.0000
    77 C1E     -0.7139   1.4295   2.5424   C.2       1 RES1   0.0000
    78 C2E     -1.8416   0.5250   2.5380   C.2       1 RES1   0.0000
    79 C3E     -2.9625   1.2982   2.6315   C.2       1 RES1   0.0000
    80 C4E     -2.5101   2.6750   2.6806   C.2       1 RES1   0.0000
    81 C5E      0.6078   1.0242   2.4825   C.2       1 RES1   0.0000
    82 H1E      0.7615   0.1015   2.4588   H         1 RES1   0.0000
    83 C6E     -1.7532  -0.9549   2.3189   C.3       1 RES1   0.0000
    84 H2E     -1.0101  -1.3094   2.7893   H         1 RES1   0.0000
    85 H3E     -2.4858  -1.3654   2.6417   H         1 RES1   0.0000
    86 C7E     -1.5729  -1.2795   0.8380   C.3       1 RES1   0.0000
    87 H4E     -2.1812  -0.9733   0.4032   H         1 RES1   0.0000
    88 H5E     -0.8018  -0.9260   0.5051   H         1 RES1   0.0000
    89 H6E     -1.5983  -2.2162   0.6526   H         1 RES1   0.0000
    90 C8E     -4.3984   0.8686   2.5831   C.3       1 RES1   0.0000
    91 H7E     -4.4884   0.0700   2.8599   H         1 RES1   0.0000
    92 H8E     -4.9366   1.3637   3.1987   H         1 RES1   0.0000
    93 C9E     -4.9870   0.9598   1.1774   C.3       1 RES1   0.0000
    94 H9E     -4.5637   0.3834   0.5861   H         1 RES1   0.0000
    95 H10E    -4.9295   1.7908   0.8397   H         1 RES1   0.0000
    96 H11E    -5.8363   0.6495   1.1681   H         1 RES1   0.0000
    97 C10E     1.0362   4.8660  -0.1280   C.ar      1 RES1   0.0000
    98 H12E     1.7365   5.2061   0.3471   H         1 RES1   0.0000
    99 C11E     1.0757   4.8949  -1.5004   C.ar      1 RES1   0.0000
   100 H13E     1.7943   5.2306  -1.9434   H         1 RES1   0.0000
   101 C13E     1.1230   4.9346  -4.3433   C.3       1 RES1   0.0000
   102 H14E     1.9046   4.5182  -4.1029   H         1 RES1   0.0000
   103 H15E     1.0398   4.8315  -5.2211   H         1 RES1   0.0000
   104 H16E     1.4337   5.8994  -4.0821   H         1 RES1   0.0000
   105 N2K      0.0000   4.3764   4.6073   N.ar      1 RES1   0.0000
   106 N3K      0.0000   4.3764   8.8022   N.pl3     1 RES1   0.0000
   107 C10K     0.4896   3.3402   5.3242   C.ar      1 RES1   0.0000
   108 H12K     0.8298   2.6398   4.8490   H         1 RES1   0.0000
   109 C11K     0.5185   3.3007   6.6966   C.ar      1 RES1   0.0000
   110 H13K     0.8543   2.5821   7.1395   H         1 RES1   0.0000
   111 C12K     0.0000   4.3764   7.4533   C.ar      1 RES1   0.0000
   112 C13K     0.5583   3.2534   9.5395   C.3       1 RES1   0.0000
   113 H14K     0.1418   2.4718   9.2990   H         1 RES1   0.0000
   114 H15K     0.4551   3.3365  10.4172   H         1 RES1   0.0000
   115 H16K     1.5230   2.9427   9.2782   H         1 RES1   0.0000
   116 C10N    -0.4896   5.4125   5.3242   C.ar      1 RES1   0.0000
   117 H12N    -0.8298   6.1129   4.8490   H         1 RES1   0.0000
   118 C11N    -0.5185   5.4521   6.6966   C.ar      1 RES1   0.0000
   119 H13N    -0.8543   6.1707   7.1395   H         1 RES1   0.0000
   120 C13N    -0.5583   5.4994   9.5395   C.3       1 RES1   0.0000
   121 H14N    -0.1418   6.2810   9.2990   H         1 RES1   0.0000
   122 H15N    -0.4551   5.4162  10.4172   H         1 RES1   0.0000
   123 H16N    -1.5230   5.8101   9.2782   H         1 RES1   0.0000
   124 Cl1     -3.8685   2.9120  -9.6257   Cl        2 RES2   0.0000
   125 C14     -3.2879   3.8528  -8.2666   C.3       2 RES2   0.0000
   126 H17     -2.3492   3.8267  -8.1829   H         2 RES2   0.0000
   127 Cl2     -3.6993   5.5450  -8.4826   Cl        2 RES2   0.0000
   128 Cl3     -3.9836   3.2481  -6.7649   Cl        2 RES2   0.0000
   129 Cl4     -0.0000   4.3764  -7.7942   Cl        3 RES3  -1.0000
@<TRIPOS>BOND
     1     1     2    1
     2     2     3    1
     3     3     4    1
     4     4     5    2
     5     5     6    1
     6     6     2    2
     7     7     3    2
     8     8     7    1
     9     9     4    1
    10    10     9    1
    11    11     9    1
    12    12     9    1
    13    13    12    1
    14    14    12    1
    15    15    12    1
    16    16     5    1
    17    17    16    1
    18    18    16    1
    19    19    16    1
    20    20    19    1
    21    21    19    1
    22    22    19    1
    23    23     1    1
    24    24    29    1
    25    25    23   ar
    26    26    25    1
    27    27    25   ar
    28    28    27    1
    29    29    27   ar
    30    30    24    1
    31    31    30    1
    32    32    30    1
    33    33    30    1
    34    34     1    1
    35    35    34    1
    36    36    35    2
    37    37    36    1
    38    38     7    1
    39    39    35    1
    40    40    39    1
    41    41    36    1
    42    42    41    1
    43    43    41    1
    44    44    41    1
    45    45    44    1
    46    46    44    1
    47    47    44    1
    48    48    37    1
    49    49    48    1
    50    50    48    1
    51    51    48    1
    52    52    51    1
    53    53    51    1
    54    54    51    1
    55    55     1    1
    56    56    55    1
    57    57    56    1
    58    58    57    2
    59    59    55    1
    60    60     6    1
    61    61    60    1
    62    62    57    1
    63    63    62    1
    64    64    62    1
    65    65    62    1
    66    66    65    1
    67    67    65    1
    68    68    65    1
    69    69    58    1
    70    70    69    1
    71    71    69    1
    72    72    69    1
    73    73    72    1
    74    74    72    1
    75    75    72    1
    76    76     1    1
    77    77    76    2
    78    78    77    1
    79    79    78    2
    80    80    39    2
    81    81    59    2
    82    82    81    1
    83    83    78    1
    84    84    83    1
    85    85    83    1
    86    86    83    1
    87    87    86    1
    88    88    86    1
    89    89    86    1
    90    90    79    1
    91    91    90    1
    92    92    90    1
    93    93    90    1
    94    94    93    1
    95    95    93    1
    96    96    93    1
    97    97    23   ar
    98    98    97    1
    99    99    29   ar
   100   100    99    1
   101   101    24    1
   102   102   101    1
   103   103   101    1
   104   104   101    1
   105   105     1    1
   106   106   111    1
   107   107   105   ar
   108   108   107    1
   109   109   107   ar
   110   110   109    1
   111   111   109   ar
   112   112   106    1
   113   113   112    1
   114   114   112    1
   115   115   112    1
   116   116   105   ar
   117   117   116    1
   118   118   111   ar
   119   119   118    1
   120   120   106    1
   121   121   120    1
   122   122   120    1
   123   123   120    1
   124    34    38    1
   125    37    38    2
   126    56    60    2
   127    58    59    1
   128    76    80    1
   129    77    81    1
   130    79    80    1
   131    97    99   ar
   132   116   118   ar
   133   124   125    1
   134   125   126    1
   135   127   125    1
   136   128   125    1
@<TRIPOS>SUBSTRUCTURE
     1 RES1        1 GROUP             0 ****  ****    0  
     2 RES2      124 GROUP             0 ****  ****    0  
     3 RES3      129 GROUP             0 ****  ****    0  
