@<TRIPOS>MOLECULE
EBIRIT
    81    90     1     0     0
SMALL
NO_CHARGES
****
Generated from the CSD

@<TRIPOS>ATOM
     1 Fe1      4.5039   4.0932  11.1989   Fe        1 RES1   0.0000
     2 Br1     11.2155  11.5925   9.7497   Br        1 RES1   0.0000
     3 Se1      2.1310   6.5723   7.6623   Se        1 RES1   0.0000
     4 N1       5.0001   3.0748   9.3036   N.ar      1 RES1   0.0000
     5 N2       6.0049   5.3121  10.3030   N.2       1 RES1   0.0000
     6 N3       6.6318   6.4762  10.6562   N.2       1 RES1   0.0000
     7 N4       7.3718   5.8115   8.6794   N.pl3     1 RES1   0.0000
     8 N5       3.0618   5.2335  10.0969   N.2       1 RES1   0.0000
     9 C1       4.4302   1.9565   8.8628   C.ar      1 RES1   0.0000
    10 H1       3.8310   1.5136   9.4183   H         1 RES1   0.0000
    11 C2       4.6868   1.4293   7.6264   C.ar      1 RES1   0.0000
    12 H2       4.2719   0.6418   7.3554   H         1 RES1   0.0000
    13 C3       5.5617   2.0728   6.7888   C.ar      1 RES1   0.0000
    14 H3       5.7476   1.7289   5.9444   H         1 RES1   0.0000
    15 C4       6.1666   3.2475   7.2233   C.ar      1 RES1   0.0000
    16 H4       6.7639   3.7035   6.6768   H         1 RES1   0.0000
    17 C5       5.8596   3.7231   8.4888   C.ar      1 RES1   0.0000
    18 C6       6.4304   4.9273   9.1226   C.2       1 RES1   0.0000
    19 C7       7.4624   6.7594   9.6736   C.2       1 RES1   0.0000
    20 C8       8.3685   7.9112   9.6579   C.ar      1 RES1   0.0000
    21 C9       7.9001   9.1359  10.0700   C.ar      1 RES1   0.0000
    22 H5       7.0097   9.2268  10.3231   H         1 RES1   0.0000
    23 C10      8.7377  10.2321  10.1126   C.ar      1 RES1   0.0000
    24 H6       8.4132  11.0605  10.3836   H         1 RES1   0.0000
    25 C11     10.0575  10.0888   9.7475   C.ar      1 RES1   0.0000
    26 C12     10.5545   8.8772   9.3623   C.ar      1 RES1   0.0000
    27 H7      11.4510   8.7896   9.1271   H         1 RES1   0.0000
    28 C13      9.7143   7.7852   9.3242   C.ar      1 RES1   0.0000
    29 H8      10.0503   6.9551   9.0733   H         1 RES1   0.0000
    30 C14      7.9980   5.8950   7.3913   C.ar      1 RES1   0.0000
    31 C15      9.0408   5.0657   7.0732   C.ar      1 RES1   0.0000
    32 H9       9.3373   4.4345   7.6892   H         1 RES1   0.0000
    33 C16      9.6504   5.1656   5.8436   C.ar      1 RES1   0.0000
    34 H10     10.3459   4.5925   5.6129   H         1 RES1   0.0000
    35 C17      9.2247   6.1004   4.9835   C.ar      1 RES1   0.0000
    36 H11      9.6471   6.1774   4.1593   H         1 RES1   0.0000
    37 C18      8.1900   6.9494   5.2747   C.ar      1 RES1   0.0000
    38 H12      7.9134   7.5887   4.6587   H         1 RES1   0.0000
    39 C19      7.5573   6.8347   6.5133   C.ar      1 RES1   0.0000
    40 H13      6.8471   7.3922   6.7350   H         1 RES1   0.0000
    41 C20      2.7322   5.7509   9.1450   C.1       1 RES1   0.0000
    42 Br1B    -2.2078  -3.4062  12.6480   Br        1 RES1   0.0000
    43 Se1B     6.8767   1.6140  14.7355   Se        1 RES1   0.0000
    44 N1B      4.0076   5.1115  13.0942   N.ar      1 RES1   0.0000
    45 N2B      3.0028   2.8742  12.0948   N.2       1 RES1   0.0000
    46 N3B      2.3759   1.7101  11.7416   N.2       1 RES1   0.0000
    47 N4B      1.6359   2.3748  13.7184   N.pl3     1 RES1   0.0000
    48 N5B      5.9459   2.9528  12.3008   N.2       1 RES1   0.0000
    49 C1B      4.5775   6.2298  13.5350   C.ar      1 RES1   0.0000
    50 H1B      5.1767   6.6727  12.9795   H         1 RES1   0.0000
    51 C2B      4.3209   6.7570  14.7713   C.ar      1 RES1   0.0000
    52 H2B      4.7359   7.5445  15.0423   H         1 RES1   0.0000
    53 C3B      3.4460   6.1135  15.6090   C.ar      1 RES1   0.0000
    54 H3B      3.2601   6.4574  16.4534   H         1 RES1   0.0000
    55 C4B      2.8412   4.9388  15.1745   C.ar      1 RES1   0.0000
    56 H4B      2.2439   4.4828  15.7210   H         1 RES1   0.0000
    57 C5B      3.1482   4.4632  13.9090   C.ar      1 RES1   0.0000
    58 C6B      2.5773   3.2590  13.2752   C.2       1 RES1   0.0000
    59 C7B      1.5453   1.4269  12.7242   C.2       1 RES1   0.0000
    60 C8B      0.6392   0.2751  12.7398   C.ar      1 RES1   0.0000
    61 C9B      1.1076  -0.9496  12.3277   C.ar      1 RES1   0.0000
    62 H5B      1.9980  -1.0405  12.0746   H         1 RES1   0.0000
    63 C10B     0.2701  -2.0458  12.2852   C.ar      1 RES1   0.0000
    64 H6B      0.5946  -2.8742  12.0142   H         1 RES1   0.0000
    65 C11B    -1.0498  -1.9025  12.6503   C.ar      1 RES1   0.0000
    66 C12B    -1.5467  -0.6909  13.0355   C.ar      1 RES1   0.0000
    67 H7B     -2.4433  -0.6033  13.2707   H         1 RES1   0.0000
    68 C13B    -0.7066   0.4011  13.0736   C.ar      1 RES1   0.0000
    69 H8B     -1.0425   1.2312  13.3244   H         1 RES1   0.0000
    70 C14B     1.0098   2.2913  15.0065   C.ar      1 RES1   0.0000
    71 C15B    -0.0330   3.1206  15.3245   C.ar      1 RES1   0.0000
    72 H9B     -0.3295   3.7518  14.7086   H         1 RES1   0.0000
    73 C16B    -0.6427   3.0207  16.5542   C.ar      1 RES1   0.0000
    74 H10B    -1.3382   3.5938  16.7849   H         1 RES1   0.0000
    75 C17B    -0.2170   2.0859  17.4143   C.ar      1 RES1   0.0000
    76 H11B    -0.6394   2.0089  18.2385   H         1 RES1   0.0000
    77 C18B     0.8178   1.2369  17.1231   C.ar      1 RES1   0.0000
    78 H12B     1.0943   0.5976  17.7390   H         1 RES1   0.0000
    79 C19B     1.4504   1.3516  15.8845   C.ar      1 RES1   0.0000
    80 H13B     2.1606   0.7941  15.6628   H         1 RES1   0.0000
    81 C20B     6.2755   2.4354  13.2528   C.1       1 RES1   0.0000
@<TRIPOS>BOND
     1     1     4    1
     2     2    25    1
     3     3    41    2
     4     4     9   ar
     5     5     1    1
     6     6     5    1
     7     7    18    1
     8     8     1    1
     9     9    10    1
    10    11     9   ar
    11    12    11    1
    12    13    11   ar
    13    14    13    1
    14    15    13   ar
    15    16    15    1
    16    17     4   ar
    17    18     5    2
    18    19     6    2
    19    20    19    1
    20    21    20   ar
    21    22    21    1
    22    23    21   ar
    23    24    23    1
    24    25    23   ar
    25    26    25   ar
    26    27    26    1
    27    28    20   ar
    28    29    28    1
    29    30     7    1
    30    31    30   ar
    31    32    31    1
    32    33    31   ar
    33    34    33    1
    34    35    33   ar
    35    36    35    1
    36    37    35   ar
    37    38    37    1
    38    39    30   ar
    39    40    39    1
    40    41     8    2
    41    42    65    1
    42    43    81    2
    43    44     1    1
    44    45     1    1
    45    46    45    1
    46    47    58    1
    47    48     1    1
    48    49    44   ar
    49    50    49    1
    50    51    49   ar
    51    52    51    1
    52    53    51   ar
    53    54    53    1
    54    55    53   ar
    55    56    55    1
    56    57    44   ar
    57    58    45    2
    58    59    46    2
    59    60    59    1
    60    61    60   ar
    61    62    61    1
    62    63    61   ar
    63    64    63    1
    64    65    63   ar
    65    66    65   ar
    66    67    66    1
    67    68    60   ar
    68    69    68    1
    69    70    47    1
    70    71    70   ar
    71    72    71    1
    72    73    71   ar
    73    74    73    1
    74    75    73   ar
    75    76    75    1
    76    77    75   ar
    77    78    77    1
    78    79    70   ar
    79    80    79    1
    80    81    48    2
    81     7    19    1
    82    15    17   ar
    83    17    18    1
    84    26    28   ar
    85    37    39   ar
    86    47    59    1
    87    55    57   ar
    88    57    58    1
    89    66    68   ar
    90    77    79   ar
@<TRIPOS>SUBSTRUCTURE
     1 RES1        1 GROUP             0 ****  ****    0  
@<TRIPOS>CRYSIN
   11.0863    8.1863   22.4940   90.0000   95.3020   90.0000    14     1
