@<TRIPOS>MOLECULE
EBIRAL
    81    90     1     0     0
SMALL
NO_CHARGES
****
Generated from the CSD

@<TRIPOS>ATOM
     1 Fe1      9.9170  -4.2730   0.0000   Fe        1 RES1   0.0000
     2 Br1      4.0334   3.7817   1.6661   Br        1 RES1   0.0000
     3 S1      11.7409  -1.7268   3.5493   S.2       1 RES1   0.0000
     4 N1       9.4551  -5.2370   1.9392   N.ar      1 RES1   0.0000
     5 N2       8.3075  -3.1364   0.8206   N.2       1 RES1   0.0000
     6 N3       7.7258  -1.9417   0.4694   N.2       1 RES1   0.0000
     7 N4       7.2177  -2.4108   2.5657   N.pl3     1 RES1   0.0000
     8 N5      11.1498  -2.9347   1.1200   N.2       1 RES1   0.0000
     9 C1      10.0178  -6.3531   2.4067   C.ar      1 RES1   0.0000
    10 H1      10.6230  -6.8035   1.8631   H         1 RES1   0.0000
    11 C2       9.7470  -6.8710   3.6527   C.ar      1 RES1   0.0000
    12 H2      10.1607  -7.6512   3.9453   H         1 RES1   0.0000
    13 C3       8.8537  -6.2095   4.4515   C.ar      1 RES1   0.0000
    14 H3       8.6561  -6.5317   5.3020   H         1 RES1   0.0000
    15 C4       8.2454  -5.0532   3.9827   C.ar      1 RES1   0.0000
    16 H4       7.6324  -4.5943   4.5106   H         1 RES1   0.0000
    17 C5       8.5619  -4.5969   2.7318   C.ar      1 RES1   0.0000
    18 C6       8.0148  -3.4064   2.0718   C.2       1 RES1   0.0000
    19 C7       7.0760  -1.5195   1.5230   C.2       1 RES1   0.0000
    20 C8       6.3208  -0.2658   1.5739   C.ar      1 RES1   0.0000
    21 C9       6.8767   0.8657   1.0074   C.ar      1 RES1   0.0000
    22 H5       7.7184   0.8170   0.6148   H         1 RES1   0.0000
    23 C10      6.1993   2.0621   1.0171   C.ar      1 RES1   0.0000
    24 H6       6.5778   2.8202   0.6336   H         1 RES1   0.0000
    25 C11      4.9560   2.1262   1.6010   C.ar      1 RES1   0.0000
    26 C12      4.3678   1.0144   2.1295   C.ar      1 RES1   0.0000
    27 H7       3.5144   1.0648   2.4967   H         1 RES1   0.0000
    28 C13      5.0473  -0.1863   2.1142   C.ar      1 RES1   0.0000
    29 H8       4.6482  -0.9478   2.4684   H         1 RES1   0.0000
    30 C14      6.8534  -2.1553   3.9382   C.ar      1 RES1   0.0000
    31 C15      7.6931  -1.3956   4.6943   C.ar      1 RES1   0.0000
    32 H9       8.4948  -1.0811   4.3433   H         1 RES1   0.0000
    33 C16      7.3285  -1.0982   6.0015   C.ar      1 RES1   0.0000
    34 H10      7.8797  -0.5743   6.5362   H         1 RES1   0.0000
    35 C17      6.1665  -1.5784   6.4891   C.ar      1 RES1   0.0000
    36 H11      5.9270  -1.3751   7.3653   H         1 RES1   0.0000
    37 C18      5.3445  -2.3399   5.7495   C.ar      1 RES1   0.0000
    38 H12      4.5506  -2.6612   6.1122   H         1 RES1   0.0000
    39 C19      5.6853  -2.6416   4.4467   C.ar      1 RES1   0.0000
    40 H13      5.1270  -3.1697   3.9241   H         1 RES1   0.0000
    41 C20     11.3880  -2.4271   2.1305   C.1       1 RES1   0.0000
    42 Br1B    15.8006 -12.3277  -1.6661   Br        1 RES1   0.0000
    43 S1B      8.0931  -6.8192  -3.5493   S.2       1 RES1   0.0000
    44 N1B     10.3789  -3.3090  -1.9392   N.ar      1 RES1   0.0000
    45 N2B     11.5265  -5.4096  -0.8206   N.2       1 RES1   0.0000
    46 N3B     12.1082  -6.6043  -0.4694   N.2       1 RES1   0.0000
    47 N4B     12.6163  -6.1352  -2.5657   N.pl3     1 RES1   0.0000
    48 N5B      8.6842  -5.6113  -1.1200   N.2       1 RES1   0.0000
    49 C1B      9.8162  -2.1929  -2.4067   C.ar      1 RES1   0.0000
    50 H1B      9.2110  -1.7425  -1.8631   H         1 RES1   0.0000
    51 C2B     10.0870  -1.6750  -3.6527   C.ar      1 RES1   0.0000
    52 H2B      9.6733  -0.8948  -3.9453   H         1 RES1   0.0000
    53 C3B     10.9803  -2.3365  -4.4515   C.ar      1 RES1   0.0000
    54 H3B     11.1779  -2.0143  -5.3020   H         1 RES1   0.0000
    55 C4B     11.5886  -3.4928  -3.9827   C.ar      1 RES1   0.0000
    56 H4B     12.2016  -3.9517  -4.5106   H         1 RES1   0.0000
    57 C5B     11.2721  -3.9491  -2.7318   C.ar      1 RES1   0.0000
    58 C6B     11.8192  -5.1396  -2.0718   C.2       1 RES1   0.0000
    59 C7B     12.7580  -7.0265  -1.5230   C.2       1 RES1   0.0000
    60 C8B     13.5132  -8.2802  -1.5739   C.ar      1 RES1   0.0000
    61 C9B     12.9573  -9.4117  -1.0074   C.ar      1 RES1   0.0000
    62 H5B     12.1156  -9.3630  -0.6148   H         1 RES1   0.0000
    63 C10B    13.6347 -10.6081  -1.0171   C.ar      1 RES1   0.0000
    64 H6B     13.2562 -11.3662  -0.6336   H         1 RES1   0.0000
    65 C11B    14.8780 -10.6722  -1.6010   C.ar      1 RES1   0.0000
    66 C12B    15.4662  -9.5604  -2.1295   C.ar      1 RES1   0.0000
    67 H7B     16.3196  -9.6108  -2.4967   H         1 RES1   0.0000
    68 C13B    14.7867  -8.3597  -2.1142   C.ar      1 RES1   0.0000
    69 H8B     15.1858  -7.5982  -2.4684   H         1 RES1   0.0000
    70 C14B    12.9806  -6.3907  -3.9382   C.ar      1 RES1   0.0000
    71 C15B    12.1409  -7.1504  -4.6943   C.ar      1 RES1   0.0000
    72 H9B     11.3392  -7.4649  -4.3433   H         1 RES1   0.0000
    73 C16B    12.5055  -7.4478  -6.0015   C.ar      1 RES1   0.0000
    74 H10B    11.9543  -7.9717  -6.5362   H         1 RES1   0.0000
    75 C17B    13.6675  -6.9676  -6.4891   C.ar      1 RES1   0.0000
    76 H11B    13.9070  -7.1709  -7.3653   H         1 RES1   0.0000
    77 C18B    14.4895  -6.2061  -5.7495   C.ar      1 RES1   0.0000
    78 H12B    15.2834  -5.8848  -6.1122   H         1 RES1   0.0000
    79 C19B    14.1487  -5.9044  -4.4467   C.ar      1 RES1   0.0000
    80 H13B    14.7070  -5.3763  -3.9241   H         1 RES1   0.0000
    81 C20B     8.4460  -6.1189  -2.1305   C.1       1 RES1   0.0000
@<TRIPOS>BOND
     1     1     4    1
     2     2    25    1
     3     3    41    2
     4     4     9   ar
     5     5     1    1
     6     6     5    1
     7     7    18    1
     8     8     1    1
     9     9    10    1
    10    11     9   ar
    11    12    11    1
    12    13    11   ar
    13    14    13    1
    14    15    13   ar
    15    16    15    1
    16    17     4   ar
    17    18     5    2
    18    19     6    2
    19    20    19    1
    20    21    20   ar
    21    22    21    1
    22    23    21   ar
    23    24    23    1
    24    25    23   ar
    25    26    25   ar
    26    27    26    1
    27    28    20   ar
    28    29    28    1
    29    30     7    1
    30    31    30   ar
    31    32    31    1
    32    33    31   ar
    33    34    33    1
    34    35    33   ar
    35    36    35    1
    36    37    35   ar
    37    38    37    1
    38    39    30   ar
    39    40    39    1
    40    41     8    2
    41    42    65    1
    42    43    81    2
    43    44     1    1
    44    45     1    1
    45    46    45    1
    46    47    58    1
    47    48     1    1
    48    49    44   ar
    49    50    49    1
    50    51    49   ar
    51    52    51    1
    52    53    51   ar
    53    54    53    1
    54    55    53   ar
    55    56    55    1
    56    57    44   ar
    57    58    45    2
    58    59    46    2
    59    60    59    1
    60    61    60   ar
    61    62    61    1
    62    63    61   ar
    63    64    63    1
    64    65    63   ar
    65    66    65   ar
    66    67    66    1
    67    68    60   ar
    68    69    68    1
    69    70    47    1
    70    71    70   ar
    71    72    71    1
    72    73    71   ar
    73    74    73    1
    74    75    73   ar
    75    76    75    1
    76    77    75   ar
    77    78    77    1
    78    79    70   ar
    79    80    79    1
    80    81    48    2
    81     7    19    1
    82    15    17   ar
    83    17    18    1
    84    26    28   ar
    85    37    39   ar
    86    47    59    1
    87    55    57   ar
    88    57    58    1
    89    66    68   ar
    90    77    79   ar
@<TRIPOS>SUBSTRUCTURE
     1 RES1        1 GROUP             0 ****  ****    0  
@<TRIPOS>CRYSIN
    9.9170    8.5460   23.5550   90.0000   90.5510   90.0000    14     1
