@<TRIPOS>MOLECULE
EBIREP
    87    95     2     0     0
SMALL
NO_CHARGES
****
Generated from the CSD

@<TRIPOS>ATOM
     1 Br1     -0.4307   2.9344   4.5908   Br        1 RES1   0.0000
     2 Fe1      7.7434   8.0900   7.0478   Fe        1 RES1   0.0000
     3 S1      10.9210   9.2789   3.7250   S.2       1 RES1   0.0000
     4 N1       8.8286   6.4445   7.9372   N.ar      1 RES1   0.0000
     5 N2       6.6895   6.3329   6.4402   N.2       1 RES1   0.0000
     6 N3       5.4356   6.1533   5.9159   N.2       1 RES1   0.0000
     7 N4       6.0212   4.3686   7.0294   N.pl3     1 RES1   0.0000
     8 N5       9.0612   8.1013   5.3887   N.2       1 RES1   0.0000
     9 C1      10.0191   6.5513   8.5165   C.ar      1 RES1   0.0000
    10 H1      10.4057   7.3943   8.5912   H         1 RES1   0.0000
    11 C2      10.6996   5.4721   9.0070   C.ar      1 RES1   0.0000
    12 H2      11.5261   5.5789   9.4186   H         1 RES1   0.0000
    13 C3      10.1437   4.2473   8.8816   C.ar      1 RES1   0.0000
    14 H3      10.5883   3.4981   9.2058   H         1 RES1   0.0000
    15 C4       8.9172   4.1097   8.2713   C.ar      1 RES1   0.0000
    16 H4       8.5233   3.2732   8.1754   H         1 RES1   0.0000
    17 C5       8.2963   5.2294   7.8103   C.ar      1 RES1   0.0000
    18 C6       7.0285   5.2634   7.1056   C.2       1 RES1   0.0000
    19 C7       5.0350   4.9592   6.2725   C.2       1 RES1   0.0000
    20 C8       3.7440   4.4430   5.9187   C.ar      1 RES1   0.0000
    21 C9       2.7494   5.3167   5.5931   C.ar      1 RES1   0.0000
    22 H5       2.9203   6.2293   5.6410   H         1 RES1   0.0000
    23 C10      1.5020   4.8944   5.1942   C.ar      1 RES1   0.0000
    24 H6       0.8480   5.5141   4.9616   H         1 RES1   0.0000
    25 C11      1.2368   3.5612   5.1435   C.ar      1 RES1   0.0000
    26 C12      2.1932   2.6762   5.4818   C.ar      1 RES1   0.0000
    27 H7       2.0036   1.7652   5.4550   H         1 RES1   0.0000
    28 C13      3.4549   3.1001   5.8666   C.ar      1 RES1   0.0000
    29 H8       4.1071   2.4755   6.0907   H         1 RES1   0.0000
    30 C14      5.9245   3.1648   7.8033   C.ar      1 RES1   0.0000
    31 C15      5.4850   3.2667   9.0803   C.ar      1 RES1   0.0000
    32 H9       5.1980   4.0806   9.4285   H         1 RES1   0.0000
    33 C16      5.4761   2.1180   9.8485   C.ar      1 RES1   0.0000
    34 H10      5.1756   2.1600  10.7267   H         1 RES1   0.0000
    35 C17      5.8946   0.9401   9.3524   C.ar      1 RES1   0.0000
    36 H11      5.9105   0.1861   9.8965   H         1 RES1   0.0000
    37 C18      6.2923   0.8495   8.0584   C.ar      1 RES1   0.0000
    38 H12      6.5358   0.0259   7.7004   H         1 RES1   0.0000
    39 C19      6.3332   1.9756   7.2846   C.ar      1 RES1   0.0000
    40 H13      6.6393   1.9287   6.4064   H         1 RES1   0.0000
    41 C20      9.8455   8.5673   4.7009   C.1       1 RES1   0.0000
    42 Br1B    15.9175  13.2456   9.5048   Br        1 RES1   0.0000
    43 S1B      4.5658   6.9011  10.3705   S.2       1 RES1   0.0000
    44 N1B      6.6582   9.7355   6.1583   N.ar      1 RES1   0.0000
    45 N2B      8.7973   9.8471   7.6553   N.2       1 RES1   0.0000
    46 N3B     10.0512  10.0267   8.1796   N.2       1 RES1   0.0000
    47 N4B      9.4656  11.8114   7.0661   N.pl3     1 RES1   0.0000
    48 N5B      6.4256   8.0787   8.7068   N.2       1 RES1   0.0000
    49 C1B      5.4677   9.6287   5.5790   C.ar      1 RES1   0.0000
    50 H1B      5.0811   8.7857   5.5043   H         1 RES1   0.0000
    51 C2B      4.7872  10.7079   5.0885   C.ar      1 RES1   0.0000
    52 H2B      3.9607  10.6011   4.6769   H         1 RES1   0.0000
    53 C3B      5.3431  11.9328   5.2139   C.ar      1 RES1   0.0000
    54 H3B      4.8984  12.6819   4.8897   H         1 RES1   0.0000
    55 C4B      6.5695  12.0703   5.8243   C.ar      1 RES1   0.0000
    56 H4B      6.9635  12.9068   5.9201   H         1 RES1   0.0000
    57 C5B      7.1905  10.9506   6.2852   C.ar      1 RES1   0.0000
    58 C6B      8.4583  10.9166   6.9900   C.2       1 RES1   0.0000
    59 C7B     10.4518  11.2208   7.8230   C.2       1 RES1   0.0000
    60 C8B     11.7427  11.7370   8.1768   C.ar      1 RES1   0.0000
    61 C9B     12.7373  10.8633   8.5024   C.ar      1 RES1   0.0000
    62 H5B     12.5664   9.9507   8.4545   H         1 RES1   0.0000
    63 C10B    13.9847  11.2856   8.9013   C.ar      1 RES1   0.0000
    64 H6B     14.6388  10.6659   9.1339   H         1 RES1   0.0000
    65 C11B    14.2500  12.6188   8.9521   C.ar      1 RES1   0.0000
    66 C12B    13.2936  13.5038   8.6138   C.ar      1 RES1   0.0000
    67 H7B     13.4832  14.4148   8.6406   H         1 RES1   0.0000
    68 C13B    12.0319  13.0799   8.2290   C.ar      1 RES1   0.0000
    69 H8B     11.3797  13.7045   8.0049   H         1 RES1   0.0000
    70 C14B     9.5623  13.0152   6.2922   C.ar      1 RES1   0.0000
    71 C15B    10.0018  12.9133   5.0152   C.ar      1 RES1   0.0000
    72 H9B     10.2888  12.0994   4.6670   H         1 RES1   0.0000
    73 C16B    10.0107  14.0620   4.2470   C.ar      1 RES1   0.0000
    74 H10B    10.3112  14.0200   3.3688   H         1 RES1   0.0000
    75 C17B     9.5921  15.2399   4.7431   C.ar      1 RES1   0.0000
    76 H11B     9.5763  15.9939   4.1991   H         1 RES1   0.0000
    77 C18B     9.1944  15.3306   6.0371   C.ar      1 RES1   0.0000
    78 H12B     8.9509  16.1541   6.3951   H         1 RES1   0.0000
    79 C19B     9.1536  14.2044   6.8110   C.ar      1 RES1   0.0000
    80 H13B     8.8475  14.2513   7.6891   H         1 RES1   0.0000
    81 C20B     5.6413   7.6127   9.3947   C.1       1 RES1   0.0000
    82 O1      10.2688   1.0986   8.7505   O.3       2 RES2   0.0000
    83 H14      9.8306   0.6521   9.2805   H         2 RES2   0.0000
    84 C21     11.6238   0.8155   8.9126   C.3       2 RES2   0.0000
    85 H15     11.9316   1.1844   9.7428   H         2 RES2   0.0000
    86 H16     12.1214   1.2006   8.1867   H         2 RES2   0.0000
    87 H17     11.7538  -0.1359   8.9182   H         2 RES2   0.0000
@<TRIPOS>BOND
     1     1    25    1
     2     2     4    1
     3     3    41    2
     4     4     9   ar
     5     5     2    1
     6     6     5    1
     7     7    18    1
     8     8     2    1
     9     9    10    1
    10    11     9   ar
    11    12    11    1
    12    13    11   ar
    13    14    13    1
    14    15    13   ar
    15    16    15    1
    16    17     4   ar
    17    18     5    2
    18    19     6    2
    19    20    19    1
    20    21    20   ar
    21    22    21    1
    22    23    21   ar
    23    24    23    1
    24    25    23   ar
    25    26    25   ar
    26    27    26    1
    27    28    20   ar
    28    29    28    1
    29    30     7    1
    30    31    30   ar
    31    32    31    1
    32    33    31   ar
    33    34    33    1
    34    35    33   ar
    35    36    35    1
    36    37    35   ar
    37    38    37    1
    38    39    30   ar
    39    40    39    1
    40    41     8    2
    41    42    65    1
    42    43    81    2
    43    44     2    1
    44    45     2    1
    45    46    45    1
    46    47    58    1
    47    48     2    1
    48    49    44   ar
    49    50    49    1
    50    51    49   ar
    51    52    51    1
    52    53    51   ar
    53    54    53    1
    54    55    53   ar
    55    56    55    1
    56    57    44   ar
    57    58    45    2
    58    59    46    2
    59    60    59    1
    60    61    60   ar
    61    62    61    1
    62    63    61   ar
    63    64    63    1
    64    65    63   ar
    65    66    65   ar
    66    67    66    1
    67    68    60   ar
    68    69    68    1
    69    70    47    1
    70    71    70   ar
    71    72    71    1
    72    73    71   ar
    73    74    73    1
    74    75    73   ar
    75    76    75    1
    76    77    75   ar
    77    78    77    1
    78    79    70   ar
    79    80    79    1
    80    81    48    2
    81     7    19    1
    82    15    17   ar
    83    17    18    1
    84    26    28   ar
    85    37    39   ar
    86    47    59    1
    87    55    57   ar
    88    57    58    1
    89    66    68   ar
    90    77    79   ar
    91    82    83    1
    92    84    82    1
    93    85    84    1
    94    86    84    1
    95    87    84    1
@<TRIPOS>SUBSTRUCTURE
     1 RES1        1 GROUP             0 ****  ****    0  
     2 RES2       82 GROUP             0 ****  ****    0  
@<TRIPOS>CRYSIN
    9.3110   16.1800   14.4400   90.0000  102.5400   90.0000    14     1
