@<TRIPOS>MOLECULE
EBOQUH
    98   106     1     0     0
SMALL
NO_CHARGES
****
Generated from the CSD

@<TRIPOS>ATOM
     1 Fe1     -0.1542   2.7320   4.3261   Fe        1 RES1   0.0000
     2 N1      -1.8505   2.6824   3.2659   N.2       1 RES1   0.0000
     3 N2       0.0746   4.6926   3.8822   N.2       1 RES1   0.0000
     4 N3       1.6556   2.7305   5.2294   N.2       1 RES1   0.0000
     5 N4      -0.3534   0.7654   4.7182   N.2       1 RES1   0.0000
     6 N5      -0.8006   3.3179   5.8177   N.2       1 RES1   0.0000
     7 O1      -0.8924   3.9995   6.7434   O.2       1 RES1   0.0000
     8 C1       0.8500   2.3529   2.5917   C.ar      1 RES1   0.0000
     9 C2       1.6286   3.3119   1.9525   C.ar      1 RES1   0.0000
    10 H1       1.7248   4.1685   2.3515   H         1 RES1   0.0000
    11 C3       2.2737   3.0540   0.7422   C.ar      1 RES1   0.0000
    12 H2       2.7912   3.7249   0.3142   H         1 RES1   0.0000
    13 C4       2.1421   1.8063   0.1865   C.ar      1 RES1   0.0000
    14 C5       1.3962   0.8193   0.7776   C.ar      1 RES1   0.0000
    15 H3       1.3255  -0.0421   0.3826   H         1 RES1   0.0000
    16 C6       0.7396   1.1158   1.9868   C.ar      1 RES1   0.0000
    17 H4       0.2053   0.4471   2.3982   H         1 RES1   0.0000
    18 F1       2.7730   1.5496  -0.9999   F         1 RES1   0.0000
    19 C7      -1.9086   5.0092   2.4935   C.2       1 RES1   0.0000
    20 H5      -2.3980   5.6391   1.9783   H         1 RES1   0.0000
    21 C8       2.2261   5.0969   4.9854   C.2       1 RES1   0.0000
    22 H6       2.8748   5.7605   5.1914   H         1 RES1   0.0000
    23 C9       1.6961   0.4054   6.0050   C.2       1 RES1   0.0000
    24 H7       2.1914  -0.2304   6.5087   H         1 RES1   0.0000
    25 C10     -2.4705   0.3378   3.5640   C.2       1 RES1   0.0000
    26 H8      -3.1300  -0.3194   3.3749   H         1 RES1   0.0000
    27 C11     -2.6831   1.6051   3.0606   C.2       1 RES1   0.0000
    28 C12     -2.4179   3.7284   2.5735   C.2       1 RES1   0.0000
    29 C13     -0.7464   5.4533   3.0995   C.2       1 RES1   0.0000
    30 C14      1.1058   5.5153   4.2796   C.2       1 RES1   0.0000
    31 C15      2.4936   3.8077   5.4188   C.2       1 RES1   0.0000
    32 C16      2.2300   1.6890   5.9037   C.2       1 RES1   0.0000
    33 C17      0.5079  -0.0272   5.4347   C.2       1 RES1   0.0000
    34 C18     -1.3788  -0.0629   4.3231   C.2       1 RES1   0.0000
    35 C19     -3.8069   1.9811   2.2201   C.2       1 RES1   0.0000
    36 C20     -3.6366   3.2972   1.9170   C.2       1 RES1   0.0000
    37 C21     -0.2321   6.8027   2.9931   C.2       1 RES1   0.0000
    38 C22      0.9109   6.8419   3.7388   C.2       1 RES1   0.0000
    39 C23      3.6603   3.4092   6.1860   C.2       1 RES1   0.0000
    40 C24      3.4794   2.1025   6.5151   C.2       1 RES1   0.0000
    41 C25      0.0141  -1.3939   5.4925   C.2       1 RES1   0.0000
    42 C26     -1.1472  -1.4083   4.7861   C.2       1 RES1   0.0000
    43 C27     -4.9401   1.0874   1.8270   C.3       1 RES1   0.0000
    44 H9      -4.5915   0.1752   1.6672   H         1 RES1   0.0000
    45 H10     -5.3311   1.4153   0.9783   H         1 RES1   0.0000
    46 C28     -6.0398   1.0244   2.8912   C.3       1 RES1   0.0000
    47 H11     -5.6690   0.6572   3.7217   H         1 RES1   0.0000
    48 H12     -6.7667   0.4475   2.5771   H         1 RES1   0.0000
    49 H13     -6.3856   1.9261   3.0576   H         1 RES1   0.0000
    50 C29     -4.5139   4.1776   1.0678   C.3       1 RES1   0.0000
    51 H14     -5.0730   3.6055   0.4852   H         1 RES1   0.0000
    52 H15     -3.9392   4.7332   0.4821   H         1 RES1   0.0000
    53 C30     -5.4257   5.0972   1.8803   C.3       1 RES1   0.0000
    54 H16     -5.9993   4.5558   2.4635   H         1 RES1   0.0000
    55 H17     -5.9831   5.6258   1.2722   H         1 RES1   0.0000
    56 H18     -4.8789   5.6984   2.4277   H         1 RES1   0.0000
    57 C31     -0.8299   7.8751   2.1215   C.3       1 RES1   0.0000
    58 H19     -0.4960   8.7595   2.4138   H         1 RES1   0.0000
    59 H20     -1.8142   7.8704   2.2240   H         1 RES1   0.0000
    60 C32     -0.4707   7.6587   0.6485   C.3       1 RES1   0.0000
    61 H21      0.4961   7.7651   0.5288   H         1 RES1   0.0000
    62 H22     -0.9426   8.3169   0.0964   H         1 RES1   0.0000
    63 H23     -0.7350   6.7547   0.3764   H         1 RES1   0.0000
    64 C33      1.8444   8.0095   3.9395   C.3       1 RES1   0.0000
    65 H24      2.2726   7.9317   4.8291   H         1 RES1   0.0000
    66 H25      1.3191   8.8486   3.9286   H         1 RES1   0.0000
    67 C34      2.9257   8.0846   2.8726   C.3       1 RES1   0.0000
    68 H26      3.4573   7.2611   2.8865   H         1 RES1   0.0000
    69 H27      3.5077   8.8524   3.0498   H         1 RES1   0.0000
    70 H28      2.5088   8.1881   1.9907   H         1 RES1   0.0000
    71 C35      4.8258   4.2853   6.5577   C.3       1 RES1   0.0000
    72 H29      5.1274   4.0476   7.4699   H         1 RES1   0.0000
    73 H30      4.5244   5.2287   6.5756   H         1 RES1   0.0000
    74 C36      6.0033   4.1633   5.6020   C.3       1 RES1   0.0000
    75 H31      6.2978   3.2289   5.5647   H         1 RES1   0.0000
    76 H32      6.7407   4.7262   5.9177   H         1 RES1   0.0000
    77 H33      5.7290   4.4543   4.7077   H         1 RES1   0.0000
    78 C37      4.3543   1.2243   7.3641   C.3       1 RES1   0.0000
    79 H34      3.7857   0.7435   8.0158   H         1 RES1   0.0000
    80 H35      4.9781   1.7981   7.8758   H         1 RES1   0.0000
    81 C38      5.1663   0.2022   6.5756   C.3       1 RES1   0.0000
    82 H36      4.5594  -0.3777   6.0702   H         1 RES1   0.0000
    83 H37      5.6981  -0.3395   7.1946   H         1 RES1   0.0000
    84 H38      5.7632   0.6696   5.9535   H         1 RES1   0.0000
    85 C39      0.6615  -2.5400   6.2313   C.3       1 RES1   0.0000
    86 H39      1.6374  -2.3783   6.2863   H         1 RES1   0.0000
    87 H40      0.5218  -3.3744   5.7187   H         1 RES1   0.0000
    88 C40      0.1090  -2.7233   7.6394   C.3       1 RES1   0.0000
    89 H41      0.2282  -1.8937   8.1480   H         1 RES1   0.0000
    90 H42      0.5895  -3.4522   8.0858   H         1 RES1   0.0000
    91 H43     -0.8444  -2.9424   7.5896   H         1 RES1   0.0000
    92 C41     -2.0419  -2.5932   4.5049   C.3       1 RES1   0.0000
    93 H44     -1.5070  -3.4230   4.5756   H         1 RES1   0.0000
    94 H45     -2.3771  -2.5284   3.5755   H         1 RES1   0.0000
    95 C42     -3.2327  -2.6885   5.4558   C.3       1 RES1   0.0000
    96 H46     -2.9100  -2.7947   6.3750   H         1 RES1   0.0000
    97 H47     -3.7841  -3.4615   5.2117   H         1 RES1   0.0000
    98 H48     -3.7694  -1.8712   5.3905   H         1 RES1   0.0000
@<TRIPOS>BOND
     1     1     2    1
     2     2    27    1
     3     3     1    1
     4     4     1    1
     5     5     1    1
     6     6     1    1
     7     7     6    2
     8     8     1    1
     9     9     8   ar
    10    10     9    1
    11    11     9   ar
    12    12    11    1
    13    13    11   ar
    14    14    13   ar
    15    15    14    1
    16    16     8   ar
    17    17    16    1
    18    18    13    1
    19    19    20    1
    20    21    22    1
    21    23    24    1
    22    25    26    1
    23    27    25    2
    24    28     2    1
    25    29     3    2
    26    30     3    1
    27    31     4    1
    28    32     4    1
    29    33     5    1
    30    34     5    2
    31    35    27    1
    32    36    28    1
    33    37    29    1
    34    38    30    1
    35    39    31    2
    36    40    32    2
    37    41    33    1
    38    42    34    1
    39    43    35    1
    40    44    43    1
    41    45    43    1
    42    46    43    1
    43    47    46    1
    44    48    46    1
    45    49    46    1
    46    50    36    1
    47    51    50    1
    48    52    50    1
    49    53    50    1
    50    54    53    1
    51    55    53    1
    52    56    53    1
    53    57    37    1
    54    58    57    1
    55    59    57    1
    56    60    57    1
    57    61    60    1
    58    62    60    1
    59    63    60    1
    60    64    38    1
    61    65    64    1
    62    66    64    1
    63    67    64    1
    64    68    67    1
    65    69    67    1
    66    70    67    1
    67    71    39    1
    68    72    71    1
    69    73    71    1
    70    74    71    1
    71    75    74    1
    72    76    74    1
    73    77    74    1
    74    78    40    1
    75    79    78    1
    76    80    78    1
    77    81    78    1
    78    82    81    1
    79    83    81    1
    80    84    81    1
    81    85    41    1
    82    86    85    1
    83    87    85    1
    84    88    85    1
    85    89    88    1
    86    90    88    1
    87    91    88    1
    88    92    42    1
    89    93    92    1
    90    94    92    1
    91    95    92    1
    92    96    95    1
    93    97    95    1
    94    98    95    1
    95    14    16   ar
    96    19    28    2
    97    19    29    1
    98    21    30    2
    99    21    31    1
   100    23    32    1
   101    23    33    2
   102    25    34    1
   103    35    36    2
   104    37    38    2
   105    39    40    1
   106    41    42    2
@<TRIPOS>SUBSTRUCTURE
     1 RES1        1 GROUP             0 ****  ****    0  
@<TRIPOS>CRYSIN
   10.4870   10.8330   15.8040   96.0450   97.1140   99.4660     2     1
