@<TRIPOS>MOLECULE
EBUPUN01
    82    85     6     0     0
SMALL
USER_CHARGES
****
Generated from the CSD

@<TRIPOS>ATOM
     1 Fe1     13.6368   2.8188   1.2877   Fe        1 RES1   3.0000
     2 N1      12.9513   0.0448  -0.0839   N.3       1 RES1   0.0000
     3 N2      14.7814   1.2715   1.7254   N.2       1 RES1   0.0000
     4 N3      15.3703   3.6884   1.1996   N.2       1 RES1   0.0000
     5 N4      17.1927   4.8872   1.2668   N.pl3     1 RES1   0.0000
     6 N5      11.8619   1.9980   1.6541   N.2       1 RES1   0.0000
     7 N6      13.5395   3.1435   3.2130   N.2       1 RES1   0.0000
     8 N7      13.5977   3.5952   5.3425   N.pl3     1 RES1   0.0000
     9 N8      13.6540   2.6846  -0.6893   N.2       1 RES1   0.0000
    10 N9      12.6132   4.4319   0.8431   N.2       1 RES1   0.0000
    11 N10     11.3467   6.1732   0.5187   N.pl3     1 RES1   0.0000
    12 C1      13.8561  -0.7689   0.7061   C.3       1 RES1   0.0000
    13 C2      14.2743  -0.0751   2.0022   C.3       1 RES1   0.0000
    14 C3      16.0458   1.5136   1.8372   C.2       1 RES1   0.0000
    15 C4      16.4354   2.8674   1.5702   C.2       1 RES1   0.0000
    16 C5      15.8683   4.9018   1.0193   C.2       1 RES1   0.0000
    17 C6      17.5640   3.6158   1.6149   C.2       1 RES1   0.0000
    18 C7      11.5423   0.0266   0.2335   C.3       1 RES1   0.0000
    19 C8      11.0054   1.4047   0.6166   C.3       1 RES1   0.0000
    20 C9      11.4335   2.1094   2.8579   C.2       1 RES1   0.0000
    21 C10     12.3468   2.7306   3.7905   C.2       1 RES1   0.0000
    22 C11     14.2811   3.6642   4.1834   C.2       1 RES1   0.0000
    23 C12     12.3818   3.0188   5.1188   C.2       1 RES1   0.0000
    24 C13     13.3603   0.3923  -1.4303   C.3       1 RES1   0.0000
    25 C14     14.3000   1.5899  -1.4220   C.3       1 RES1   0.0000
    26 C15     13.0418   3.6085  -1.3395   C.2       1 RES1   0.0000
    27 C16     12.4254   4.6087  -0.5257   C.2       1 RES1   0.0000
    28 C17     11.9400   5.3970   1.4401   C.2       1 RES1   0.0000
    29 C18     11.6364   5.7034  -0.7313   C.2       1 RES1   0.0000
    30 H1      13.4256  -1.5887   0.9172   H         1 RES1   0.0000
    31 H2      14.6353  -0.9421   0.1916   H         1 RES1   0.0000
    32 H3      14.9542  -0.5849   2.4259   H         1 RES1   0.0000
    33 H4      13.5201  -0.0121   2.5755   H         1 RES1   0.0000
    34 H5      16.6734   0.8428   2.0777   H         1 RES1   0.0000
    35 H6      15.3670   5.6646   0.7564   H         1 RES1   0.0000
    36 H7      17.7736   5.6368   1.2122   H         1 RES1   0.0000
    37 H8      18.4373   3.3143   1.8372   H         1 RES1   0.0000
    38 H9      11.0614  -0.2955  -0.5201   H         1 RES1   0.0000
    39 H10     11.4081  -0.5619   0.9689   H         1 RES1   0.0000
    40 H11     10.1183   1.3259   0.9480   H         1 RES1   0.0000
    41 H12     11.0086   1.9629  -0.1510   H         1 RES1   0.0000
    42 H13     10.5753   1.7994   3.1222   H         1 RES1   0.0000
    43 H14     15.1548   4.0214   4.0743   H         1 RES1   0.0000
    44 H15     13.9126   3.9003   6.1856   H         1 RES1   0.0000
    45 H16     11.6984   2.8517   5.7577   H         1 RES1   0.0000
    46 H17     13.8016  -0.3524  -1.8232   H         1 RES1   0.0000
    47 H18     12.5906   0.6091  -1.9435   H         1 RES1   0.0000
    48 H19     14.4856   1.8672  -2.3112   H         1 RES1   0.0000
    49 H20     15.1115   1.3526  -0.9885   H         1 RES1   0.0000
    50 H21     13.0039   3.6279  -2.2874   H         1 RES1   0.0000
    51 H22     11.8850   5.5217   2.3797   H         1 RES1   0.0000
    52 H23     10.8051   6.9312   0.7075   H         1 RES1   0.0000
    53 H24     11.3530   6.0618  -1.5632   H         1 RES1   0.0000
    54 F1      14.0251   4.4549   7.9221   F         2 RES2   0.0000
    55 F2      13.7910   5.3474  10.0082   F         2 RES2   0.0000
    56 F3      12.5181   3.5831   9.3888   F         2 RES2   0.0000
    57 F4      14.7369   3.2913   9.7524   F         2 RES2   0.0000
    58 B1      13.7754   4.1716   9.2826   B         2 RES2  -1.0000
    59 F5      18.9242  12.5571   1.7198   F         3 RES3   0.0000
    60 F6      21.0049  12.0473   2.4762   F         3 RES3   0.0000
    61 F7      20.6996  12.7751   0.3370   F         3 RES3   0.0000
    62 F8      20.4368  14.2173   2.0791   F         3 RES3   0.0000
    63 B2      20.2724  12.9047   1.6527   B         3 RES3  -1.0000
    64 F9      10.8661  10.8958   3.2522   F         4 RES4   0.0000
    65 F10      9.3109  10.0893   4.7021   F         4 RES4   0.0000
    66 F11      8.8146  10.3327   2.4902   F         4 RES4   0.0000
    67 F12      9.0620  12.1527   3.7961   F         4 RES4   0.0000
    68 B3       9.5283  10.8655   3.5738   B         4 RES4  -1.0000
    69 O1      20.1932   5.4757   2.2315   O.2       5 RES5   0.0000
    70 N11     18.3117   7.4628   1.2793   N.2       5 RES5   0.0000
    71 N12     18.6355   9.6473   1.4206   N.pl3     5 RES5   0.0000
    72 C19     20.3875   6.6697   2.3923   C.2       5 RES5   0.0000
    73 C20     19.5050   7.7159   1.9477   C.2       5 RES5   0.0000
    74 C21     17.8246   8.6495   0.9899   C.2       5 RES5   0.0000
    75 C22     19.7079   9.0697   2.0400   C.2       5 RES5   0.0000
    76 H25     21.1807   6.9276   2.8467   H         5 RES5   0.0000
    77 H26     17.0029   8.7888   0.5341   H         5 RES5   0.0000
    78 H27     18.4855  10.5797   1.3129   H         5 RES5   0.0000
    79 H28     20.4416   9.5093   2.4538   H         5 RES5   0.0000
    80 O2      10.5467   8.7791   0.8725   O.3       6 RES6   0.0000
    81 H29      9.7814   9.2501   0.9969   H         6 RES6   0.0000
    82 H30     11.1497   8.8869   1.5422   H         6 RES6   0.0000
@<TRIPOS>BOND
     1     1     3    1
     2     2    12    1
     3     3    13    1
     4     4     1    1
     5     5    16    1
     6     6     1    1
     7     7     1    1
     8     8    22    1
     9     9     1    1
    10    10     1    1
    11    11    28    1
    12    12    13    1
    13    13    32    1
    14    14     3    2
    15    15     4    1
    16    16     4    2
    17    17     5    1
    18    18     2    1
    19    19     6    1
    20    20     6    2
    21    21     7    1
    22    22     7    2
    23    23     8    1
    24    24     2    1
    25    25     9    1
    26    26     9    2
    27    27    10    1
    28    28    10    2
    29    29    11    1
    30    30    12    1
    31    31    12    1
    32    33    13    1
    33    34    14    1
    34    35    16    1
    35    36     5    1
    36    37    17    1
    37    38    18    1
    38    39    18    1
    39    40    19    1
    40    41    19    1
    41    42    20    1
    42    43    22    1
    43    44     8    1
    44    45    23    1
    45    46    24    1
    46    47    24    1
    47    48    25    1
    48    49    25    1
    49    50    26    1
    50    51    28    1
    51    52    11    1
    52    53    29    1
    53    14    15    1
    54    15    17    2
    55    18    19    1
    56    20    21    1
    57    21    23    2
    58    24    25    1
    59    26    27    1
    60    27    29    2
    61    54    58    1
    62    55    58    1
    63    56    58    1
    64    57    58    1
    65    59    63    1
    66    60    63    1
    67    61    63    1
    68    62    63    1
    69    64    68    1
    70    65    68    1
    71    66    68    1
    72    67    68    1
    73    69    72    2
    74    70    73    1
    75    71    74    1
    76    72    73    1
    77    73    75    2
    78    74    70    2
    79    75    71    1
    80    76    72    1
    81    77    74    1
    82    78    71    1
    83    79    75    1
    84    80    81    1
    85    82    80    1
@<TRIPOS>SUBSTRUCTURE
     1 RES1        1 GROUP             0 ****  ****    0  
     2 RES2       54 GROUP             0 ****  ****    0  
     3 RES3       59 GROUP             0 ****  ****    0  
     4 RES4       64 GROUP             0 ****  ****    0  
     5 RES5       69 GROUP             0 ****  ****    0  
     6 RES6       80 GROUP             0 ****  ****    0  
@<TRIPOS>CRYSIN
   37.6190   12.1091   13.9950   90.0000   92.4800   90.0000    15     1
