@<TRIPOS>MOLECULE
EBUPUN
    82    85     6     0     0
SMALL
USER_CHARGES
****
Generated from the CSD

@<TRIPOS>ATOM
     1 Fe1     13.8213   2.7262   1.1383   Fe        1 RES1   3.0000
     2 N1      13.3299   0.2387   0.0407   N.3       1 RES1   0.0000
     3 N2      15.2486   1.3428   1.6786   N.2       1 RES1   0.0000
     4 N3      15.5894   3.8414   1.1341   N.2       1 RES1   0.0000
     5 N4      17.3116   5.1867   1.2871   N.pl3     1 RES1   0.0000
     6 N5      11.9687   1.9529   1.7137   N.2       1 RES1   0.0000
     7 N6      13.6613   3.2666   3.1734   N.2       1 RES1   0.0000
     8 N7      13.6432   3.8970   5.2563   N.pl3     1 RES1   0.0000
     9 N8      13.8045   2.7500  -0.9390   N.2       1 RES1   0.0000
    10 N9      12.7609   4.4995   0.6737   N.2       1 RES1   0.0000
    11 N10     11.5765   6.2996   0.3270   N.pl3     1 RES1   0.0000
    12 C1      14.3907  -0.6114   0.5642   C.3       1 RES1   0.0000
    13 C2      14.9111  -0.0808   1.8808   C.3       1 RES1   0.0000
    14 C3      16.4595   1.7470   1.8134   C.2       1 RES1   0.0000
    15 C4      16.6922   3.1315   1.5467   C.2       1 RES1   0.0000
    16 C5      16.0040   5.0932   0.9769   C.2       1 RES1   0.0000
    17 C6      17.7664   3.9690   1.6450   C.2       1 RES1   0.0000
    18 C7      12.0067  -0.1301   0.5207   C.3       1 RES1   0.0000
    19 C8      11.1748   1.1217   0.7818   C.3       1 RES1   0.0000
    20 C9      11.5624   2.1866   2.9039   C.2       1 RES1   0.0000
    21 C10     12.4552   2.9091   3.7545   C.2       1 RES1   0.0000
    22 C11     14.3549   3.8578   4.1278   C.2       1 RES1   0.0000
    23 C12     12.4478   3.2995   5.0457   C.2       1 RES1   0.0000
    24 C13     13.4227   0.4497  -1.4064   C.3       1 RES1   0.0000
    25 C14     14.3192   1.6081  -1.7011   C.3       1 RES1   0.0000
    26 C15     13.2307   3.7125  -1.5425   C.2       1 RES1   0.0000
    27 C16     12.6521   4.7155  -0.7046   C.2       1 RES1   0.0000
    28 C17     12.1036   5.4823   1.2463   C.2       1 RES1   0.0000
    29 C18     11.9052   5.8398  -0.8983   C.2       1 RES1   0.0000
    30 H1      14.0664  -1.4969   0.6751   H         1 RES1   0.0000
    31 H2      15.1145  -0.6114  -0.0533   H         1 RES1   0.0000
    32 H3      15.6784  -0.5609   2.1727   H         1 RES1   0.0000
    33 H4      14.2256  -0.1528   2.5334   H         1 RES1   0.0000
    34 H5      17.1613   1.1609   2.0744   H         1 RES1   0.0000
    35 H6      15.4567   5.8158   0.6976   H         1 RES1   0.0000
    36 H7      17.8289   5.9825   1.2576   H         1 RES1   0.0000
    37 H8      18.6471   3.7429   1.9102   H         1 RES1   0.0000
    38 H9      11.5699  -0.6708  -0.1263   H         1 RES1   0.0000
    39 H10     12.0908  -0.6139   1.3334   H         1 RES1   0.0000
    40 H11     10.3407   0.8994   1.1734   H         1 RES1   0.0000
    41 H12     11.0300   1.5878  -0.0337   H         1 RES1   0.0000
    42 H13     10.7112   1.8923   3.2029   H         1 RES1   0.0000
    43 H14     15.2287   4.2204   4.0155   H         1 RES1   0.0000
    44 H15     13.9290   4.2911   6.0731   H         1 RES1   0.0000
    45 H16     11.7528   3.1694   5.6802   H         1 RES1   0.0000
    46 H17     13.7591  -0.3373  -1.8190   H         1 RES1   0.0000
    47 H18     12.5578   0.6417  -1.7502   H         1 RES1   0.0000
    48 H19     14.3236   1.8038  -2.6302   H         1 RES1   0.0000
    49 H20     15.2017   1.4009  -1.4162   H         1 RES1   0.0000
    50 H21     13.1988   3.7656  -2.4899   H         1 RES1   0.0000
    51 H22     12.0218   5.5922   2.1867   H         1 RES1   0.0000
    52 H23     11.0696   7.0815   0.5067   H         1 RES1   0.0000
    53 H24     11.6519   6.2124  -1.7348   H         1 RES1   0.0000
    54 F1      14.0333   4.6511   7.9090   F         2 RES2   0.0000
    55 F2      13.1331   5.2852   9.8669   F         2 RES2   0.0000
    56 F3      12.2518   3.6014   8.6571   F         2 RES2   0.0000
    57 F4      14.1853   3.3172   9.6901   F         2 RES2   0.0000
    58 B1      13.3955   4.2065   9.0613   B         2 RES2  -1.0000
    59 F5      19.8895  12.5335   2.1095   F         3 RES3   0.0000
    60 F6      21.7185  13.4670   2.2064   F         3 RES3   0.0000
    61 F7      20.6216  13.3684   0.3018   F         3 RES3   0.0000
    62 F8      19.9177  14.4561   2.0576   F         3 RES3   0.0000
    63 B2      20.5654  13.4809   1.6225   B         3 RES3  -1.0000
    64 F9      10.7389  11.0429   3.2310   F         4 RES4   0.0000
    65 F10      9.2579  10.3873   4.6415   F         4 RES4   0.0000
    66 F11      8.7310  10.7700   2.5376   F         4 RES4   0.0000
    67 F12      9.2590  12.3427   3.8541   F         4 RES4   0.0000
    68 B3       9.4805  11.0959   3.5566   B         4 RES4  -1.0000
    69 O1      20.4105   5.6882   2.3102   O.2       5 RES5   0.0000
    70 N11     18.5869   7.7169   1.3628   N.2       5 RES5   0.0000
    71 N12     18.9751   9.8770   1.4681   N.pl3     5 RES5   0.0000
    72 C19     20.6519   6.8693   2.4113   C.2       5 RES5   0.0000
    73 C20     19.7863   7.9304   2.0001   C.2       5 RES5   0.0000
    74 C21     18.1344   8.8992   1.0737   C.2       5 RES5   0.0000
    75 C22     20.0147   9.2883   2.0787   C.2       5 RES5   0.0000
    76 H25     21.4297   7.1156   2.8969   H         5 RES5   0.0000
    77 H26     17.3055   9.0609   0.6400   H         5 RES5   0.0000
    78 H27     18.8581  10.8117   1.3446   H         5 RES5   0.0000
    79 H28     20.7716   9.7077   2.4716   H         5 RES5   0.0000
    80 O2      10.2092   8.5847   1.0428   O.3       6 RES6   0.0000
    81 H29      9.5202   8.4887   0.5474   H         6 RES6   0.0000
    82 H30     10.6886   9.1039   0.9081   H         6 RES6   0.0000
@<TRIPOS>BOND
     1     1     3    1
     2     2    12    1
     3     3    13    1
     4     4     1    1
     5     5    16    1
     6     6     1    1
     7     7     1    1
     8     8    22    1
     9     9     1    1
    10    10     1    1
    11    11    28    1
    12    12    13    1
    13    13    32    1
    14    14     3    2
    15    15     4    1
    16    16     4    2
    17    17     5    1
    18    18     2    1
    19    19     6    1
    20    20     6    2
    21    21     7    1
    22    22     7    2
    23    23     8    1
    24    24     2    1
    25    25     9    1
    26    26     9    2
    27    27    10    1
    28    28    10    2
    29    29    11    1
    30    30    12    1
    31    31    12    1
    32    33    13    1
    33    34    14    1
    34    35    16    1
    35    36     5    1
    36    37    17    1
    37    38    18    1
    38    39    18    1
    39    40    19    1
    40    41    19    1
    41    42    20    1
    42    43    22    1
    43    44     8    1
    44    45    23    1
    45    46    24    1
    46    47    24    1
    47    48    25    1
    48    49    25    1
    49    50    26    1
    50    51    28    1
    51    52    11    1
    52    53    29    1
    53    14    15    1
    54    15    17    2
    55    18    19    1
    56    20    21    1
    57    21    23    2
    58    24    25    1
    59    26    27    1
    60    27    29    2
    61    54    58    1
    62    55    58    1
    63    56    58    1
    64    57    58    1
    65    59    63    1
    66    60    63    1
    67    61    63    1
    68    62    63    1
    69    64    68    1
    70    65    68    1
    71    66    68    1
    72    67    68    1
    73    69    72    2
    74    70    73    1
    75    71    74    1
    76    72    73    1
    77    73    75    2
    78    74    70    2
    79    75    71    1
    80    76    72    1
    81    77    74    1
    82    78    71    1
    83    79    75    1
    84    80    81    1
    85    82    80    1
@<TRIPOS>SUBSTRUCTURE
     1 RES1        1 GROUP             0 ****  ****    0  
     2 RES2       54 GROUP             0 ****  ****    0  
     3 RES3       59 GROUP             0 ****  ****    0  
     4 RES4       64 GROUP             0 ****  ****    0  
     5 RES5       69 GROUP             0 ****  ****    0  
     6 RES6       80 GROUP             0 ****  ****    0  
@<TRIPOS>CRYSIN
   38.1540   12.6320   14.1100   90.0000   95.8920   90.0000    15     1
