@<TRIPOS>MOLECULE
ECAKUP
    86    93     2     0     0
SMALL
USER_CHARGES
****
Generated from the CSD

@<TRIPOS>ATOM
     1 Fe1     -0.1430   2.5494   4.8713   Fe        1 RES1   2.0000
     2 N1       0.8986   2.6771   6.5373   N.ar      1 RES1   0.0000
     3 N2       1.0848   4.0098   4.3331   N.ar      1 RES1   0.0000
     4 N3      -1.2789   1.0685   5.4525   N.ar      1 RES1   0.0000
     5 C1       0.8137   1.8751   7.6087   C.ar      1 RES1   0.0000
     6 H1       0.2129   1.1655   7.5797   H         1 RES1   0.0000
     7 C2       1.5689   2.0435   8.7513   C.ar      1 RES1   0.0000
     8 C3       2.4449   3.1131   8.7722   C.ar      1 RES1   0.0000
     9 H2       2.9798   3.2581   9.5204   H         1 RES1   0.0000
    10 C4       2.5314   3.9572   7.7064   C.ar      1 RES1   0.0000
    11 H3       3.1117   4.6831   7.7278   H         1 RES1   0.0000
    12 C5       1.7454   3.7245   6.5834   C.ar      1 RES1   0.0000
    13 C6       1.7822   4.5253   5.3584   C.ar      1 RES1   0.0000
    14 C7       2.4654   5.7271   5.2259   C.ar      1 RES1   0.0000
    15 H4       2.9164   6.0930   5.9527   H         1 RES1   0.0000
    16 C8       2.4707   6.3677   4.0178   C.ar      1 RES1   0.0000
    17 H5       2.9164   7.1790   3.9262   H         1 RES1   0.0000
    18 C9       1.8182   5.8206   2.9286   C.ar      1 RES1   0.0000
    19 C10      1.1302   4.6387   3.1379   C.ar      1 RES1   0.0000
    20 H6       0.6772   4.2576   2.4201   H         1 RES1   0.0000
    21 C11      1.4270   1.0989   9.9146   C.3       1 RES1   0.0000
    22 H7       2.2323   1.1117  10.4362   H         1 RES1   0.0000
    23 H8       1.2720   0.2093   9.5867   H         1 RES1   0.0000
    24 H9       0.6860   1.3724  10.4616   H         1 RES1   0.0000
    25 C12      1.8249   6.4601   1.5549   C.3       1 RES1   0.0000
    26 H10      1.7525   7.4128   1.6445   H         1 RES1   0.0000
    27 H11      1.0813   6.1292   1.0444   H         1 RES1   0.0000
    28 H12      2.6441   6.2415   1.1048   H         1 RES1   0.0000
    29 C13     -2.4888   1.1784   6.0271   C.ar      1 RES1   0.0000
    30 H13     -2.8024   2.0294   6.2294   H         1 RES1   0.0000
    31 C14     -3.2943   0.0970   6.3350   C.ar      1 RES1   0.0000
    32 C15     -2.8121  -1.1620   6.0310   C.ar      1 RES1   0.0000
    33 H14     -3.3245  -1.9149   6.2196   H         1 RES1   0.0000
    34 C16     -1.5683  -1.3023   5.4459   C.ar      1 RES1   0.0000
    35 H15     -1.2406  -2.1463   5.2356   H         1 RES1   0.0000
    36 C17     -0.8131  -0.1707   5.1762   C.ar      1 RES1   0.0000
    37 C18     -4.6367   0.3320   6.9893   C.3       1 RES1   0.0000
    38 H16     -5.1771  -0.4571   6.9016   H         1 RES1   0.0000
    39 H17     -5.0758   1.0708   6.5626   H         1 RES1   0.0000
    40 H18     -4.5088   0.5307   7.9187   H         1 RES1   0.0000
    41 N1A     -1.1845   2.6771   3.2053   N.ar      1 RES1   0.0000
    42 N2A     -1.3707   4.0098   5.4095   N.ar      1 RES1   0.0000
    43 N3A      0.9930   1.0685   4.2900   N.ar      1 RES1   0.0000
    44 C1A     -1.0996   1.8751   2.1338   C.ar      1 RES1   0.0000
    45 H1A     -0.4988   1.1655   2.1628   H         1 RES1   0.0000
    46 C2A     -1.8548   2.0435   0.9912   C.ar      1 RES1   0.0000
    47 C3A     -2.7308   3.1131   0.9704   C.ar      1 RES1   0.0000
    48 H2A     -3.2657   3.2581   0.2221   H         1 RES1   0.0000
    49 C4A     -2.8173   3.9572   2.0362   C.ar      1 RES1   0.0000
    50 H3A     -3.3977   4.6831   2.0148   H         1 RES1   0.0000
    51 C5A     -2.0314   3.7245   3.1591   C.ar      1 RES1   0.0000
    52 C6A     -2.0682   4.5253   4.3841   C.ar      1 RES1   0.0000
    53 C7A     -2.7513   5.7271   4.5166   C.ar      1 RES1   0.0000
    54 H4A     -3.2024   6.0930   3.7899   H         1 RES1   0.0000
    55 C8A     -2.7566   6.3677   5.7247   C.ar      1 RES1   0.0000
    56 H5A     -3.2023   7.1790   5.8163   H         1 RES1   0.0000
    57 C9A     -2.1041   5.8206   6.8139   C.ar      1 RES1   0.0000
    58 C10A    -1.4161   4.6387   6.6047   C.ar      1 RES1   0.0000
    59 H6A     -0.9631   4.2576   7.3225   H         1 RES1   0.0000
    60 C11A    -1.7129   1.0989  -0.1721   C.3       1 RES1   0.0000
    61 H7A     -2.5182   1.1117  -0.6937   H         1 RES1   0.0000
    62 H8A     -1.5579   0.2093   0.1559   H         1 RES1   0.0000
    63 H9A     -0.9719   1.3724  -0.7190   H         1 RES1   0.0000
    64 C12A    -2.1108   6.4601   8.1876   C.3       1 RES1   0.0000
    65 H10A    -2.0384   7.4128   8.0980   H         1 RES1   0.0000
    66 H11A    -1.3672   6.1292   8.6982   H         1 RES1   0.0000
    67 H12A    -2.9300   6.2415   8.6377   H         1 RES1   0.0000
    68 C13A     2.2028   1.1784   3.7154   C.ar      1 RES1   0.0000
    69 H13A     2.5165   2.0294   3.5132   H         1 RES1   0.0000
    70 C14A     3.0084   0.0970   3.4076   C.ar      1 RES1   0.0000
    71 C15A     2.5262  -1.1620   3.7115   C.ar      1 RES1   0.0000
    72 H14A     3.0386  -1.9149   3.5229   H         1 RES1   0.0000
    73 C16A     1.2824  -1.3023   4.2967   C.ar      1 RES1   0.0000
    74 H15A     0.9547  -2.1463   4.5069   H         1 RES1   0.0000
    75 C17A     0.5271  -0.1707   4.5663   C.ar      1 RES1   0.0000
    76 C18A     4.3507   0.3320   2.7532   C.3       1 RES1   0.0000
    77 H16A     4.8912  -0.4571   2.8409   H         1 RES1   0.0000
    78 H17A     4.7899   1.0708   3.1800   H         1 RES1   0.0000
    79 H18A     4.2229   0.5307   1.8238   H         1 RES1   0.0000
    80 P1       1.9499   8.5350   8.2323   P.3       2 RES2  -1.0000
    81 F1       1.0431   7.5905   7.4277   F         2 RES2   0.0000
    82 F2       2.9220   8.6146   6.9679   F         2 RES2   0.0000
    83 F3       2.9219   9.4750   8.9982   F         2 RES2   0.0000
    84 F4       0.9241   8.4603   9.4288   F         2 RES2   0.0000
    85 F5       1.2401   9.8386   7.7064   F         2 RES2   0.0000
    86 F6       2.7787   7.2994   8.7079   F         2 RES2   0.0000
@<TRIPOS>BOND
     1     1     2    1
     2     2     5   ar
     3     3     1    1
     4     4     1    1
     5     5     6    1
     6     7     5   ar
     7     8     7   ar
     8     9     8    1
     9    10     8   ar
    10    11    10    1
    11    12     2   ar
    12    13     3   ar
    13    14    13   ar
    14    15    14    1
    15    16    14   ar
    16    17    16    1
    17    18    16   ar
    18    19     3   ar
    19    20    19    1
    20    21     7    1
    21    22    21    1
    22    23    21    1
    23    24    21    1
    24    25    18    1
    25    26    25    1
    26    27    25    1
    27    28    25    1
    28    29     4   ar
    29    30    29    1
    30    31    29   ar
    31    32    31   ar
    32    33    32    1
    33    34    32   ar
    34    35    34    1
    35    36     4   ar
    36    37    31    1
    37    38    37    1
    38    39    37    1
    39    40    37    1
    40    41     1    1
    41    42     1    1
    42    43     1    1
    43    44    41   ar
    44    45    44    1
    45    46    44   ar
    46    47    46   ar
    47    48    47    1
    48    49    47   ar
    49    50    49    1
    50    51    41   ar
    51    52    42   ar
    52    53    52   ar
    53    54    53    1
    54    55    53   ar
    55    56    55    1
    56    57    55   ar
    57    58    42   ar
    58    59    58    1
    59    60    46    1
    60    61    60    1
    61    62    60    1
    62    63    60    1
    63    64    57    1
    64    65    64    1
    65    66    64    1
    66    67    64    1
    67    68    43   ar
    68    69    68    1
    69    70    68   ar
    70    71    70   ar
    71    72    71    1
    72    73    71   ar
    73    74    73    1
    74    75    36    1
    75    76    70    1
    76    77    76    1
    77    78    76    1
    78    79    76    1
    79    10    12   ar
    80    12    13    1
    81    18    19   ar
    82    34    36   ar
    83    43    75   ar
    84    49    51   ar
    85    51    52    1
    86    57    58   ar
    87    73    75   ar
    88    80    81    1
    89    82    80    1
    90    83    80    1
    91    84    80    1
    92    85    80    1
    93    86    80    1
@<TRIPOS>SUBSTRUCTURE
     1 RES1        1 GROUP             0 ****  ****    0  
     2 RES2       80 GROUP             0 ****  ****    0  
@<TRIPOS>CRYSIN
    8.6200   11.6903   19.4935   90.0000   91.6810   90.0000    13     1
