@<TRIPOS>MOLECULE
ECAVIP
   728   731    18     0     0
SMALL
USER_CHARGES
****
Generated from the CSD

@<TRIPOS>ATOM
     1 C1      10.4409  22.5246  25.7824   C.ar      1 RES1   0.0000
     2 C2      10.6479  23.7395  25.2302   C.ar      1 RES1   0.0000
     3 H1      10.0173  24.4369  25.3734   H         1 RES1   0.0000
     4 C3      11.7980  23.9817  24.4407   C.ar      1 RES1   0.0000
     5 H2      11.9801  24.8479  24.0930   H         1 RES1   0.0000
     6 C4      12.6376  22.9320  24.1871   C.ar      1 RES1   0.0000
     7 C5      12.3942  21.7245  24.8130   C.ar      1 RES1   0.0000
     8 H3      13.0133  21.0198  24.6739   H         1 RES1   0.0000
     9 C6      13.8299  23.1302  23.3077   C.2       1 RES1   0.0000
    10 C7      15.4534  22.0879  21.7860   C.3       1 RES1   0.0000
    11 C8      16.6591  22.2163  22.7023   C.3       1 RES1   0.0000
    12 H4      16.5977  23.0532  23.2054   H         1 RES1   0.0000
    13 H5      17.4776  22.2200  22.1623   H         1 RES1   0.0000
    14 H6      16.6802  21.4602  23.3240   H         1 RES1   0.0000
    15 C9      15.4764  20.7959  20.9638   C.3       1 RES1   0.0000
    16 H7      14.6809  20.7592  20.3911   H         1 RES1   0.0000
    17 H8      15.4802  20.0252  21.5651   H         1 RES1   0.0000
    18 H9      16.2815  20.7812  20.4034   H         1 RES1   0.0000
    19 C10     15.3901  23.2367  20.8166   C.2       1 RES1   0.0000
    20 C11     13.9736  24.6020  19.3726   C.3       1 RES1   0.0000
    21 C12     12.5437  25.0975  19.4135   C.3       1 RES1   0.0000
    22 H10     12.4517  25.8719  18.8040   H         1 RES1   0.0000
    23 H11     12.3386  25.4132  20.3298   H         1 RES1   0.0000
    24 C13     11.4952  23.9964  19.0086   C.3       1 RES1   0.0000
    25 H12     11.5048  23.2660  19.6753   H         1 RES1   0.0000
    26 H13     10.5885  24.3928  18.9922   H         1 RES1   0.0000
    27 C14     11.8210  23.4385  17.6546   C.3       1 RES1   0.0000
    28 H14     11.2057  22.6935  17.4460   H         1 RES1   0.0000
    29 H15     11.6945  24.1432  16.9674   H         1 RES1   0.0000
    30 C15     13.2222  22.9541  17.6055   C.3       1 RES1   0.0000
    31 H16     13.4158  22.6201  16.6933   H         1 RES1   0.0000
    32 H17     13.3161  22.1906  18.2273   H         1 RES1   0.0000
    33 C16     14.2861  24.0478  17.9818   C.3       1 RES1   0.0000
    34 H18     15.1927  23.6514  17.9777   H         1 RES1   0.0000
    35 H19     14.2631  24.7782  17.3151   H         1 RES1   0.0000
    36 C17     14.8784  25.8279  19.6917   C.2       1 RES1   0.0000
    37 C18     15.4381  27.4575  21.5078   C.3       1 RES1   0.0000
    38 C19     15.3422  27.4722  23.0336   C.3       1 RES1   0.0000
    39 H20     14.4068  27.3658  23.3036   H         1 RES1   0.0000
    40 H21     15.6853  28.3237  23.3772   H         1 RES1   0.0000
    41 H22     15.8732  26.7345  23.4018   H         1 RES1   0.0000
    42 C20     14.6464  28.6210  20.9065   C.3       1 RES1   0.0000
    43 H23     13.6995  28.5256  21.1397   H         1 RES1   0.0000
    44 H24     14.7480  28.6137  19.9330   H         1 RES1   0.0000
    45 H25     14.9876  29.4652  21.2624   H         1 RES1   0.0000
    46 C21     16.9370  27.5933  21.1070   C.2       1 RES1   0.0000
    47 C22     19.1145  26.5803  20.6448   C.3       1 RES1   0.0000
    48 C23     19.9713  27.1235  21.8310   C.3       1 RES1   0.0000
    49 H26     20.9144  27.2153  21.5406   H         1 RES1   0.0000
    50 H27     19.6436  28.0227  22.0846   H         1 RES1   0.0000
    51 C24     19.9004  26.2170  23.0091   C.3       1 RES1   0.0000
    52 H28     18.9612  26.1399  23.3159   H         1 RES1   0.0000
    53 H29     20.4371  26.5913  23.7535   H         1 RES1   0.0000
    54 C25     20.4371  24.8149  22.6368   C.3       1 RES1   0.0000
    55 H30     21.3917  24.8883  22.3873   H         1 RES1   0.0000
    56 H31     20.3720  24.2203  23.4222   H         1 RES1   0.0000
    57 C26     19.6723  24.2277  21.5038   C.3       1 RES1   0.0000
    58 H32     18.7446  24.0441  21.7983   H         1 RES1   0.0000
    59 H33     20.0844  23.3688  21.2420   H         1 RES1   0.0000
    60 C27     19.6493  25.1672  20.3093   C.3       1 RES1   0.0000
    61 H34     19.0839  24.7709  19.6017   H         1 RES1   0.0000
    62 H35     20.5675  25.2517  19.9494   H         1 RES1   0.0000
    63 C28     19.3599  27.4612  19.4340   C.2       1 RES1   0.0000
    64 C29     18.7254  27.8025  17.1065   C.3       1 RES1   0.0000
    65 H36     19.4461  28.4815  17.2578   H         1 RES1   0.0000
    66 C30     19.3081  26.7381  16.1329   C.3       1 RES1   0.0000
    67 H37     19.4059  27.1786  15.2412   H         1 RES1   0.0000
    68 C31     18.2577  25.6114  15.9693   C.3       1 RES1   0.0000
    69 H38     18.5932  24.9397  15.3394   H         1 RES1   0.0000
    70 H39     17.4220  25.9931  15.6298   H         1 RES1   0.0000
    71 H40     18.0929  25.1893  16.8406   H         1 RES1   0.0000
    72 C32     20.6921  26.2023  16.5256   C.3       1 RES1   0.0000
    73 H41     20.9949  25.5600  15.8507   H         1 RES1   0.0000
    74 H42     20.6384  25.7618  17.3969   H         1 RES1   0.0000
    75 H43     21.3265  26.9473  16.5747   H         1 RES1   0.0000
    76 C33     17.5849  28.5256  16.4561   C.2       1 RES1   0.0000
    77 C34     15.1850  29.0945  16.2925   C.3       1 RES1   0.0000
    78 C35     15.1620  30.5699  16.7138   C.3       1 RES1   0.0000
    79 H44     15.9939  31.0030  16.4315   H         1 RES1   0.0000
    80 H45     15.0796  30.6287  17.6914   H         1 RES1   0.0000
    81 H46     14.3992  31.0177  16.2966   H         1 RES1   0.0000
    82 C36     13.9257  28.4375  16.7056   C.3       1 RES1   0.0000
    83 H47     13.9372  27.5016  16.4152   H         1 RES1   0.0000
    84 H48     13.1666  28.8963  16.2925   H         1 RES1   0.0000
    85 H49     13.8414  28.4742  17.6832   H         1 RES1   0.0000
    86 C37     15.2656  28.9660  14.8076   C.2       1 RES1   0.0000
    87 C38     15.6738  27.6704  12.8646   C.3       1 RES1   0.0000
    88 H50     15.9058  26.7491  12.6233   H         1 RES1   0.0000
    89 H51     16.3639  28.2797  12.5251   H         1 RES1   0.0000
    90 H52     14.8094  27.9016  12.4638   H         1 RES1   0.0000
    91 C39      9.2640  22.1246  26.5555   C.ar      1 RES1   0.0000
    92 C40      8.1369  22.8660  26.6823   C.ar      1 RES1   0.0000
    93 H53      8.0947  23.7432  26.3265   H         1 RES1   0.0000
    94 C41      7.0462  22.3191  27.3409   C.ar      1 RES1   0.0000
    95 H54      6.2335  22.8072  27.4064   H         1 RES1   0.0000
    96 C42      7.1478  21.0675  27.8972   C.ar      1 RES1   0.0000
    97 C43      8.3458  20.4105  27.7827   C.ar      1 RES1   0.0000
    98 H55      8.4321  19.5627  28.1999   H         1 RES1   0.0000
    99 C44      6.0016  20.4986  28.6090   C.2       1 RES1   0.0000
   100 C45      5.2751  19.2948  30.6297   C.3       1 RES1   0.0000
   101 C46      5.9249  18.9718  31.9918   C.3       1 RES1   0.0000
   102 H56      6.2833  19.7939  32.3845   H         1 RES1   0.0000
   103 H57      6.6533  18.3295  31.8568   H         1 RES1   0.0000
   104 H58      5.2540  18.5864  32.5890   H         1 RES1   0.0000
   105 C47      4.7365  17.9918  30.0284   C.3       1 RES1   0.0000
   106 H59      4.3320  18.1753  29.1571   H         1 RES1   0.0000
   107 H60      4.0598  17.6101  30.6256   H         1 RES1   0.0000
   108 H61      5.4725  17.3532  29.9179   H         1 RES1   0.0000
   109 C48      4.1250  20.2637  30.8424   C.2       1 RES1   0.0000
   110 C49      3.4963  22.6458  31.1328   C.3       1 RES1   0.0000
   111 C50      4.1346  23.9854  30.7606   C.3       1 RES1   0.0000
   112 H62      3.4330  24.6828  30.7074   H         1 RES1   0.0000
   113 H63      4.5639  23.9157  29.8729   H         1 RES1   0.0000
   114 C51      5.1927  24.4002  31.8159   C.3       1 RES1   0.0000
   115 H64      5.9939  23.8313  31.6932   H         1 RES1   0.0000
   116 H65      5.4649  25.3361  31.6359   H         1 RES1   0.0000
   117 C52      4.7595  24.3011  33.2353   C.3       1 RES1   0.0000
   118 H66      5.5454  24.4552  33.8162   H         1 RES1   0.0000
   119 H67      4.1058  25.0241  33.4153   H         1 RES1   0.0000
   120 C53      4.1518  23.0165  33.5953   C.3       1 RES1   0.0000
   121 H68      3.7953  23.0642  34.5197   H         1 RES1   0.0000
   122 H69      4.8361  22.3044  33.5626   H         1 RES1   0.0000
   123 C54      2.9807  22.6861  32.5849   C.3       1 RES1   0.0000
   124 H70      2.5858  21.8089  32.8181   H         1 RES1   0.0000
   125 H71      2.2714  23.3725  32.6667   H         1 RES1   0.0000
   126 C55      2.2983  22.4769  30.1593   C.2       1 RES1   0.0000
   127 C56      1.5085  21.9814  27.9013   C.3       1 RES1   0.0000
   128 C57      2.1143  21.2107  26.7478   C.3       1 RES1   0.0000
   129 H72      2.3807  20.3188  27.0546   H         1 RES1   0.0000
   130 H73      2.9001  21.6878  26.4083   H         1 RES1   0.0000
   131 H74      1.4529  21.1226  26.0279   H         1 RES1   0.0000
   132 C58      1.1003  23.4165  27.5004   C.3       1 RES1   0.0000
   133 H75      1.8919  23.9083  27.1936   H         1 RES1   0.0000
   134 H76      0.7111  23.8753  28.2776   H         1 RES1   0.0000
   135 H77      0.4390  23.3761  26.7805   H         1 RES1   0.0000
   136 C59      0.2799  21.2107  28.4249   C.2       1 RES1   0.0000
   137 C60     -0.5655  19.2911  29.7052   C.3       1 RES1   0.0000
   138 C61     -1.0428  18.4983  28.4985   C.3       1 RES1   0.0000
   139 H78     -1.8651  18.0028  28.7439   H         1 RES1   0.0000
   140 H79     -1.2766  19.1296  27.7704   H         1 RES1   0.0000
   141 C62     -0.0192  17.5257  27.9913   C.3       1 RES1   0.0000
   142 H80      0.7782  18.0175  27.6681   H         1 RES1   0.0000
   143 H81     -0.3929  17.0155  27.2264   H         1 RES1   0.0000
   144 C63      0.3814  16.5677  29.0957   C.3       1 RES1   0.0000
   145 H82     -0.4102  16.0539  29.3943   H         1 RES1   0.0000
   146 H83      1.0543  15.9254  28.7562   H         1 RES1   0.0000
   147 C64      0.9584  17.3348  30.2656   C.3       1 RES1   0.0000
   148 H84      1.7941  17.7826  29.9834   H         1 RES1   0.0000
   149 H85      1.1827  16.7035  30.9937   H         1 RES1   0.0000
   150 C65     -0.0230  18.3735  30.7810   C.3       1 RES1   0.0000
   151 H86     -0.7821  17.9074  31.2146   H         1 RES1   0.0000
   152 H87      0.4255  18.9204  31.4723   H         1 RES1   0.0000
   153 C66     -1.6849  20.1206  30.3515   C.2       1 RES1   0.0000
   154 C67     -2.2120  21.8897  31.9632   C.3       1 RES1   0.0000
   155 H88     -3.1225  21.4969  31.8323   H         1 RES1   0.0000
   156 C68     -1.8171  21.6511  33.4685   C.3       1 RES1   0.0000
   157 H89     -0.8511  21.8860  33.5748   H         1 RES1   0.0000
   158 C69     -2.6241  22.4769  34.4747   C.3       1 RES1   0.0000
   159 H90     -2.3136  22.2751  35.3828   H         1 RES1   0.0000
   160 H91     -3.5749  22.2494  34.3970   H         1 RES1   0.0000
   161 H92     -2.4995  23.4312  34.2907   H         1 RES1   0.0000
   162 C70     -1.9916  20.1720  33.8284   C.3       1 RES1   0.0000
   163 H93     -1.7347  20.0325  34.7652   H         1 RES1   0.0000
   164 H94     -1.4242  19.6251  33.2476   H         1 RES1   0.0000
   165 H95     -2.9289  19.9150  33.7057   H         1 RES1   0.0000
   166 C71     -2.3232  23.3982  31.6646   C.2       1 RES1   0.0000
   167 C72     -1.0255  25.5453  31.5214   C.3       1 RES1   0.0000
   168 C73     -1.5162  26.1986  32.7690   C.3       1 RES1   0.0000
   169 H96     -1.4299  27.1712  32.6831   H         1 RES1   0.0000
   170 H97     -0.9872  25.8866  33.5298   H         1 RES1   0.0000
   171 H98     -2.4593  25.9674  32.9081   H         1 RES1   0.0000
   172 C74      0.3853  25.8903  31.2841   C.3       1 RES1   0.0000
   173 H99      0.4792  26.8629  31.2432   H         1 RES1   0.0000
   174 H100     0.6805  25.4939  30.4374   H         1 RES1   0.0000
   175 H101     0.9316  25.5416  32.0204   H         1 RES1   0.0000
   176 C75     -1.8133  25.8866  30.3556   C.2       1 RES1   0.0000
   177 C76     -2.5685  25.4058  28.1958   C.3       1 RES1   0.0000
   178 H102    -2.5091  24.6461  27.5822   H         1 RES1   0.0000
   179 H103    -2.1526  26.1913  27.7868   H         1 RES1   0.0000
   180 H104    -3.5116  25.5967  28.3881   H         1 RES1   0.0000
   181 C77      9.8870  17.5440  26.1342   C.ar      1 RES1   0.0000
   182 C78      9.2947  16.5971  25.4143   C.ar      1 RES1   0.0000
   183 H105     9.0186  15.7896  25.8315   H         1 RES1   0.0000
   184 C79      9.0742  16.7880  24.0440   C.ar      1 RES1   0.0000
   185 H106     8.6065  16.1273  23.5449   H         1 RES1   0.0000
   186 C80      9.5323  17.9147  23.4263   C.ar      1 RES1   0.0000
   187 C81     10.0959  18.8764  24.2362   C.ar      1 RES1   0.0000
   188 H107    10.3757  19.6912  23.8394   H         1 RES1   0.0000
   189 C82      9.3637  18.0138  21.9619   C.2       1 RES1   0.0000
   190 C83     10.1189  18.8653  19.8021   C.3       1 RES1   0.0000
   191 C84     11.0179  17.6762  19.4053   C.3       1 RES1   0.0000
   192 H108    10.5885  16.8357  19.6753   H         1 RES1   0.0000
   193 H109    11.8862  17.7569  19.8512   H         1 RES1   0.0000
   194 H110    11.1463  17.6725  18.4318   H         1 RES1   0.0000
   195 C85     10.7591  20.1793  19.3726   C.3       1 RES1   0.0000
   196 H111    10.1783  20.9244  19.6344   H         1 RES1   0.0000
   197 H112    10.8760  20.1830  18.3991   H         1 RES1   0.0000
   198 H113    11.6313  20.2747  19.8062   H         1 RES1   0.0000
   199 C86      8.7062  18.8653  19.2581   C.2       1 RES1   0.0000
   200 C87      7.1651  18.0395  17.5646   C.3       1 RES1   0.0000
   201 C88      7.1057  16.7512  16.7261   C.3       1 RES1   0.0000
   202 H114     7.0041  15.9695  17.3274   H         1 RES1   0.0000
   203 H115     7.9491  16.6448  16.2229   H         1 RES1   0.0000
   204 C89      5.9000  16.8100  15.7280   C.3       1 RES1   0.0000
   205 H116     5.8463  15.9621  15.2208   H         1 RES1   0.0000
   206 H117     5.0547  16.9238  16.2311   H         1 RES1   0.0000
   207 C90      6.0859  17.9698  14.7708   C.3       1 RES1   0.0000
   208 H118     6.9408  17.8634  14.2840   H         1 RES1   0.0000
   209 H119     5.3498  17.9698  14.1081   H         1 RES1   0.0000
   210 C91      6.0917  19.2507  15.5112   C.3       1 RES1   0.0000
   211 H120     5.2080  19.3939  15.9325   H         1 RES1   0.0000
   212 H121     6.2546  19.9958  14.8771   H         1 RES1   0.0000
   213 C92      7.2034  19.2581  16.6197   C.3       1 RES1   0.0000
   214 H122     8.0909  19.2911  16.1820   H         1 RES1   0.0000
   215 H123     7.1057  20.0839  17.1637   H         1 RES1   0.0000
   216 C93      5.9556  18.1166  18.5136   C.2       1 RES1   0.0000
   217 C94      4.8879  16.9788  20.3830   C.3       1 RES1   0.0000
   218 C95      3.7589  16.3328  19.6221   C.3       1 RES1   0.0000
   219 H124     4.0713  15.4923  19.2294   H         1 RES1   0.0000
   220 H125     3.4579  16.9384  18.9104   H         1 RES1   0.0000
   221 H126     3.0152  16.1530  20.2316   H         1 RES1   0.0000
   222 C96      5.3115  16.0979  21.5815   C.3       1 RES1   0.0000
   223 H127     5.6546  15.2428  21.2542   H         1 RES1   0.0000
   224 H128     4.5371  15.9401  22.1623   H         1 RES1   0.0000
   225 H129     6.0131  16.5567  22.0928   H         1 RES1   0.0000
   226 C97      4.3282  18.3185  20.9965   C.2       1 RES1   0.0000
   227 C98      5.0029  20.4619  22.1092   C.3       1 RES1   0.0000
   228 C99      6.3581  21.1042  22.4241   C.3       1 RES1   0.0000
   229 H130     6.8871  21.1666  21.5897   H         1 RES1   0.0000
   230 H131     6.2105  22.0218  22.7595   H         1 RES1   0.0000
   231 C100     7.1421  20.3335  23.4386   C.3       1 RES1   0.0000
   232 H132     7.9376  20.8620  23.6963   H         1 RES1   0.0000
   233 H133     7.4603  19.4930  23.0254   H         1 RES1   0.0000
   234 C101     6.3734  19.9885  24.6862   C.3       1 RES1   0.0000
   235 H134     6.9216  19.3865  25.2466   H         1 RES1   0.0000
   236 H135     6.2105  20.8179  25.2016   H         1 RES1   0.0000
   237 C102     5.0757  19.3351  24.3998   C.3       1 RES1   0.0000
   238 H136     4.5678  19.2250  25.2425   H         1 RES1   0.0000
   239 H137     5.2348  18.4359  24.0153   H         1 RES1   0.0000
   240 C103     4.2553  20.1793  23.4099   C.3       1 RES1   0.0000
   241 H138     3.4119  19.7022  23.2013   H         1 RES1   0.0000
   242 H139     4.0196  21.0382  23.8394   H         1 RES1   0.0000
   243 C104     4.2228  21.3942  21.2133   C.2       1 RES1   0.0000
   244 C105     4.0502  22.3374  18.9472   C.3       1 RES1   0.0000
   245 H140     4.0177  23.2220  19.4135   H         1 RES1   0.0000
   246 C106     5.0623  22.4989  17.7691   C.3       1 RES1   0.0000
   247 H141     5.1505  21.6144  17.3110   H         1 RES1   0.0000
   248 C107     6.4654  22.9210  18.2927   C.3       1 RES1   0.0000
   249 H142     7.0884  22.9908  17.5360   H         1 RES1   0.0000
   250 H143     6.7951  22.2494  18.9227   H         1 RES1   0.0000
   251 H144     6.4003  23.7872  18.7427   H         1 RES1   0.0000
   252 C108     4.5505  23.5193  16.7465   C.3       1 RES1   0.0000
   253 H145     5.1888  23.5890  16.0061   H         1 RES1   0.0000
   254 H146     4.4547  24.3928  17.1801   H         1 RES1   0.0000
   255 H147     3.6803  23.2257  16.4029   H         1 RES1   0.0000
   256 C109     2.6433  22.0512  18.4850   C.2       1 RES1   0.0000
   257 C110     1.0197  20.3335  17.8673   C.3       1 RES1   0.0000
   258 C111    -0.0364  20.7042  18.8695   C.3       1 RES1   0.0000
   259 H148     0.1955  20.3225  19.7448   H         1 RES1   0.0000
   260 H149    -0.9028  20.3481  18.5791   H         1 RES1   0.0000
   261 H150    -0.0901  21.6805  18.9431   H         1 RES1   0.0000
   262 C112     1.1213  18.8580  17.8346   C.3       1 RES1   0.0000
   263 H151     1.8267  18.5937  17.2087   H         1 RES1   0.0000
   264 H152     0.2645  18.4800  17.5401   H         1 RES1   0.0000
   265 H153     1.3379  18.5277  18.7304   H         1 RES1   0.0000
   266 C113     0.8223  20.8546  16.4765   C.2       1 RES1   0.0000
   267 C114     1.4491  22.0622  14.5826   C.3       1 RES1   0.0000
   268 H154     2.2503  22.3007  14.0713   H         1 RES1   0.0000
   269 H155     1.0044  22.8807  14.8935   H         1 RES1   0.0000
   270 H156     0.8377  21.5520  14.0141   H         1 RES1   0.0000
   271 C115    10.1189  17.4633  27.5536   C.ar      1 RES1   0.0000
   272 C116     9.8007  16.4283  28.3267   C.ar      1 RES1   0.0000
   273 H157     9.3924  15.6648  27.9340   H         1 RES1   0.0000
   274 C117    10.0518  16.4283  29.7093   C.ar      1 RES1   0.0000
   275 H158     9.8180  15.6832  30.2492   H         1 RES1   0.0000
   276 C118    10.6384  17.5294  30.2452   C.ar      1 RES1   0.0000
   277 C119    10.9738  18.5827  29.4107   C.ar      1 RES1   0.0000
   278 H159    11.3974  19.3498  29.7788   H         1 RES1   0.0000
   279 C120    10.9240  17.5697  31.6932   C.2       1 RES1   0.0000
   280 C121    11.0140  18.9718  33.6975   C.3       1 RES1   0.0000
   281 C122    11.1425  20.4876  33.9512   C.3       1 RES1   0.0000
   282 H160    11.9399  20.8290  33.4971   H         1 RES1   0.0000
   283 H161    11.2230  20.6528  34.9165   H         1 RES1   0.0000
   284 H162    10.3470  20.9464  33.6075   H         1 RES1   0.0000
   285 C123     9.7758  18.5057  34.4297   C.3       1 RES1   0.0000
   286 H163     9.6646  17.5404  34.2988   H         1 RES1   0.0000
   287 H164     8.9918  18.9755  34.0739   H         1 RES1   0.0000
   288 H165     9.8678  18.6965  35.3828   H         1 RES1   0.0000
   289 C124    12.3060  18.2818  34.1025   C.2       1 RES1   0.0000
   290 C125    13.5347  17.1697  35.9391   C.3       1 RES1   0.0000
   291 C126    14.7461  18.0982  35.9841   C.3       1 RES1   0.0000
   292 H166    14.9761  18.3809  35.0638   H         1 RES1   0.0000
   293 H167    15.5224  17.6064  36.3523   H         1 RES1   0.0000
   294 C127    14.4701  19.3718  36.8718   C.3       1 RES1   0.0000
   295 H168    15.2886  19.9297  36.9209   H         1 RES1   0.0000
   296 H169    13.7513  19.9150  36.4586   H         1 RES1   0.0000
   297 C128    14.0560  18.9461  38.2625   C.3       1 RES1   0.0000
   298 H170    14.8247  18.5020  38.7002   H         1 RES1   0.0000
   299 H171    13.8318  19.7536  38.7902   H         1 RES1   0.0000
   300 C129    12.9059  18.0322  38.2830   C.3       1 RES1   0.0000
   301 H172    12.1009  18.5093  37.9598   H         1 RES1   0.0000
   302 H173    12.7373  17.7386  39.2115   H         1 RES1   0.0000
   303 C130    13.1609  16.7769  37.3790   C.3       1 RES1   0.0000
   304 H174    13.8931  16.2374  37.7717   H         1 RES1   0.0000
   305 H175    12.3443  16.2191  37.3626   H         1 RES1   0.0000
   306 C131    13.9142  15.8777  35.1824   C.2       1 RES1   0.0000
   307 C132    12.9826  13.8480  34.1025   C.3       1 RES1   0.0000
   308 C133    13.3660  12.8938  35.1988   C.3       1 RES1   0.0000
   309 H176    12.6855  12.9121  35.9023   H         1 RES1   0.0000
   310 H177    14.2324  13.1544  35.5751   H         1 RES1   0.0000
   311 H178    13.4312  11.9835  34.8347   H         1 RES1   0.0000
   312 C134    11.6658  13.5140  33.4235   C.3       1 RES1   0.0000
   313 H179    10.9412  13.5434  34.0780   H         1 RES1   0.0000
   314 H180    11.7175  12.6148  33.0349   H         1 RES1   0.0000
   315 H181    11.4913  14.1674  32.7117   H         1 RES1   0.0000
   316 C135    14.0867  13.7636  32.9940   C.2       1 RES1   0.0000
   317 C136    15.2406  14.8757  31.1001   C.3       1 RES1   0.0000
   318 C137    15.3748  16.3292  30.5683   C.3       1 RES1   0.0000
   319 H182    15.5742  16.9274  31.3291   H         1 RES1   0.0000
   320 H183    16.1435  16.3695  29.9466   H         1 RES1   0.0000
   321 C138    14.1672  16.8430  29.8606   C.3       1 RES1   0.0000
   322 H184    14.3762  17.7275  29.4680   H         1 RES1   0.0000
   323 H185    13.4369  16.9678  30.5192   H         1 RES1   0.0000
   324 C139    13.6918  15.9181  28.7685   C.3       1 RES1   0.0000
   325 H186    12.8523  16.2704  28.3799   H         1 RES1   0.0000
   326 H187    14.3723  15.8814  28.0486   H         1 RES1   0.0000
   327 C140    13.4503  14.5270  29.3043   C.3       1 RES1   0.0000
   328 H188    13.2031  13.9251  28.5558   H         1 RES1   0.0000
   329 H189    12.6951  14.5491  29.9425   H         1 RES1   0.0000
   330 C141    14.6924  13.9802  30.0038   C.3       1 RES1   0.0000
   331 H190    14.4720  13.0993  30.3965   H         1 RES1   0.0000
   332 H191    15.3997  13.8370  29.3248   H         1 RES1   0.0000
   333 C142    16.5997  14.4316  31.5868   C.2       1 RES1   0.0000
   334 C143    18.2654  14.4940  33.3335   C.3       1 RES1   0.0000
   335 H192    18.9439  14.9088  32.7240   H         1 RES1   0.0000
   336 C144    18.3919  15.1437  34.7693   C.3       1 RES1   0.0000
   337 H193    17.6175  14.8537  35.3296   H         1 RES1   0.0000
   338 C145    18.3305  16.6925  34.5729   C.3       1 RES1   0.0000
   339 H194    18.3536  17.1366  35.4442   H         1 RES1   0.0000
   340 H195    17.5006  16.9311  34.1066   H         1 RES1   0.0000
   341 H196    19.0973  16.9861  34.0371   H         1 RES1   0.0000
   342 C146    19.6896  14.8060  35.4974   C.3       1 RES1   0.0000
   343 H197    19.6800  15.2134  36.3891   H         1 RES1   0.0000
   344 H198    20.4506  15.1547  34.9860   H         1 RES1   0.0000
   345 H199    19.7720  13.8334  35.5833   H         1 RES1   0.0000
   346 C147    18.5472  13.0149  33.4562   C.2       1 RES1   0.0000
   347 C148    17.6252  10.7503  33.8939   C.3       1 RES1   0.0000
   348 C149    17.6827  10.1374  32.5113   C.3       1 RES1   0.0000
   349 H200    17.7823   9.1647  32.5931   H         1 RES1   0.0000
   350 H201    18.4494  10.5044  32.0245   H         1 RES1   0.0000
   351 H202    16.8565  10.3429  32.0286   H         1 RES1   0.0000
   352 C150    16.3811  10.2768  34.5606   C.3       1 RES1   0.0000
   353 H203    16.3064  10.6842  35.4442   H         1 RES1   0.0000
   354 H204    16.4137   9.3005  34.6506   H         1 RES1   0.0000
   355 H205    15.6048  10.5264  34.0166   H         1 RES1   0.0000
   356 C151    18.7753  10.4493  34.7283   C.2       1 RES1   0.0000
   357 C152    20.0097  10.8714  36.6427   C.3       1 RES1   0.0000
   358 H206    20.0001  11.4403  37.4403   H         1 RES1   0.0000
   359 H207    20.8282  11.0403  36.1273   H         1 RES1   0.0000
   360 H208    19.9828   9.9282  36.9127   H         1 RES1   0.0000
   361 C153    13.9180  20.0729  27.1650   C.ar      1 RES1   0.0000
   362 C154    15.2080  19.7169  26.9932   C.ar      1 RES1   0.0000
   363 H209    15.8962  20.2454  27.3777   H         1 RES1   0.0000
   364 C155    15.5473  18.5717  26.2528   C.ar      1 RES1   0.0000
   365 H210    16.4578  18.3295  26.1260   H         1 RES1   0.0000
   366 C156    14.5276  17.7973  25.7047   C.ar      1 RES1   0.0000
   367 C157    13.2203  18.2524  25.8765   C.ar      1 RES1   0.0000
   368 H211    12.5130  17.7643  25.4715   H         1 RES1   0.0000
   369 C158    14.7863  16.4650  25.0952   C.2       1 RES1   0.0000
   370 C159    13.8816  14.8537  23.3895   C.3       1 RES1   0.0000
   371 C160    13.0785  14.0242  24.3507   C.3       1 RES1   0.0000
   372 H212    13.5768  13.9214  25.1852   H         1 RES1   0.0000
   373 H213    12.9117  13.1433  23.9581   H         1 RES1   0.0000
   374 H214    12.2236  14.4720  24.5307   H         1 RES1   0.0000
   375 C161    13.2299  15.1070  22.0396   C.3       1 RES1   0.0000
   376 H215    13.8394  15.6281  21.4751   H         1 RES1   0.0000
   377 H216    12.3980  15.6061  22.1705   H         1 RES1   0.0000
   378 H217    13.0344  14.2518  21.6060   H         1 RES1   0.0000
   379 C162    15.2905  14.3435  23.0827   C.2       1 RES1   0.0000
   380 C163    17.7210  14.6775  22.3873   C.3       1 RES1   0.0000
   381 C164    18.6507  15.8263  22.3300   C.3       1 RES1   0.0000
   382 H218    19.5784  15.4813  22.3341   H         1 RES1   0.0000
   383 H219    18.5299  16.3695  23.1481   H         1 RES1   0.0000
   384 C165    18.4801  16.7623  21.0824   C.3       1 RES1   0.0000
   385 H220    17.6520  17.2945  21.1765   H         1 RES1   0.0000
   386 H221    19.2449  17.3862  21.0252   H         1 RES1   0.0000
   387 C166    18.4091  15.9401  19.8389   C.3       1 RES1   0.0000
   388 H222    18.1945  16.5457  19.0822   H         1 RES1   0.0000
   389 H223    19.3081  15.5657  19.6630   H         1 RES1   0.0000
   390 C167    17.4661  14.8574  19.8226   C.3       1 RES1   0.0000
   391 H224    17.5907  14.3289  18.9922   H         1 RES1   0.0000
   392 H225    16.5479  15.2281  19.8103   H         1 RES1   0.0000
   393 C168    17.6328  13.9178  21.0661   C.3       1 RES1   0.0000
   394 H226    16.8642  13.2938  21.1029   H         1 RES1   0.0000
   395 H227    18.4532  13.3746  20.9515   H         1 RES1   0.0000
   396 C169    18.0909  13.6865  23.5367   C.2       1 RES1   0.0000
   397 C170    18.3459  13.4370  25.9788   C.3       1 RES1   0.0000
   398 C171    19.8333  13.7489  26.1260   C.3       1 RES1   0.0000
   399 H228    19.9618  14.7179  26.1710   H         1 RES1   0.0000
   400 H229    20.3202  13.3893  25.3570   H         1 RES1   0.0000
   401 H230    20.1745  13.3342  26.9482   H         1 RES1   0.0000
   402 C172    17.5696  13.8958  27.2468   C.3       1 RES1   0.0000
   403 H231    17.6309  14.8684  27.3327   H         1 RES1   0.0000
   404 H232    17.9606  13.4737  28.0404   H         1 RES1   0.0000
   405 H233    16.6284  13.6315  27.1691   H         1 RES1   0.0000
   406 C173    18.2232  11.8551  25.9542   C.2       1 RES1   0.0000
   407 C174    16.5096  10.0676  25.8847   C.3       1 RES1   0.0000
   408 C175    15.0125  10.1007  25.6106   C.3       1 RES1   0.0000
   409 H234    14.8496  10.5998  24.7721   H         1 RES1   0.0000
   410 H235    14.6867   9.1758  25.4838   H         1 RES1   0.0000
   411 C176    14.2266  10.7430  26.7151   C.3       1 RES1   0.0000
   412 H236    13.2625  10.5705  26.5678   H         1 RES1   0.0000
   413 H237    14.3685  11.7229  26.6864   H         1 RES1   0.0000
   414 C177    14.6100  10.2365  28.0731   C.3       1 RES1   0.0000
   415 H238    14.1404  10.7833  28.7521   H         1 RES1   0.0000
   416 H239    14.2726   9.3079  28.1631   H         1 RES1   0.0000
   417 C178    16.0610  10.2328  28.4085   C.3       1 RES1   0.0000
   418 H240    16.2163   9.7520  29.2593   H         1 RES1   0.0000
   419 H241    16.3907  11.1614  28.5067   H         1 RES1   0.0000
   420 C179    16.7952   9.5281  27.2509   C.2       1 RES1   0.0000
   421 H242    17.3913   8.8014  27.3982   H         1 RES1   0.0000
   422 C180    17.2590   9.3189  24.7802   C.2       1 RES1   0.0000
   423 C181    18.4149   9.0473  22.6246   C.3       1 RES1   0.0000
   424 H243    17.9529   8.1774  22.4405   H         1 RES1   0.0000
   425 C182    18.4590   9.8988  21.3565   C.3       1 RES1   0.0000
   426 H244    18.7484  10.8017  21.6756   H         1 RES1   0.0000
   427 C183    17.0482  10.1594  20.6938   C.3       1 RES1   0.0000
   428 H245    17.1594  10.7099  19.8921   H         1 RES1   0.0000
   429 H246    16.4674  10.6218  21.3360   H         1 RES1   0.0000
   430 H247    16.6418   9.3005  20.4484   H         1 RES1   0.0000
   431 C184    19.4653   9.5501  20.2602   C.3       1 RES1   0.0000
   432 H248    19.3906  10.1961  19.5280   H         1 RES1   0.0000
   433 H249    19.2794   8.6472  19.9248   H         1 RES1   0.0000
   434 H250    20.3720   9.5795  20.6325   H         1 RES1   0.0000
   435 C185    19.7969   8.7977  23.1686   C.2       1 RES1   0.0000
   436 C186    21.7770   9.6015  24.4366   C.3       1 RES1   0.0000
   437 C187    22.2370  10.9448  24.8784   C.3       1 RES1   0.0000
   438 H251    21.5968  11.3155  25.5206   H         1 RES1   0.0000
   439 H252    22.3022  11.5431  24.1053   H         1 RES1   0.0000
   440 H253    23.1168  10.8678  25.3038   H         1 RES1   0.0000
   441 C188    21.6313   8.7133  25.5943   C.3       1 RES1   0.0000
   442 H254    21.2805   7.8471  25.3038   H         1 RES1   0.0000
   443 H255    21.0103   9.1170  26.2406   H         1 RES1   0.0000
   444 H256    22.5054   8.5848  26.0197   H         1 RES1   0.0000
   445 C189    22.5591   8.8895  23.3813   C.2       1 RES1   0.0000
   446 C190    23.3890   8.9886  21.1888   C.3       1 RES1   0.0000
   447 H257    23.2510   9.5465  20.3952   H         1 RES1   0.0000
   448 H258    23.1034   8.0710  20.9965   H         1 RES1   0.0000
   449 H259    24.3398   8.9922  21.4260   H         1 RES1   0.0000
   450 C191    13.4503  21.1703  27.9790   C.ar      1 RES1   0.0000
   451 C192    14.2171  22.0879  28.5803   C.ar      1 RES1   0.0000
   452 H260    15.1563  22.0695  28.4412   H         1 RES1   0.0000
   453 C193    13.6612  23.0788  29.4107   C.ar      1 RES1   0.0000
   454 H261    14.2075  23.7468  29.8075   H         1 RES1   0.0000
   455 C194    12.2887  23.0495  29.6275   C.ar      1 RES1   0.0000
   456 C195    11.5584  22.1099  28.9566   C.ar      1 RES1   0.0000
   457 H262    10.6192  22.1062  29.0916   H         1 RES1   0.0000
   458 C196    11.6773  24.0258  30.5519   C.2       1 RES1   0.0000
   459 C197     9.7892  24.5213  32.0777   C.3       1 RES1   0.0000
   460 C198     8.9400  25.3508  31.1123   C.3       1 RES1   0.0000
   461 H263     9.5266  25.8646  30.5192   H         1 RES1   0.0000
   462 H264     8.3727  25.9637  31.6237   H         1 RES1   0.0000
   463 H265     8.3765  24.7525  30.5765   H         1 RES1   0.0000
   464 C199     8.8653  23.7028  32.9858   C.3       1 RES1   0.0000
   465 H266     9.4058  23.1669  33.6035   H         1 RES1   0.0000
   466 H267     8.3075  23.1119  32.4418   H         1 RES1   0.0000
   467 H268     8.2922  24.3121  33.5012   H         1 RES1   0.0000
   468 C200    10.5962  25.4095  33.0022   C.2       1 RES1   0.0000
   469 C201    12.4133  25.5747  34.6220   C.3       1 RES1   0.0000
   470 C202    13.6938  24.8406  35.0147   C.3       1 RES1   0.0000
   471 H269    14.2171  25.4095  35.6323   H         1 RES1   0.0000
   472 H270    14.2420  24.6901  34.2048   H         1 RES1   0.0000
   473 C203    13.4177  23.4716  35.6978   C.3       1 RES1   0.0000
   474 H271    13.0037  22.8513  35.0474   H         1 RES1   0.0000
   475 H272    14.2726  23.0715  36.0005   H         1 RES1   0.0000
   476 C204    12.4919  23.6514  36.8881   C.3       1 RES1   0.0000
   477 H273    12.2811  22.7669  37.2767   H         1 RES1   0.0000
   478 H274    12.9520  24.1873  37.5835   H         1 RES1   0.0000
   479 C205    11.2556  24.3157  36.5036   C.3       1 RES1   0.0000
   480 H275    10.6767  24.4222  37.3013   H         1 RES1   0.0000
   481 H276    10.7706  23.7579  35.8451   H         1 RES1   0.0000
   482 C206    11.5450  25.7251  35.8860   C.3       1 RES1   0.0000
   483 H277    10.6901  26.1692  35.6528   H         1 RES1   0.0000
   484 H278    12.0146  26.2904  36.5486   H         1 RES1   0.0000
   485 C207    12.8369  27.0024  34.1761   C.2       1 RES1   0.0000
   486 C208    13.4503  28.4375  32.2536   C.3       1 RES1   0.0000
   487 C209    14.8592  28.8082  32.6463   C.3       1 RES1   0.0000
   488 H279    15.4745  28.0998  32.3640   H         1 RES1   0.0000
   489 H280    14.9109  28.9146  33.6198   H         1 RES1   0.0000
   490 H281    15.1103  29.6487  32.2127   H         1 RES1   0.0000
   491 C210    13.2855  28.2723  30.7156   C.3       1 RES1   0.0000
   492 H282    13.8950  27.5786  30.3924   H         1 RES1   0.0000
   493 H283    13.4944  29.1202  30.2738   H         1 RES1   0.0000
   494 H284    12.3616  28.0191  30.5110   H         1 RES1   0.0000
   495 C211    12.4555  29.5606  32.6872   C.2       1 RES1   0.0000
   496 C212    10.1496  30.2249  33.1862   C.3       1 RES1   0.0000
   497 C213     8.8116  29.4872  33.3867   C.3       1 RES1   0.0000
   498 H285     8.9285  28.7898  34.0780   H         1 RES1   0.0000
   499 H286     8.1350  30.1295  33.7180   H         1 RES1   0.0000
   500 C214     8.3075  28.8522  32.1391   C.3       1 RES1   0.0000
   501 H287     7.4104  28.4742  32.3109   H         1 RES1   0.0000
   502 H288     8.9094  28.1072  31.8895   H         1 RES1   0.0000
   503 C215     8.2232  29.8359  30.9896   C.3       1 RES1   0.0000
   504 H289     7.9816  29.3440  30.1674   H         1 RES1   0.0000
   505 H290     7.5024  30.4855  31.1778   H         1 RES1   0.0000
   506 C216     9.4863  30.5736  30.7565   C.3       1 RES1   0.0000
   507 H291     9.3387  31.2636  30.0611   H         1 RES1   0.0000
   508 H292    10.1764  29.9460  30.4251   H         1 RES1   0.0000
   509 C217     9.9847  31.2453  32.0450   C.3       1 RES1   0.0000
   510 H293     9.3426  31.9426  32.3190   H         1 RES1   0.0000
   511 H294    10.8569  31.6820  31.8691   H         1 RES1   0.0000
   512 C218    10.4812  30.9553  34.4666   C.2       1 RES1   0.0000
   513 C219    11.6619  31.0471  36.5773   C.3       1 RES1   0.0000
   514 H295    10.8128  31.3444  37.0149   H         1 RES1   0.0000
   515 C220    12.3750  30.0451  37.5590   C.3       1 RES1   0.0000
   516 H296    13.1110  29.5900  37.0599   H         1 RES1   0.0000
   517 C221    11.3457  28.9733  37.9885   C.3       1 RES1   0.0000
   518 H297    11.7789  28.3274  38.5898   H         1 RES1   0.0000
   519 H298    11.0064  28.5072  37.1990   H         1 RES1   0.0000
   520 H299    10.6019  29.4064  38.4589   H         1 RES1   0.0000
   521 C222    12.9692  30.7131  38.7657   C.3       1 RES1   0.0000
   522 H300    13.4120  30.0451  39.3261   H         1 RES1   0.0000
   523 H301    12.2600  31.1535  39.2770   H         1 RES1   0.0000
   524 H302    13.6248  31.3847  38.4752   H         1 RES1   0.0000
   525 C223    12.5360  32.2876  36.3727   C.2       1 RES1   0.0000
   526 C224    14.2094  33.4621  34.9533   C.3       1 RES1   0.0000
   527 C225    14.9819  33.0180  33.7180   C.3       1 RES1   0.0000
   528 H303    15.4898  32.2069  33.9266   H         1 RES1   0.0000
   529 H304    15.5991  33.7301  33.4480   H         1 RES1   0.0000
   530 H305    14.3531  32.8345  32.9899   H         1 RES1   0.0000
   531 C226    13.3813  34.6733  34.6506   C.3       1 RES1   0.0000
   532 H306    12.8791  34.9339  35.4524   H         1 RES1   0.0000
   533 H307    12.7564  34.4715  33.9266   H         1 RES1   0.0000
   534 H308    13.9698  35.4111  34.3807   H         1 RES1   0.0000
   535 C227    15.1582  33.6456  36.0946   C.2       1 RES1   0.0000
   536 C228    16.8028  35.2092  36.8759   C.3       1 RES1   0.0000
   537 H309    17.1325  36.1121  36.6754   H         1 RES1   0.0000
   538 H310    17.5332  34.5669  36.7818   H         1 RES1   0.0000
   539 H311    16.4636  35.1835  37.7962   H         1 RES1   0.0000
   540 Fe1     11.1066  20.0200  26.8378   Fe        1 RES1   2.0000
   541 N1      11.3552  21.4933  25.5983   N.ar      1 RES1   0.0000
   542 N2      14.2631  22.0732  22.6286   N.am      1 RES1   0.0000
   543 H312    13.8049  21.3244  22.6859   H         1 RES1   0.0000
   544 N3      14.2151  23.5927  20.3871   N.am      1 RES1   0.0000
   545 H313    13.5136  23.1926  20.7347   H         1 RES1   0.0000
   546 N4      14.9129  26.1656  20.9761   N.am      1 RES1   0.0000
   547 H314    14.6023  25.5820  21.5569   H         1 RES1   0.0000
   548 N5      17.6903  26.5326  20.9352   N.am      1 RES1   0.0000
   549 H315    17.3089  25.7435  21.0006   H         1 RES1   0.0000
   550 N6      18.4149  27.2373  18.3991   N.am      1 RES1   0.0000
   551 H316    17.6769  26.7785  18.5381   H         1 RES1   0.0000
   552 N7      16.3371  28.4118  16.8692   N.am      1 RES1   0.0000
   553 H317    16.1856  27.8796  17.5482   H         1 RES1   0.0000
   554 N8       9.4039  20.8913  27.1159   N.ar      1 RES1   0.0000
   555 N9       6.2814  19.8967  29.7870   N.am      1 RES1   0.0000
   556 H318     7.1191  19.8673  30.0529   H         1 RES1   0.0000
   557 N10      4.4834  21.5777  30.9242   N.am      1 RES1   0.0000
   558 H319     5.3345  21.7906  30.8506   H         1 RES1   0.0000
   559 N11      2.5379  22.0438  28.9771   N.am      1 RES1   0.0000
   560 H320     3.3544  21.7722  28.7930   H         1 RES1   0.0000
   561 N12      0.5233  20.2013  29.2921   N.am      1 RES1   0.0000
   562 H321     1.3360  20.0839  29.6111   H         1 RES1   0.0000
   563 N13     -1.3130  21.1886  31.0633   N.am      1 RES1   0.0000
   564 H322    -0.4869  21.4823  30.9814   H         1 RES1   0.0000
   565 N14     -1.1405  24.0551  31.5459   N.am      1 RES1   0.0000
   566 H323    -0.4044  23.5780  31.4764   H         1 RES1   0.0000
   567 N15     10.2684  18.7295  25.5574   N.ar      1 RES1   0.0000
   568 N16     10.0691  18.8947  21.2829   N.am      1 RES1   0.0000
   569 H324    10.5214  19.5113  21.7165   H         1 RES1   0.0000
   570 N17      8.4014  18.0065  18.2845   N.am      1 RES1   0.0000
   571 H325     8.9918  17.3862  18.0718   H         1 RES1   0.0000
   572 N18      5.9881  17.2064  19.5199   N.am      1 RES1   0.0000
   573 H326     6.7242  16.7366  19.6426   H         1 RES1   0.0000
   574 N19      5.2923  19.1700  21.3892   N.am      1 RES1   0.0000
   575 H327     6.1300  18.9608  21.2174   H         1 RES1   0.0000
   576 N20      4.5582  21.3832  19.9248   N.am      1 RES1   0.0000
   577 H328     5.1198  20.7629  19.6467   H         1 RES1   0.0000
   578 N21      2.4248  20.7776  18.2600   N.am      1 RES1   0.0000
   579 H329     3.0746  20.1903  18.3336   H         1 RES1   0.0000
   580 N22     10.7189  18.5534  28.0976   N.ar      1 RES1   0.0000
   581 N23     10.8454  18.7626  32.3068   N.am      1 RES1   0.0000
   582 H330    10.6767  19.4673  31.8077   H         1 RES1   0.0000
   583 N24     12.3807  17.7789  35.3419   N.am      1 RES1   0.0000
   584 H331    11.6543  17.8266  35.8369   H         1 RES1   0.0000
   585 N25     12.8849  15.2354  34.6302   N.am      1 RES1   0.0000
   586 H332    12.1124  15.6538  34.5729   H         1 RES1   0.0000
   587 N26     14.2803  14.8794  32.2086   N.am      1 RES1   0.0000
   588 H333    13.8203  15.6098  32.3763   H         1 RES1   0.0000
   589 N27     16.9543  14.7583  32.8263   N.am      1 RES1   0.0000
   590 H334    16.3639  15.1473  33.3498   H         1 RES1   0.0000
   591 N28     17.4680  12.2184  33.7507   N.am      1 RES1   0.0000
   592 H335    16.6744  12.5818  33.8530   H         1 RES1   0.0000
   593 N29     12.9194  19.3572  26.5842   N.ar      1 RES1   0.0000
   594 N30     14.0714  16.2888  23.9621   N.am      1 RES1   0.0000
   595 H336    13.7129  16.9788  23.5531   H         1 RES1   0.0000
   596 N31     16.2949  15.1583  22.7432   N.am      1 RES1   0.0000
   597 H337    16.1339  16.0245  22.7227   H         1 RES1   0.0000
   598 N32     17.7785  14.0572  24.7925   N.am      1 RES1   0.0000
   599 H338    17.1996  14.7106  24.8989   H         1 RES1   0.0000
   600 N33     16.9696  11.5027  25.6229   N.am      1 RES1   0.0000
   601 H339    16.4214  12.0863  25.2629   H         1 RES1   0.0000
   602 N34     17.6022   9.8804  23.6063   N.am      1 RES1   0.0000
   603 H340    17.3626  10.7063  23.4099   H         1 RES1   0.0000
   604 N35     20.4160   9.7740  23.6963   N.am      1 RES1   0.0000
   605 H341    20.0634  10.5778  23.6431   H         1 RES1   0.0000
   606 N36     12.0606  21.1960  28.1263   N.ar      1 RES1   0.0000
   607 N37     10.6307  23.6184  31.2882   N.am      1 RES1   0.0000
   608 H342    10.4390  22.7595  31.2964   H         1 RES1   0.0000
   609 N38     11.6677  24.9067  33.5953   N.am      1 RES1   0.0000
   610 H343    11.9418  24.1102  33.3417   H         1 RES1   0.0000
   611 N39     13.0344  27.1382  32.8426   N.am      1 RES1   0.0000
   612 H344    12.9136  26.4445  32.3150   H         1 RES1   0.0000
   613 N40     11.1846  29.2266  32.8549   N.am      1 RES1   0.0000
   614 H345    10.9508  28.3861  32.7649   H         1 RES1   0.0000
   615 N41     11.3131  30.3754  35.3624   N.am      1 RES1   0.0000
   616 H346    11.6428  29.5789  35.1988   H         1 RES1   0.0000
   617 N42     13.3219  32.2876  35.3092   N.am      1 RES1   0.0000
   618 H347    13.3296  31.5756  34.7897   H         1 RES1   0.0000
   619 O1      14.3704  24.2423  23.2254   O.2       1 RES1   0.0000
   620 O2      16.4789  23.7615  20.4075   O.2       1 RES1   0.0000
   621 O3      15.4151  26.4996  18.8122   O.2       1 RES1   0.0000
   622 O4      17.4488  28.7531  21.0538   O.2       1 RES1   0.0000
   623 O5      20.3394  28.1402  19.3031   O.2       1 RES1   0.0000
   624 O6      17.8322  29.2706  15.4539   O.2       1 RES1   0.0000
   625 O7      14.9838  29.9460  14.0427   O.2       1 RES1   0.0000
   626 O8      15.5857  27.7915  14.3536   O.3       1 RES1   0.0000
   627 O9       4.8515  20.5463  28.1533   O.2       1 RES1   0.0000
   628 O10      2.9615  19.8894  31.0252   O.2       1 RES1   0.0000
   629 O11      1.1405  22.8366  30.5847   O.2       1 RES1   0.0000
   630 O12     -0.8242  21.4823  27.9872   O.2       1 RES1   0.0000
   631 O13     -2.8829  19.7536  30.2329   O.2       1 RES1   0.0000
   632 O14     -3.3755  23.9744  31.7505   O.2       1 RES1   0.0000
   633 O15     -2.4305  27.0758  30.2370   O.2       1 RES1   0.0000
   634 O16     -1.9302  25.1049  29.3452   O.3       1 RES1   0.0000
   635 O17      8.5413  17.2761  21.3843   O.2       1 RES1   0.0000
   636 O18      7.8590  19.6801  19.6733   O.2       1 RES1   0.0000
   637 O19      4.9646  18.8140  18.3091   O.2       1 RES1   0.0000
   638 O20      3.1398  18.5020  21.1602   O.2       1 RES1   0.0000
   639 O21      3.4752  22.2457  21.6715   O.2       1 RES1   0.0000
   640 O22      1.7654  22.8109  18.2314   O.2       1 RES1   0.0000
   641 O23     -0.3661  21.0051  16.0838   O.2       1 RES1   0.0000
   642 O24      1.8306  21.2547  15.7280   O.3       1 RES1   0.0000
   643 O25     11.1712  16.5420  32.3432   O.2       1 RES1   0.0000
   644 O26     13.3296  18.2968  33.3597   O.2       1 RES1   0.0000
   645 O27     15.0758  15.4564  35.1067   O.2       1 RES1   0.0000
   646 O28     14.7039  12.7359  32.8017   O.2       1 RES1   0.0000
   647 O29     17.3721  13.9178  30.8096   O.2       1 RES1   0.0000
   648 O30     19.6608  12.5451  33.3539   O.2       1 RES1   0.0000
   649 O31     19.5880   9.5097  34.4134   O.2       1 RES1   0.0000
   650 O32     18.8941  11.1577  35.8491   O.3       1 RES1   0.0000
   651 O33     15.5282  15.6869  25.5738   O.2       1 RES1   0.0000
   652 O34     15.3844  13.0883  23.2504   O.2       1 RES1   0.0000
   653 O35     18.8385  12.7102  23.2995   O.2       1 RES1   0.0000
   654 O36     19.0609  11.1430  26.3387   O.2       1 RES1   0.0000
   655 O37     17.1977   8.0380  24.8702   O.2       1 RES1   0.0000
   656 O38     20.3490   7.7957  22.6982   O.2       1 RES1   0.0000
   657 O39     23.4005   7.9462  23.6308   O.2       1 RES1   0.0000
   658 O40     22.6089   9.5208  22.3014   O.3       1 RES1   0.0000
   659 O41     12.1124  25.1918  30.6252   O.2       1 RES1   0.0000
   660 O42     10.1706  26.4886  33.3139   O.2       1 RES1   0.0000
   661 O43     12.9692  27.9383  34.9427   O.2       1 RES1   0.0000
   662 O44     12.8580  30.7230  32.7702   O.2       1 RES1   0.0000
   663 O45      9.9751  32.0417  34.7218   O.2       1 RES1   0.0000
   664 O46     12.4900  33.2199  37.1843   O.2       1 RES1   0.0000
   665 O47     15.5090  32.8382  36.9086   O.2       1 RES1   0.0000
   666 O48     15.7390  34.8715  35.9637   O.3       1 RES1   0.0000
   667 Cl1      0.5992  15.8014  10.4623   Cl        2 RES2  -1.0000
   668 Cl2     15.6878  17.6347   2.1684   Cl        3 RES3  -1.0000
   669 N43      1.9801  20.8216  11.2325   N.1       4 RES4   0.0000
   670 C229     2.7219  21.7502  11.0730   C.1       4 RES4   0.0000
   671 C230     3.6956  22.7228  11.1057   C.3       4 RES4   0.0000
   672 H349     3.5174  23.3872  10.4062   H         4 RES4   0.0000
   673 H350     4.5716  22.3118  10.9503   H         4 RES4   0.0000
   674 H351     3.6918  23.1596  11.9811   H         4 RES4   0.0000
   675 N44      7.0673  22.7852  10.1853   N.1       5 RES5   0.0000
   676 C231     7.9011  23.6257   9.8377   C.1       5 RES5   0.0000
   677 C232     8.6851  24.6864   9.5186   C.3       5 RES5   0.0000
   678 H352     9.3924  24.3965   8.9050   H         5 RES5   0.0000
   679 H353     9.0857  25.0535  10.3326   H         5 RES5   0.0000
   680 H354     8.1407  25.3765   9.0809   H         5 RES5   0.0000
   681 N45     16.6802  29.2706   5.2890   N.1       6 RES6   0.0000
   682 C233    17.2073  28.7091   4.2787   C.1       6 RES6   0.0000
   683 C234    17.5312  27.4942   3.6937   C.3       6 RES6   0.0000
   684 H355    18.5050  27.3878   3.6896   H         6 RES6   0.0000
   685 H356    17.1939  27.4759   2.7774   H         6 RES6   0.0000
   686 H357    17.1249  26.7675   4.2091   H         6 RES6   0.0000
   687 N46      2.0932  22.7742  39.7228   N.1       7 RES7   0.0000
   688 C235     1.1558  22.6971  40.4550   C.1       7 RES7   0.0000
   689 C236     0.1974  22.7081  41.4818   C.3       7 RES7   0.0000
   690 H358    -0.1993  21.8163  41.5718   H         7 RES7   0.0000
   691 H359    -0.5041  23.3578  41.2650   H         7 RES7   0.0000
   692 H360     0.6249  22.9614  42.3285   H         7 RES7   0.0000
   693 N47     10.2377  21.9447  22.2850   N.1       8 RES8   0.0000
   694 C237     9.5515  22.8917  21.9946   C.1       8 RES8   0.0000
   695 C238     8.7944  23.9964  21.6387   C.3       8 RES8   0.0000
   696 H361     7.8455  23.7542  21.6347   H         8 RES8   0.0000
   697 H362     9.0589  24.3011  20.7470   H         8 RES8   0.0000
   698 H363     8.9458  24.7158  22.2891   H         8 RES8   0.0000
   699 N48     10.2646  17.5404   3.6855   N.1       9 RES9   0.0000
   700 C239     9.6493  17.1403   2.6629   C.1       9 RES9   0.0000
   701 C240     8.8365  16.2704   1.9471   C.3       9 RES9   0.0000
   702 H364     9.3867  15.7309   1.3417   H         9 RES9   0.0000
   703 H365     8.1848  16.7843   1.4235   H         9 RES9   0.0000
   704 H366     8.3612  15.6832   2.5688   H         9 RES9   0.0000
   705 N49      0.9469   3.0133  23.8722   N.1      10 RES10   0.0000
   706 C241     1.9072   3.7584  23.4099   C.1      10 RES10   0.0000
   707 C242     2.9059   4.5035  22.7677   C.3      10 RES10   0.0000
   708 H367     3.5327   3.8979  22.3219   H        10 RES10   0.0000
   709 H368     3.3870   5.0430  23.4263   H        10 RES10   0.0000
   710 H369     2.4938   5.0944  22.1010   H        10 RES10   0.0000
   711 N50     -0.0594  15.6685  16.5215   N.1      11 RES11   0.0000
   712 C243     1.0562  15.0592  16.3334   C.1      11 RES11   0.0000
   713 C244     2.1392  14.3949  16.1125   C.3      11 RES11   0.0000
   714 H370     1.9820  13.4443  16.2843   H        11 RES11   0.0000
   715 H371     2.8484  14.7216  16.7056   H        11 RES11   0.0000
   716 H372     2.4094  14.5197  15.1798   H        11 RES11   0.0000
   717 N51      2.5072  12.8167  21.5201   N.1      12 RES12   0.0000
   718 C245     2.1833  12.7947  20.2889   C.1      12 RES12   0.0000
   719 C246     1.8114  12.8497  19.1517   C.3      12 RES12   0.0000
   720 H373     1.3494  12.0166  18.9227   H        12 RES12   0.0000
   721 H374     2.5839  12.9708  18.5627   H        12 RES12   0.0000
   722 H375     1.1961  13.6021  19.0454   H        12 RES12   0.0000
   723 Na1     -5.5185  20.1096  31.1847   Na       13 RES13   1.0000
   724 Cl3     -5.7064  22.6825  32.4998   Cl       14 RES14  -1.0000
   725 O49      2.1833  28.3457  13.2532   O.3      15 RES15   0.0000
   726 O50      2.9922  36.2589  38.2135   O.3      16 RES16   0.0000
   727 O51      3.3736  11.0733  33.4112   O.3      17 RES17   0.0000
   728 O52      3.8241   7.3002  18.6854   O.3      18 RES18   0.0000
@<TRIPOS>BOND
     1     1     2   ar
     2     2     3    1
     3     4     2   ar
     4     5     4    1
     5     6     4   ar
     6     7     6   ar
     7     8     7    1
     8     9     6    1
     9    10    11    1
    10    11    12    1
    11    13    11    1
    12    14    11    1
    13    15    10    1
    14    16    15    1
    15    17    15    1
    16    18    15    1
    17    19    10    1
    18    20    21    1
    19    21    22    1
    20    23    21    1
    21    24    21    1
    22    25    24    1
    23    26    24    1
    24    27    24    1
    25    28    27    1
    26    29    27    1
    27    30    27    1
    28    31    30    1
    29    32    30    1
    30    33    20    1
    31    34    33    1
    32    35    33    1
    33    36    20    1
    34    37    38    1
    35    38    39    1
    36    40    38    1
    37    41    38    1
    38    42    37    1
    39    43    42    1
    40    44    42    1
    41    45    42    1
    42    46    37    1
    43    47    48    1
    44    48    49    1
    45    50    48    1
    46    51    48    1
    47    52    51    1
    48    53    51    1
    49    54    51    1
    50    55    54    1
    51    56    54    1
    52    57    54    1
    53    58    57    1
    54    59    57    1
    55    60    47    1
    56    61    60    1
    57    62    60    1
    58    63    47    1
    59    64    65    1
    60    66    64    1
    61    67    66    1
    62    68    66    1
    63    69    68    1
    64    70    68    1
    65    71    68    1
    66    72    66    1
    67    73    72    1
    68    74    72    1
    69    75    72    1
    70    76    64    1
    71    77    78    1
    72    78    79    1
    73    80    78    1
    74    81    78    1
    75    82    77    1
    76    83    82    1
    77    84    82    1
    78    85    82    1
    79    86    77    1
    80    87    88    1
    81    89    87    1
    82    90    87    1
    83    91     1    1
    84    92    91   ar
    85    93    92    1
    86    94    92   ar
    87    95    94    1
    88    96    94   ar
    89    97    96   ar
    90    98    97    1
    91    99    96    1
    92   100   101    1
    93   101   102    1
    94   103   101    1
    95   104   101    1
    96   105   100    1
    97   106   105    1
    98   107   105    1
    99   108   105    1
   100   109   100    1
   101   110   111    1
   102   111   112    1
   103   113   111    1
   104   114   111    1
   105   115   114    1
   106   116   114    1
   107   117   114    1
   108   118   117    1
   109   119   117    1
   110   120   117    1
   111   121   120    1
   112   122   120    1
   113   123   110    1
   114   124   123    1
   115   125   123    1
   116   126   110    1
   117   127   128    1
   118   128   129    1
   119   130   128    1
   120   131   128    1
   121   132   127    1
   122   133   132    1
   123   134   132    1
   124   135   132    1
   125   136   127    1
   126   137   138    1
   127   138   139    1
   128   140   138    1
   129   141   138    1
   130   142   141    1
   131   143   141    1
   132   144   141    1
   133   145   144    1
   134   146   144    1
   135   147   144    1
   136   148   147    1
   137   149   147    1
   138   150   137    1
   139   151   150    1
   140   152   150    1
   141   153   137    1
   142   154   155    1
   143   156   154    1
   144   157   156    1
   145   158   156    1
   146   159   158    1
   147   160   158    1
   148   161   158    1
   149   162   156    1
   150   163   162    1
   151   164   162    1
   152   165   162    1
   153   166   154    1
   154   167   168    1
   155   168   169    1
   156   170   168    1
   157   171   168    1
   158   172   167    1
   159   173   172    1
   160   174   172    1
   161   175   172    1
   162   176   167    1
   163   177   178    1
   164   179   177    1
   165   180   177    1
   166   181   182   ar
   167   182   183    1
   168   184   182   ar
   169   185   184    1
   170   186   184   ar
   171   187   186   ar
   172   188   187    1
   173   189   186    1
   174   190   191    1
   175   191   192    1
   176   193   191    1
   177   194   191    1
   178   195   190    1
   179   196   195    1
   180   197   195    1
   181   198   195    1
   182   199   190    1
   183   200   201    1
   184   201   202    1
   185   203   201    1
   186   204   201    1
   187   205   204    1
   188   206   204    1
   189   207   204    1
   190   208   207    1
   191   209   207    1
   192   210   207    1
   193   211   210    1
   194   212   210    1
   195   213   200    1
   196   214   213    1
   197   215   213    1
   198   216   200    1
   199   217   218    1
   200   218   219    1
   201   220   218    1
   202   221   218    1
   203   222   217    1
   204   223   222    1
   205   224   222    1
   206   225   222    1
   207   226   217    1
   208   227   228    1
   209   228   229    1
   210   230   228    1
   211   231   228    1
   212   232   231    1
   213   233   231    1
   214   234   231    1
   215   235   234    1
   216   236   234    1
   217   237   234    1
   218   238   237    1
   219   239   237    1
   220   240   227    1
   221   241   240    1
   222   242   240    1
   223   243   227    1
   224   244   245    1
   225   246   244    1
   226   247   246    1
   227   248   246    1
   228   249   248    1
   229   250   248    1
   230   251   248    1
   231   252   246    1
   232   253   252    1
   233   254   252    1
   234   255   252    1
   235   256   244    1
   236   257   258    1
   237   258   259    1
   238   260   258    1
   239   261   258    1
   240   262   257    1
   241   263   262    1
   242   264   262    1
   243   265   262    1
   244   266   257    1
   245   267   268    1
   246   269   267    1
   247   270   267    1
   248   271   181    1
   249   272   271   ar
   250   273   272    1
   251   274   272   ar
   252   275   274    1
   253   276   274   ar
   254   277   276   ar
   255   278   277    1
   256   279   276    1
   257   280   281    1
   258   281   282    1
   259   283   281    1
   260   284   281    1
   261   285   280    1
   262   286   285    1
   263   287   285    1
   264   288   285    1
   265   289   280    1
   266   290   291    1
   267   291   292    1
   268   293   291    1
   269   294   291    1
   270   295   294    1
   271   296   294    1
   272   297   294    1
   273   298   297    1
   274   299   297    1
   275   300   297    1
   276   301   300    1
   277   302   300    1
   278   303   290    1
   279   304   303    1
   280   305   303    1
   281   306   290    1
   282   307   308    1
   283   308   309    1
   284   310   308    1
   285   311   308    1
   286   312   307    1
   287   313   312    1
   288   314   312    1
   289   315   312    1
   290   316   307    1
   291   317   318    1
   292   318   319    1
   293   320   318    1
   294   321   318    1
   295   322   321    1
   296   323   321    1
   297   324   321    1
   298   325   324    1
   299   326   324    1
   300   327   324    1
   301   328   327    1
   302   329   327    1
   303   330   317    1
   304   331   330    1
   305   332   330    1
   306   333   317    1
   307   334   335    1
   308   336   334    1
   309   337   336    1
   310   338   336    1
   311   339   338    1
   312   340   338    1
   313   341   338    1
   314   342   336    1
   315   343   342    1
   316   344   342    1
   317   345   342    1
   318   346   334    1
   319   347   348    1
   320   348   349    1
   321   350   348    1
   322   351   348    1
   323   352   347    1
   324   353   352    1
   325   354   352    1
   326   355   352    1
   327   356   347    1
   328   357   358    1
   329   359   357    1
   330   360   357    1
   331   361   362   ar
   332   362   363    1
   333   364   362   ar
   334   365   364    1
   335   366   364   ar
   336   367   366   ar
   337   368   367    1
   338   369   366    1
   339   370   371    1
   340   371   372    1
   341   373   371    1
   342   374   371    1
   343   375   370    1
   344   376   375    1
   345   377   375    1
   346   378   375    1
   347   379   370    1
   348   380   381    1
   349   381   382    1
   350   383   381    1
   351   384   381    1
   352   385   384    1
   353   386   384    1
   354   387   384    1
   355   388   387    1
   356   389   387    1
   357   390   387    1
   358   391   390    1
   359   392   390    1
   360   393   380    1
   361   394   393    1
   362   395   393    1
   363   396   380    1
   364   397   398    1
   365   398   399    1
   366   400   398    1
   367   401   398    1
   368   402   397    1
   369   403   402    1
   370   404   402    1
   371   405   402    1
   372   406   397    1
   373   407   408    1
   374   408   409    1
   375   410   408    1
   376   411   408    1
   377   412   411    1
   378   413   411    1
   379   414   411    1
   380   415   414    1
   381   416   414    1
   382   417   414    1
   383   418   417    1
   384   419   417    1
   385   420   407    1
   386   421   420    1
   387   422   407    1
   388   423   424    1
   389   425   423    1
   390   426   425    1
   391   427   425    1
   392   428   427    1
   393   429   427    1
   394   430   427    1
   395   431   425    1
   396   432   431    1
   397   433   431    1
   398   434   431    1
   399   435   423    1
   400   436   437    1
   401   437   438    1
   402   439   437    1
   403   440   437    1
   404   441   436    1
   405   442   441    1
   406   443   441    1
   407   444   441    1
   408   445   436    1
   409   446   447    1
   410   448   446    1
   411   449   446    1
   412   450   361    1
   413   451   450   ar
   414   452   451    1
   415   453   451   ar
   416   454   453    1
   417   455   453   ar
   418   456   455   ar
   419   457   456    1
   420   458   455    1
   421   459   460    1
   422   460   461    1
   423   462   460    1
   424   463   460    1
   425   464   459    1
   426   465   464    1
   427   466   464    1
   428   467   464    1
   429   468   459    1
   430   469   470    1
   431   470   471    1
   432   472   470    1
   433   473   470    1
   434   474   473    1
   435   475   473    1
   436   476   473    1
   437   477   476    1
   438   478   476    1
   439   479   476    1
   440   480   479    1
   441   481   479    1
   442   482   469    1
   443   483   482    1
   444   484   482    1
   445   485   469    1
   446   486   487    1
   447   487   488    1
   448   489   487    1
   449   490   487    1
   450   491   486    1
   451   492   491    1
   452   493   491    1
   453   494   491    1
   454   495   486    1
   455   496   497    1
   456   497   498    1
   457   499   497    1
   458   500   497    1
   459   501   500    1
   460   502   500    1
   461   503   500    1
   462   504   503    1
   463   505   503    1
   464   506   503    1
   465   507   506    1
   466   508   506    1
   467   509   496    1
   468   510   509    1
   469   511   509    1
   470   512   496    1
   471   513   514    1
   472   515   513    1
   473   516   515    1
   474   517   515    1
   475   518   517    1
   476   519   517    1
   477   520   517    1
   478   521   515    1
   479   522   521    1
   480   523   521    1
   481   524   521    1
   482   525   513    1
   483   526   527    1
   484   527   528    1
   485   529   527    1
   486   530   527    1
   487   531   526    1
   488   532   531    1
   489   533   531    1
   490   534   531    1
   491   535   526    1
   492   536   537    1
   493   538   536    1
   494   539   536    1
   495   540   541    1
   496   541     1   ar
   497   542     9   am
   498   543   542    1
   499   544    19   am
   500   545   544    1
   501   546    36   am
   502   547   546    1
   503   548    46   am
   504   549   548    1
   505   550    63   am
   506   551   550    1
   507   552    76   am
   508   553   552    1
   509   554    91   ar
   510   555    99   am
   511   556   555    1
   512   557   109   am
   513   558   557    1
   514   559   126   am
   515   560   559    1
   516   561   136   am
   517   562   561    1
   518   563   153   am
   519   564   563    1
   520   565   166   am
   521   566   565    1
   522   567   181   ar
   523   568   189   am
   524   569   568    1
   525   570   199   am
   526   571   570    1
   527   572   216   am
   528   573   572    1
   529   574   226   am
   530   575   574    1
   531   576   243   am
   532   577   576    1
   533   578   256   am
   534   579   578    1
   535   580   271   ar
   536   581   279   am
   537   582   581    1
   538   583   289   am
   539   584   583    1
   540   585   306   am
   541   586   585    1
   542   587   316   am
   543   588   587    1
   544   589   333   am
   545   590   589    1
   546   591   346   am
   547   592   591    1
   548   593   361   ar
   549   594   369   am
   550   595   594    1
   551   596   379   am
   552   597   596    1
   553   598   396   am
   554   599   598    1
   555   600   406   am
   556   601   600    1
   557   602   422   am
   558   603   602    1
   559   604   435   am
   560   605   604    1
   561   606   450   ar
   562   607   458   am
   563   608   607    1
   564   609   468   am
   565   610   609    1
   566   611   485   am
   567   612   611    1
   568   613   495   am
   569   614   613    1
   570   615   512   am
   571   616   615    1
   572   617   525   am
   573   618   617    1
   574   619     9    2
   575   620    19    2
   576   621    36    2
   577   622    46    2
   578   623    63    2
   579   624    76    2
   580   625    86    2
   581   626    86    1
   582   627    99    2
   583   628   109    2
   584   629   126    2
   585   630   136    2
   586   631   153    2
   587   632   166    2
   588   633   176    2
   589   634   176    1
   590   635   189    2
   591   636   199    2
   592   637   216    2
   593   638   226    2
   594   639   243    2
   595   640   256    2
   596   641   266    2
   597   642   266    1
   598   643   279    2
   599   644   289    2
   600   645   306    2
   601   646   316    2
   602   647   333    2
   603   648   346    2
   604   649   356    2
   605   650   356    1
   606   651   369    2
   607   652   379    2
   608   653   396    2
   609   654   406    2
   610   655   422    2
   611   656   435    2
   612   657   445    2
   613   658   445    1
   614   659   458    2
   615   660   468    2
   616   661   485    2
   617   662   495    2
   618   663   512    2
   619   664   525    2
   620   665   535    2
   621   666   535    1
   622     7   541   ar
   623    10   542    1
   624    20   544    1
   625    30    33    1
   626    37   546    1
   627    47   548    1
   628    57    60    1
   629    64   550    1
   630    77   552    1
   631    87   626    1
   632    97   554   ar
   633   100   555    1
   634   110   557    1
   635   120   123    1
   636   127   559    1
   637   137   561    1
   638   147   150    1
   639   154   563    1
   640   167   565    1
   641   177   634    1
   642   187   567   ar
   643   190   568    1
   644   200   570    1
   645   210   213    1
   646   217   572    1
   647   227   574    1
   648   237   240    1
   649   244   576    1
   650   257   578    1
   651   267   642    1
   652   277   580   ar
   653   280   581    1
   654   290   583    1
   655   300   303    1
   656   307   585    1
   657   317   587    1
   658   327   330    1
   659   334   589    1
   660   347   591    1
   661   357   650    1
   662   367   593   ar
   663   370   594    1
   664   380   596    1
   665   390   393    1
   666   397   598    1
   667   407   600    1
   668   417   420    1
   669   423   602    1
   670   436   604    1
   671   446   658    1
   672   456   606   ar
   673   459   607    1
   674   469   609    1
   675   479   482    1
   676   486   611    1
   677   496   613    1
   678   506   509    1
   679   513   615    1
   680   526   617    1
   681   536   666    1
   682   540   554    1
   683   540   567    1
   684   540   580    1
   685   540   593    1
   686   540   606    1
   687   669   670    3
   688   670   671    1
   689   671   672    1
   690   673   671    1
   691   674   671    1
   692   675   676    3
   693   676   677    1
   694   677   678    1
   695   679   677    1
   696   680   677    1
   697   681   682    3
   698   682   683    1
   699   683   684    1
   700   685   683    1
   701   686   683    1
   702   687   688    3
   703   688   689    1
   704   689   690    1
   705   691   689    1
   706   692   689    1
   707   693   694    3
   708   694   695    1
   709   695   696    1
   710   697   695    1
   711   698   695    1
   712   699   700    3
   713   700   701    1
   714   701   702    1
   715   703   701    1
   716   704   701    1
   717   705   706    3
   718   706   707    1
   719   707   708    1
   720   709   707    1
   721   710   707    1
   722   711   712    3
   723   712   713    1
   724   713   714    1
   725   715   713    1
   726   716   713    1
   727   717   718    3
   728   718   719    1
   729   719   720    1
   730   721   719    1
   731   722   719    1
@<TRIPOS>SUBSTRUCTURE
     1 RES1        1 GROUP             0 ****  ****    0  
     2 RES2      667 GROUP             0 ****  ****    0  
     3 RES3      668 GROUP             0 ****  ****    0  
     4 RES4      669 GROUP             0 ****  ****    0  
     5 RES5      675 GROUP             0 ****  ****    0  
     6 RES6      681 GROUP             0 ****  ****    0  
     7 RES7      687 GROUP             0 ****  ****    0  
     8 RES8      693 GROUP             0 ****  ****    0  
     9 RES9      699 GROUP             0 ****  ****    0  
    10 RES10     705 GROUP             0 ****  ****    0  
    11 RES11     711 GROUP             0 ****  ****    0  
    12 RES12     717 GROUP             0 ****  ****    0  
    13 RES13     723 GROUP             0 ****  ****    0  
    14 RES14     724 GROUP             0 ****  ****    0  
    15 RES15     725 GROUP             0 ****  ****    0  
    16 RES16     726 GROUP             0 ****  ****    0  
    17 RES17     727 GROUP             0 ****  ****    0  
    18 RES18     728 GROUP             0 ****  ****    0  
@<TRIPOS>CRYSIN
   19.1682   36.7030   40.9050   90.0000   90.0000   90.0000    19     1
