@<TRIPOS>MOLECULE
ECELII
    77    84     3     0     0
SMALL
USER_CHARGES
****
Generated from the CSD

@<TRIPOS>ATOM
     1 Fe1      4.5141  -3.1008   2.0401   Fe        1 RES1   2.0000
     2 N1       4.0925  -4.8693   0.9401   N.ar      1 RES1   0.0000
     3 C1       3.9782  -6.0480   1.5572   C.ar      1 RES1   0.0000
     4 C2       3.5988  -7.2090   0.9085   C.ar      1 RES1   0.0000
     5 H1       3.5400  -8.0388   1.3667   H         1 RES1   0.0000
     6 C3       3.3094  -7.1034  -0.4424   C.ar      1 RES1   0.0000
     7 H2       3.0392  -7.8777  -0.9211   H         1 RES1   0.0000
     8 C4       3.4053  -5.9058  -1.1006   C.ar      1 RES1   0.0000
     9 H3       3.2055  -5.8347  -2.0264   H         1 RES1   0.0000
    10 C5       3.8055  -4.8037  -0.3653   C.ar      1 RES1   0.0000
    11 N2       4.2737  -5.9691   2.9273   N.pl3     1 RES1   0.0000
    12 N3       4.4804  -4.7326   3.4886   N.2       1 RES1   0.0000
    13 C6       4.6605  -4.9604   4.7896   C.2       1 RES1   0.0000
    14 C7       4.5578  -6.3391   5.0542   C.2       1 RES1   0.0000
    15 H4       4.6425  -6.7646   5.8997   H         1 RES1   0.0000
    16 C8       4.3137  -6.9368   3.8733   C.2       1 RES1   0.0000
    17 H5       4.1937  -7.8677   3.7284   H         1 RES1   0.0000
    18 C9       4.8827  -3.8383   5.7454   C.3       1 RES1   0.0000
    19 H6       5.6047  -3.2640   5.4131   H         1 RES1   0.0000
    20 H7       5.1313  -4.2005   6.6208   H         1 RES1   0.0000
    21 H8       4.0602  -3.3129   5.8304   H         1 RES1   0.0000
    22 N4       3.9518  -3.5062  -0.8924   N.pl3     1 RES1   0.0000
    23 N5       4.3192  -2.4874  -0.0315   N.2       1 RES1   0.0000
    24 C10      4.3621  -1.3954  -0.7998   C.2       1 RES1   0.0000
    25 C11      4.0426  -1.7109  -2.1445   C.2       1 RES1   0.0000
    26 H9       4.0195  -1.1132  -2.8829   H         1 RES1   0.0000
    27 C12      3.7787  -3.0373  -2.1602   C.2       1 RES1   0.0000
    28 H10      3.5185  -3.5484  -2.9176   H         1 RES1   0.0000
    29 C13      4.7140  -0.0722  -0.2000   C.3       1 RES1   0.0000
    30 H11      3.9415   0.2833   0.2850   H         1 RES1   0.0000
    31 H12      4.9702   0.5521  -0.9116   H         1 RES1   0.0000
    32 H13      5.4659  -0.1844   0.4204   H         1 RES1   0.0000
    33 N6       4.8619  -1.3209   3.1548   N.ar      1 RES1   0.0000
    34 C14      6.1111  -0.9943   3.5143   C.ar      1 RES1   0.0000
    35 C15      6.3905  -0.0455   4.4858   C.ar      1 RES1   0.0000
    36 H14      7.2814   0.1611   4.7424   H         1 RES1   0.0000
    37 C16      5.2859   0.5921   5.0668   C.ar      1 RES1   0.0000
    38 H15      5.4300   1.2343   5.7517   H         1 RES1   0.0000
    39 C17      4.0013   0.3122   4.6700   C.ar      1 RES1   0.0000
    40 H16      3.2573   0.7688   5.0447   H         1 RES1   0.0000
    41 C18      3.8385  -0.6610   3.7017   C.ar      1 RES1   0.0000
    42 N7       7.0807  -1.7031   2.7929   N.pl3     1 RES1   0.0000
    43 N8       6.6702  -2.7596   2.0152   N.2       1 RES1   0.0000
    44 C19      7.7523  -3.1529   1.3462   C.2       1 RES1   0.0000
    45 C20      8.8462  -2.3308   1.6737   C.2       1 RES1   0.0000
    46 H17      9.7279  -2.3908   1.3257   H         1 RES1   0.0000
    47 C21      8.3904  -1.4331   2.5901   C.2       1 RES1   0.0000
    48 H18      8.8961  -0.7454   3.0073   H         1 RES1   0.0000
    49 C22      7.6950  -4.2938   0.3921   C.3       1 RES1   0.0000
    50 H19      6.8479  -4.7726   0.5054   H         1 RES1   0.0000
    51 H20      8.4418  -4.9048   0.5668   H         1 RES1   0.0000
    52 H21      7.7582  -3.9561  -0.5259   H         1 RES1   0.0000
    53 N9       2.6028  -1.0532   3.1638   N.pl3     1 RES1   0.0000
    54 N10      2.5186  -2.2463   2.4767   N.2       1 RES1   0.0000
    55 C23      1.2710  -2.3052   2.0043   C.2       1 RES1   0.0000
    56 C24      0.5611  -1.1365   2.3775   C.2       1 RES1   0.0000
    57 H22     -0.3420  -0.9288   2.1681   H         1 RES1   0.0000
    58 C25      1.4234  -0.3722   3.0955   C.2       1 RES1   0.0000
    59 H23      1.2403   0.4788   3.4765   H         1 RES1   0.0000
    60 C26      0.7821  -3.4739   1.2218   C.3       1 RES1   0.0000
    61 H24      0.6868  -3.2206   0.2803   H         1 RES1   0.0000
    62 H25     -0.0863  -3.7617   1.5714   H         1 RES1   0.0000
    63 H26      1.4244  -4.2105   1.2990   H         1 RES1   0.0000
    64 Sb1      7.5548  -8.4243   1.4084   Sb        2 RES2  -1.0000
    65 F1       9.1472  -7.6078   0.8573   F         2 RES2   0.0000
    66 F2       8.4284  -9.1220   2.9128   F         2 RES2   0.0000
    67 F3       5.9402  -9.1976   1.9669   F         2 RES2   0.0000
    68 F4       6.7123  -7.7411  -0.1209   F         2 RES2   0.0000
    69 F5       7.1239  -6.8718   2.3616   F         2 RES2   0.0000
    70 F6       8.0026  -9.9686   0.4516   F         2 RES2   0.0000
    71 Sb2      0.1973  -7.5639   3.6044   Sb        3 RES3  -1.0000
    72 F7       1.3524  -6.1213   3.2792   F         3 RES3   0.0000
    73 F8       1.6110  -8.5121   4.3999   F         3 RES3   0.0000
    74 F9      -0.9120  -9.0098   3.9638   F         3 RES3   0.0000
    75 F10     -1.2096  -6.6124   2.8373   F         3 RES3   0.0000
    76 F11     -0.2212  -6.8579   5.2872   F         3 RES3   0.0000
    77 F12      0.6597  -8.3155   1.9664   F         3 RES3   0.0000
@<TRIPOS>BOND
     1     1     2    1
     2     2     3   ar
     3     3     4   ar
     4     4     5    1
     5     6     4   ar
     6     7     6    1
     7     8     6   ar
     8     9     8    1
     9    10     2   ar
    10    11     3    1
    11    12     1    1
    12    13    12    2
    13    14    13    1
    14    15    14    1
    15    16    11    1
    16    17    16    1
    17    18    13    1
    18    19    18    1
    19    20    18    1
    20    21    18    1
    21    22    10    1
    22    23     1    1
    23    24    23    2
    24    25    24    1
    25    26    25    1
    26    27    22    1
    27    28    27    1
    28    29    24    1
    29    30    29    1
    30    31    29    1
    31    32    29    1
    32    33     1    1
    33    34    33   ar
    34    35    34   ar
    35    36    35    1
    36    37    35   ar
    37    38    37    1
    38    39    37   ar
    39    40    39    1
    40    41    33   ar
    41    42    34    1
    42    43     1    1
    43    44    43    2
    44    45    44    1
    45    46    45    1
    46    47    42    1
    47    48    47    1
    48    49    44    1
    49    50    49    1
    50    51    49    1
    51    52    49    1
    52    53    41    1
    53    54     1    1
    54    55    54    2
    55    56    55    1
    56    57    56    1
    57    58    53    1
    58    59    58    1
    59    60    55    1
    60    61    60    1
    61    62    60    1
    62    63    60    1
    63     8    10   ar
    64    11    12    1
    65    14    16    2
    66    22    23    1
    67    25    27    2
    68    39    41   ar
    69    42    43    1
    70    45    47    2
    71    53    54    1
    72    56    58    2
    73    64    65    1
    74    66    64    1
    75    67    64    1
    76    68    64    1
    77    69    64    1
    78    70    64    1
    79    71    72    1
    80    73    71    1
    81    74    71    1
    82    75    71    1
    83    76    71    1
    84    77    71    1
@<TRIPOS>SUBSTRUCTURE
     1 RES1        1 GROUP             0 ****  ****    0  
     2 RES2       64 GROUP             0 ****  ****    0  
     3 RES3       71 GROUP             0 ****  ****    0  
@<TRIPOS>CRYSIN
   19.7007   11.1095   16.8557   90.0000  110.9156   90.0000    14     1
