@<TRIPOS>MOLECULE
ECOPIV
    89    96     5     0     0
SMALL
USER_CHARGES
****
Generated from the CSD

@<TRIPOS>ATOM
     1 Fe1     10.7268   1.4962  -8.7458   Fe        1 RES1   0.0000
     2 O2      12.3022   1.1523  -9.9451   O.co2     1 RES1  -1.0000
     3 O3       9.6881   0.2508  -9.9335   O.co2     1 RES1   0.0000
     4 O4       9.9921   3.0435  -9.8121   O.co2     1 RES1   0.0000
     5 O5      14.0412  -0.2490 -10.1578   O.co2     1 RES1   0.0000
     6 O6       7.7809  -0.9085 -10.0220   O.co2     1 RES1   0.0000
     7 O7       9.8311   5.2764  -9.8181   O.co2     1 RES1   0.0000
     8 C25      8.5941  -0.1987  -9.4396   C.2       1 RES1   0.0000
     9 C26     13.1227   0.2524  -9.5221   C.2       1 RES1   0.0000
    10 C27     10.2527   4.2153  -9.3696   C.2       1 RES1   0.0000
    11 C25F    12.8595  -0.1987  -8.0521   C.2       1 RES1   0.0000
    12 O3F     11.7655   0.2508  -7.5582   O.co2     1 RES1   0.0000
    13 O2F      9.1514   1.1523  -7.5466   O.co2     1 RES1  -1.0000
    14 C26F     8.3309   0.2524  -7.9696   C.2       1 RES1   0.0000
    15 O5F      7.4124  -0.2490  -7.3339   O.co2     1 RES1   0.0000
    16 C27F    11.2009   4.2153  -8.1221   C.2       1 RES1   0.0000
    17 O4F     11.4615   3.0435  -7.6796   O.co2     1 RES1  -1.0000
    18 O7F     11.6225   5.2764  -7.6736   O.co2     1 RES1   0.0000
    19 O6F     13.6727  -0.9085  -7.4697   O.co2     1 RES1   0.0000
    20 S1      12.8330   9.7688   1.5522   S.3       2 RES2   1.0000
    21 S2      10.4917   8.2275   0.6713   S.3       2 RES2   0.0000
    22 S3      14.3103   9.1153  -1.2632   S.3       2 RES2   0.0000
    23 S5      11.9368   7.6067  -2.1235   S.3       2 RES2   0.0000
    24 S7      15.8762   8.4859  -3.7184   S.3       2 RES2   0.0000
    25 S12     11.7824  10.3611   4.2578   S.3       2 RES2   0.0000
    26 S14      8.9472   8.5942   3.1380   S.3       2 RES2   0.0000
    27 S15     13.0858   6.7471  -4.7137   S.3       2 RES2   0.0000
    28 C1      13.3229   7.5840  -3.2003   C.2       2 RES2   0.0000
    29 C4      14.4163   8.2644  -2.7910   C.2       2 RES2   0.0000
    30 C6      11.5089   9.6184   2.6965   C.2       2 RES2   0.0000
    31 C10     12.7222   8.5244  -0.8693   C.2       2 RES2   0.0000
    32 C12     10.4286   8.9178   2.2729   C.2       2 RES2   0.0000
    33 C13     12.0966   8.7989   0.3180   C.2       2 RES2   0.0000
    34 C14     10.1327  10.2939   4.9862   C.3       2 RES2   0.0000
    35 H3      10.1988  10.5054   5.9300   H         2 RES2   0.0000
    36 H4       9.5791  10.9722   4.5688   H         2 RES2   0.0000
    37 C16     14.3830   7.4012  -5.7936   C.3       2 RES2   0.0000
    38 H7      15.0537   6.7090  -5.9101   H         2 RES2   0.0000
    39 H8      13.9915   7.5708  -6.6643   H         2 RES2   0.0000
    40 C18      9.4573   8.9533   4.8361   C.3       2 RES2   0.0000
    41 H11      8.6766   8.9294   5.4109   H         2 RES2   0.0000
    42 H12     10.0665   8.2591   5.1345   H         2 RES2   0.0000
    43 C20     15.0731   8.6361  -5.3532   C.3       2 RES2   0.0000
    44 H15     14.4272   9.3583  -5.3192   H         2 RES2   0.0000
    45 H16     15.7452   8.8715  -6.0115   H         2 RES2   0.0000
    46 S4       8.1401   6.4931  -1.7100   S.3       3 RES3   0.0000
    47 S6       4.3132   5.7175   0.2627   S.3       3 RES3   0.0000
    48 S8       6.7693   7.1148   1.0932   S.3       3 RES3   0.0000
    49 S9       5.7382   5.0540  -2.6168   S.3       3 RES3   0.0000
    50 S10      2.8443   6.1658   2.7626   S.3       3 RES3   0.0000
    51 S11      9.6601   6.0822  -4.2082   S.3       3 RES3   0.0000
    52 S13      5.8134   7.7777   3.8135   S.3       3 RES3   0.0000
    53 S16      6.7331   4.4858  -5.3192   S.3       3 RES3   0.0000
    54 C2       8.1903   5.7981  -3.3171   C.2       3 RES3   0.0000
    55 C3       8.2940   4.7519  -6.2075   C.3       3 RES3   0.0000
    56 H1       8.8994   4.0238  -5.9972   H         3 RES3   0.0000
    57 H2       8.1184   4.7220  -7.1611   H         3 RES3   0.0000
    58 C5       4.3314   6.4107   1.8779   C.2       3 RES3   0.0000
    59 C7       7.0763   5.1679  -3.7464   C.2       3 RES3   0.0000
    60 C8       5.9282   6.2248  -0.1494   C.2       3 RES3   0.0000
    61 C9       5.4682   7.0465   2.2627   C.2       3 RES3   0.0000
    62 C11      6.5213   5.9491  -1.3437   C.2       3 RES3   0.0000
    63 C15      4.1442   7.9279   4.4968   C.3       3 RES3   0.0000
    64 H5       4.2113   8.2168   5.4203   H         3 RES3   0.0000
    65 H6       3.6693   8.6175   4.0073   H         3 RES3   0.0000
    66 C17      8.9755   6.0626  -5.8793   C.3       3 RES3   0.0000
    67 H9       8.3339   6.7868  -5.9682   H         3 RES3   0.0000
    68 H10      9.6897   6.2182  -6.5174   H         3 RES3   0.0000
    69 C19      3.3342   6.6527   4.4460   C.3       3 RES3   0.0000
    70 H13      2.5358   6.7678   4.9841   H         3 RES3   0.0000
    71 H14      3.8551   5.9355   4.8407   H         3 RES3   0.0000
    72 N1      15.8634   6.3359  -8.7458   N.pl3     4 RES4   0.0000
    73 C21     15.8634   4.8577  -8.7458   C.ar      4 RES4   0.0000
    74 C22     15.8634   2.1525  -8.7458   C.ar      4 RES4   0.0000
    75 H17     15.8634   1.2229  -8.7458   H         4 RES4   0.0000
    76 O1      16.9416   6.9061  -8.5979   O.2       4 RES4   0.0000
    77 C23     14.8051   4.2153  -8.1291   C.ar      4 RES4   0.0000
    78 H18     14.1088   4.6901  -7.7362   H         4 RES4   0.0000
    79 C24     14.8285   2.8268  -8.1235   C.ar      4 RES4   0.0000
    80 H19     14.1491   2.3520  -7.7016   H         4 RES4   0.0000
    81 C24F    16.8983   2.8268  -9.3682   C.ar      4 RES4   0.0000
    82 C23F    16.9217   4.2153  -9.3626   C.ar      4 RES4   0.0000
    83 H18F    17.6180   4.6901  -9.7555   H         4 RES4   0.0000
    84 H19F    17.5777   2.3520  -9.7901   H         4 RES4   0.0000
    85 O1F     14.7852   6.9061  -8.8938   O.2       4 RES4   0.0000
    86 N2      10.7268   7.8561  -8.7458   N.3       5 RES5   1.0000
    87 H20     10.7268   6.7648  -8.7458   H         5 RES5   0.0000
    88 H21      9.8401   8.3309  -8.3470   H         5 RES5   0.0000
    89 H21F    11.6135   8.3309  -9.1447   H         5 RES5   0.0000
@<TRIPOS>BOND
     1     1     2    1
     2     2     9    1
     3     3     1    1
     4     4     1    1
     5     5     9    2
     6     6     8    2
     7     7    10    2
     8     8     3    1
     9     9    11    1
    10    10     4    1
    11    11    12    1
    12    12     1    1
    13    13     1    1
    14    14     8    1
    15    15    14    2
    16    16    10    1
    17    17     1    1
    18    18    16    2
    19    19    11    2
    20    13    14    1
    21    16    17    1
    22    20    30    1
    23    21    32    1
    24    22    29    1
    25    23    28    1
    26    24    29    1
    27    25    30    1
    28    26    32    1
    29    27    28    1
    30    28    29    2
    31    30    32    2
    32    31    22    1
    33    33    20    1
    34    34    25    1
    35    35    34    1
    36    36    34    1
    37    37    27    1
    38    38    37    1
    39    39    37    1
    40    40    26    1
    41    41    40    1
    42    42    40    1
    43    43    24    1
    44    44    43    1
    45    45    43    1
    46    21    33    1
    47    23    31    1
    48    31    33    2
    49    34    40    1
    50    37    43    1
    51    46    54    1
    52    47    58    1
    53    48    60    1
    54    49    59    1
    55    50    58    1
    56    51    54    1
    57    52    61    1
    58    53    55    1
    59    54    59    2
    60    55    56    1
    61    57    55    1
    62    58    61    2
    63    59    53    1
    64    60    47    1
    65    61    48    1
    66    62    46    1
    67    63    52    1
    68    64    63    1
    69    65    63    1
    70    66    51    1
    71    67    66    1
    72    68    66    1
    73    69    50    1
    74    70    69    1
    75    71    69    1
    76    49    62    1
    77    55    66    1
    78    60    62    2
    79    63    69    1
    80    72    73    1
    81    73    77   ar
    82    74    75    1
    83    76    72    2
    84    77    78    1
    85    79    74   ar
    86    80    79    1
    87    81    74   ar
    88    82    73   ar
    89    83    82    1
    90    84    81    1
    91    85    72    2
    92    77    79   ar
    93    81    82   ar
    94    86    87    1
    95    88    86    1
    96    89    86    1
@<TRIPOS>SUBSTRUCTURE
     1 RES1        1 GROUP             0 ****  ****    0  
     2 RES2       20 GROUP             0 ****  ****    0  
     3 RES3       46 GROUP             0 ****  ****    0  
     4 RES4       72 GROUP             0 ****  ****    0  
     5 RES5       86 GROUP             0 ****  ****    0  
@<TRIPOS>CRYSIN
   10.2732   19.9494   35.0304   90.0000   92.9690   90.0000    15     1
