@<TRIPOS>MOLECULE
ECOWEZ
    83    85     3     0     0
SMALL
USER_CHARGES
****
Generated from the CSD

@<TRIPOS>ATOM
     1 Fe1     11.6864   8.4804  12.6999   Fe        1 RES1   0.0000
     2 B1      11.2327  11.1420  11.1951   B         1 RES1   0.0000
     3 H1      11.0947  12.0014  10.7040   H         1 RES1   0.0000
     4 N1      11.4036  10.2917  13.5441   N.ar      1 RES1   0.0000
     5 N2      11.1149  11.3506  12.7120   N.ar      1 RES1   0.0000
     6 C1      11.6527   9.9529  16.0194   C.3       1 RES1   0.0000
     7 H2      11.1732   9.1006  15.9622   H         1 RES1   0.0000
     8 H3      11.3574  10.4406  16.8174   H         1 RES1   0.0000
     9 H4      12.6161   9.7827  16.0787   H         1 RES1   0.0000
    10 C2      11.3662  10.7681  14.8038   C.ar      1 RES1   0.0000
    11 C3      11.0516  12.1355  14.7705   C.ar      1 RES1   0.0000
    12 H5      10.9614  12.7173  15.5155   H         1 RES1   0.0000
    13 C4      10.8969  12.4653  13.4400   C.ar      1 RES1   0.0000
    14 C5      10.5368  13.7804  12.8271   C.3       1 RES1   0.0000
    15 H6      11.2323  14.0457  12.1902   H         1 RES1   0.0000
    16 H7      10.4615  14.4589  13.5304   H         1 RES1   0.0000
    17 H8       9.6799  13.6991  12.3588   H         1 RES1   0.0000
    18 N3      10.2329   8.8520  11.3682   N.ar      1 RES1   0.0000
    19 N4      10.1929  10.0968  10.7757   N.ar      1 RES1   0.0000
    20 C6       8.9173   6.7311  11.2064   C.3       1 RES1   0.0000
    21 H9       9.7163   6.1659  11.1508   H         1 RES1   0.0000
    22 H10      8.2229   6.3740  10.6154   H         1 RES1   0.0000
    23 H11      8.5889   6.7412  12.1294   H         1 RES1   0.0000
    24 C7       9.2620   8.1215  10.7861   C.ar      1 RES1   0.0000
    25 C8       8.6164   8.8963   9.8224   C.ar      1 RES1   0.0000
    26 H12      7.9021   8.6227   9.2596   H         1 RES1   0.0000
    27 C9       9.2155  10.1343   9.8478   C.ar      1 RES1   0.0000
    28 C10      8.8874  11.3693   9.0710   C.3       1 RES1   0.0000
    29 H13      8.4715  12.0277   9.6646   H         1 RES1   0.0000
    30 H14      8.2665  11.1436   8.3470   H         1 RES1   0.0000
    31 H15      9.7091  11.7438   8.6912   H         1 RES1   0.0000
    32 N5      12.9544   9.3089  11.3959   N.ar      1 RES1   0.0000
    33 N6      12.6304  10.5523  10.9001   N.ar      1 RES1   0.0000
    34 C11     14.8563   7.6942  11.1537   C.3       1 RES1   0.0000
    35 H16     14.9363   7.5592  12.1207   H         1 RES1   0.0000
    36 H17     15.7500   7.7153  10.7527   H         1 RES1   0.0000
    37 H18     14.3407   6.9584  10.7631   H         1 RES1   0.0000
    38 C12     14.1591   8.9881  10.8866   C.ar      1 RES1   0.0000
    39 C13     14.6107  10.0326  10.0818   C.ar      1 RES1   0.0000
    40 H19     15.4326  10.0687   9.6072   H         1 RES1   0.0000
    41 C14     13.6332  11.0010  10.1103   C.ar      1 RES1   0.0000
    42 C15     13.6124  12.3319   9.4362   C.3       1 RES1   0.0000
    43 H20     12.8743  12.3612   8.7920   H         1 RES1   0.0000
    44 H21     14.4615  12.4739   8.9658   H         1 RES1   0.0000
    45 H22     13.4895  13.0363  10.1061   H         1 RES1   0.0000
    46 C16     10.3986   7.7129  13.9236   C.1       1 RES1   0.0000
    47 N7       9.5836   7.2988  14.6246   N.1       1 RES1   0.0000
    48 C17     13.1399   8.0907  13.9144   C.1       1 RES1   0.0000
    49 N8      14.0477   7.8622  14.5890   N.1       1 RES1   0.0000
    50 C18     11.9963   6.6925  12.0472   C.1       1 RES1  -1.0000
    51 N9      12.2015   5.6156  11.6929   N.1       1 RES1   0.0000
    52 N10      6.5195  11.7357  14.8031   N.4       2 RES2   1.0000
    53 C19      7.5092  11.3617  13.7187   C.3       2 RES2   0.0000
    54 H23      7.4483  12.0311  12.9916   H         2 RES2   0.0000
    55 H24      8.4235  11.4122  14.0953   H         2 RES2   0.0000
    56 C20      7.3107   9.9894  13.1251   C.3       2 RES2   0.0000
    57 H25      7.4418   9.3108  13.8190   H         2 RES2   0.0000
    58 H26      7.9592   9.8489  12.4040   H         2 RES2   0.0000
    59 H27      6.4020   9.9174  12.7656   H         2 RES2   0.0000
    60 C21      6.5388  10.7096  15.9297   C.3       2 RES2   0.0000
    61 H28      5.9085  11.0051  16.6349   H         2 RES2   0.0000
    62 H29      6.2037   9.8483  15.5746   H         2 RES2   0.0000
    63 C22      7.8896  10.4712  16.5648   C.3       2 RES2   0.0000
    64 H30      8.5067  10.1112  15.8944   H         2 RES2   0.0000
    65 H31      7.7965   9.8305  17.3006   H         2 RES2   0.0000
    66 H32      8.2416  11.3181  16.9113   H         2 RES2   0.0000
    67 C23      6.9381  13.1103  15.2869   C.3       2 RES2   0.0000
    68 H33      7.8702  13.0575  15.6163   H         2 RES2   0.0000
    69 H34      6.9292  13.7311  14.5160   H         2 RES2   0.0000
    70 C24      6.0813  13.6904  16.3749   C.3       2 RES2   0.0000
    71 H35      5.1514  13.7406  16.0665   H         2 RES2   0.0000
    72 H36      6.4009  14.5898  16.5984   H         2 RES2   0.0000
    73 H37      6.1310  13.1190  17.1703   H         2 RES2   0.0000
    74 C25      5.1027  11.7401  14.2666   C.3       2 RES2   0.0000
    75 H38      4.8952  10.8350  13.9233   H         2 RES2   0.0000
    76 H39      4.4839  11.9228  15.0166   H         2 RES2   0.0000
    77 C26      4.8324  12.7420  13.1680   C.3       2 RES2   0.0000
    78 H40      4.9556  13.6499  13.5165   H         2 RES2   0.0000
    79 H41      3.9114  12.6361  12.8490   H         2 RES2   0.0000
    80 H42      5.4538  12.5890  12.4266   H         2 RES2   0.0000
    81 O1      16.4973   6.7913  15.9453   O.3       3 RES3   0.0000
    82 H43     17.2301   6.9611  15.5224   H         3 RES3   0.0000
    83 H44     15.8134   7.1976  15.4373   H         3 RES3   0.0000
@<TRIPOS>BOND
     1     1     4    1
     2     2     3    1
     3     4     5   ar
     4     5     2    1
     5     6     7    1
     6     8     6    1
     7     9     6    1
     8    10     4   ar
     9    11    10   ar
    10    12    11    1
    11    13     5   ar
    12    14    13    1
    13    15    14    1
    14    16    14    1
    15    17    14    1
    16    18     1    1
    17    19     2    1
    18    20    21    1
    19    22    20    1
    20    23    20    1
    21    24    18   ar
    22    25    24   ar
    23    26    25    1
    24    27    19   ar
    25    28    27    1
    26    29    28    1
    27    30    28    1
    28    31    28    1
    29    32     1    1
    30    33     2    1
    31    34    35    1
    32    36    34    1
    33    37    34    1
    34    38    32   ar
    35    39    38   ar
    36    40    39    1
    37    41    33   ar
    38    42    41    1
    39    43    42    1
    40    44    42    1
    41    45    42    1
    42    46     1    1
    43    47    46    3
    44    48     1    1
    45    49    48    3
    46    50     1    1
    47    51    50    3
    48     6    10    1
    49    11    13   ar
    50    18    19   ar
    51    20    24    1
    52    25    27   ar
    53    32    33   ar
    54    34    38    1
    55    39    41   ar
    56    52    53    1
    57    53    54    1
    58    55    53    1
    59    56    53    1
    60    57    56    1
    61    58    56    1
    62    59    56    1
    63    60    52    1
    64    61    60    1
    65    62    60    1
    66    63    60    1
    67    64    63    1
    68    65    63    1
    69    66    63    1
    70    67    52    1
    71    68    67    1
    72    69    67    1
    73    70    67    1
    74    71    70    1
    75    72    70    1
    76    73    70    1
    77    74    52    1
    78    75    74    1
    79    76    74    1
    80    77    74    1
    81    78    77    1
    82    79    77    1
    83    80    77    1
    84    81    82    1
    85    83    81    1
@<TRIPOS>SUBSTRUCTURE
     1 RES1        1 GROUP             0 ****  ****    0  
     2 RES2       52 GROUP             0 ****  ****    0  
     3 RES3       81 GROUP             0 ****  ****    0  
@<TRIPOS>CRYSIN
    9.5737   10.0872   17.4380   87.7452   85.4244   62.7646     2     1
