@<TRIPOS>MOLECULE
ECOWID
    80    83     2     0     0
SMALL
USER_CHARGES
****
Generated from the CSD

@<TRIPOS>ATOM
     1 Fe1      5.7779   0.1819  14.0683   Fe        1 RES1   0.0000
     2 N1       4.5078   2.6511  13.1611   N.ar      1 RES1   0.0000
     3 N2       5.7329   2.0848  13.4089   N.ar      1 RES1   0.0000
     4 N3       3.2982   0.5595  12.5797   N.ar      1 RES1   0.0000
     5 N4       4.3577  -0.3090  12.7408   N.ar      1 RES1   0.0000
     6 N5       3.2772   1.3814  14.9311   N.ar      1 RES1   0.0000
     7 N6       4.3284   0.6035  15.3717   N.ar      1 RES1   0.0000
     8 N7       6.2260  -2.7070  15.0042   N.1       1 RES1   0.0000
     9 N8       7.8138   0.9252  16.2638   N.1       1 RES1   0.0000
    10 N9       7.9243  -0.4596  11.9659   N.1       1 RES1   0.0000
    11 C1       3.4957   4.7190  12.2475   C.3       1 RES1   0.0000
    12 H1       2.9356   4.2416  11.6009   H         1 RES1   0.0000
    13 H2       3.8094   5.5587  11.8524   H         1 RES1   0.0000
    14 H3       2.9718   4.9137  13.0523   H         1 RES1   0.0000
    15 C2       4.6651   3.8734  12.6098   C.ar      1 RES1   0.0000
    16 C3       6.0095   4.1095  12.5176   C.ar      1 RES1   0.0000
    17 H4       6.4215   4.8942  12.1747   H         1 RES1   0.0000
    18 C4       6.6615   2.9837  13.0191   C.ar      1 RES1   0.0000
    19 C5       8.1334   2.7687  13.1461   C.3       1 RES1   0.0000
    20 H5       8.3318   2.3709  14.0191   H         1 RES1   0.0000
    21 H6       8.5972   3.6279  13.0654   H         1 RES1   0.0000
    22 H7       8.4379   2.1652  12.4367   H         1 RES1   0.0000
    23 C6       1.2579   0.8481  11.1506   C.3       1 RES1   0.0000
    24 H8       0.4613   0.4554  11.5642   H         1 RES1   0.0000
    25 H9       1.1875   0.7787  10.1757   H         1 RES1   0.0000
    26 H10      1.3283   1.7911  11.4070   H         1 RES1   0.0000
    27 C7       2.4728   0.1151  11.6140   C.ar      1 RES1   0.0000
    28 C8       3.0026  -1.0801  11.1432   C.ar      1 RES1   0.0000
    29 H11      2.6390  -1.6286  10.4586   H         1 RES1   0.0000
    30 C9       4.1647  -1.3188  11.8655   C.ar      1 RES1   0.0000
    31 C10      5.0888  -2.4776  11.7138   C.3       1 RES1   0.0000
    32 H12      5.9783  -2.1542  11.4594   H         1 RES1   0.0000
    33 H13      4.7477  -3.0769  11.0167   H         1 RES1   0.0000
    34 H14      5.1465  -2.9617  12.5624   H         1 RES1   0.0000
    35 C11      1.1274   2.3438  15.7595   C.3       1 RES1   0.0000
    36 H15      1.3454   3.2766  15.5543   H         1 RES1   0.0000
    37 H16      0.6040   2.3057  16.5866   H         1 RES1   0.0000
    38 H17      0.6055   1.9595  15.0251   H         1 RES1   0.0000
    39 C12      2.3863   1.5668  15.9321   C.ar      1 RES1   0.0000
    40 C13      2.8711   0.8981  17.0367   C.ar      1 RES1   0.0000
    41 H18      2.4611   0.8465  17.8913   H         1 RES1   0.0000
    42 C14      4.0743   0.3123  16.6599   C.ar      1 RES1   0.0000
    43 C15      4.9794  -0.5172  17.5114   C.3       1 RES1   0.0000
    44 H19      5.2618  -1.3112  17.0110   H         1 RES1   0.0000
    45 H20      4.5029  -0.7940  18.3210   H         1 RES1   0.0000
    46 H21      5.7676   0.0102  17.7603   H         1 RES1   0.0000
    47 C16      6.0174  -1.6260  14.6578   C.1       1 RES1   0.0000
    48 C17      7.0857   0.6442  15.4113   C.1       1 RES1   0.0000
    49 C18      7.1448  -0.2235  12.7828   C.1       1 RES1  -1.0000
    50 B1       3.2342   1.8334  13.4642   B         1 RES1   0.0000
    51 H22      2.4093   2.3650  13.2724   H         1 RES1   0.0000
    52 N10      5.4153   5.2827  16.9012   N.4       2 RES2   1.0000
    53 C19      6.8799   5.6255  17.0893   C.3       2 RES2   0.0000
    54 H23      7.0006   6.5964  16.9377   H         2 RES2   0.0000
    55 H24      7.1331   5.4342  18.0275   H         2 RES2   0.0000
    56 C20      7.8163   4.8705  16.1679   C.3       2 RES2   0.0000
    57 H25      7.7410   3.9089  16.3429   H         2 RES2   0.0000
    58 H26      8.7384   5.1608  16.3298   H         2 RES2   0.0000
    59 H27      7.5749   5.0533  15.2347   H         2 RES2   0.0000
    60 C21      5.1827   3.8048  17.1297   C.3       2 RES2   0.0000
    61 H28      5.6577   3.2952  16.4268   H         2 RES2   0.0000
    62 H29      4.2150   3.6169  17.0346   H         2 RES2   0.0000
    63 C22      5.6469   3.3071  18.4910   C.3       2 RES2   0.0000
    64 H30      6.6258   3.3333  18.5332   H         2 RES2   0.0000
    65 H31      5.3400   2.3862  18.6249   H         2 RES2   0.0000
    66 H32      5.2755   3.8810  19.1934   H         2 RES2   0.0000
    67 C23      4.6373   6.1326  17.8845   C.3       2 RES2   0.0000
    68 H33      4.6935   7.0780  17.5952   H         2 RES2   0.0000
    69 H34      5.0742   6.0665  18.7716   H         2 RES2   0.0000
    70 C24      3.1678   5.7610  18.0409   C.3       2 RES2   0.0000
    71 H35      2.7436   5.7271  17.1577   H         2 RES2   0.0000
    72 H36      2.7177   6.4339  18.5934   H         2 RES2   0.0000
    73 H37      3.0964   4.8840  18.4729   H         2 RES2   0.0000
    74 C25      4.9588   5.5841  15.4744   C.3       2 RES2   0.0000
    75 H38      5.3620   4.9111  14.8706   H         2 RES2   0.0000
    76 H39      3.9766   5.4689  15.4312   H         2 RES2   0.0000
    77 C26      5.2975   6.9562  14.9468   C.3       2 RES2   0.0000
    78 H40      4.8992   7.6375  15.5281   H         2 RES2   0.0000
    79 H41      4.9417   7.0543  14.0400   H         2 RES2   0.0000
    80 H42      6.2705   7.0687  14.9308   H         2 RES2   0.0000
@<TRIPOS>BOND
     1     1     3    1
     2     2     3   ar
     3     3    18   ar
     4     4     5   ar
     5     5     1    1
     6     6     7   ar
     7     7     1    1
     8     8    47    3
     9     9    48    3
    10    10    49    3
    11    11    12    1
    12    13    11    1
    13    14    11    1
    14    15     2   ar
    15    16    15   ar
    16    17    16    1
    17    18    16   ar
    18    19    18    1
    19    20    19    1
    20    21    19    1
    21    22    19    1
    22    23    24    1
    23    25    23    1
    24    26    23    1
    25    27     4   ar
    26    28    27   ar
    27    29    28    1
    28    30     5   ar
    29    31    30    1
    30    32    31    1
    31    33    31    1
    32    34    31    1
    33    35    36    1
    34    37    35    1
    35    38    35    1
    36    39     6   ar
    37    40    39   ar
    38    41    40    1
    39    42     7   ar
    40    43    42    1
    41    44    43    1
    42    45    43    1
    43    46    43    1
    44    47     1    1
    45    48     1    1
    46    49     1    1
    47    50     2    1
    48    51    50    1
    49     4    50    1
    50     6    50    1
    51    11    15    1
    52    23    27    1
    53    28    30   ar
    54    35    39    1
    55    40    42   ar
    56    52    53    1
    57    53    54    1
    58    55    53    1
    59    56    53    1
    60    57    56    1
    61    58    56    1
    62    59    56    1
    63    60    52    1
    64    61    60    1
    65    62    60    1
    66    63    60    1
    67    64    63    1
    68    65    63    1
    69    66    63    1
    70    67    52    1
    71    68    67    1
    72    69    67    1
    73    70    67    1
    74    71    70    1
    75    72    70    1
    76    73    70    1
    77    74    52    1
    78    75    74    1
    79    76    74    1
    80    77    74    1
    81    78    77    1
    82    79    77    1
    83    80    77    1
@<TRIPOS>SUBSTRUCTURE
     1 RES1        1 GROUP             0 ****  ****    0  
     2 RES2       52 GROUP             0 ****  ****    0  
@<TRIPOS>CRYSIN
    9.7740    9.7740   26.1990   90.0000   90.0000  120.0000   144     1
