@<TRIPOS>MOLECULE
ECUBAH
   101   114     1     0     0
SMALL
NO_CHARGES
****
Generated from the CSD

@<TRIPOS>ATOM
     1 Fe1     22.8570  24.5462   1.5333   Fe        1 RES1   0.0000
     2 N1      21.2474  25.5193   2.1656   N.2       1 RES1   0.0000
     3 N2      22.1956  22.8691   2.3910   N.2       1 RES1   0.0000
     4 N3      24.3543  23.5403   0.7269   N.2       1 RES1   0.0000
     5 N4      23.6315  26.2343   0.8815   N.2       1 RES1   0.0000
     6 N5      23.8407  24.7986   3.2564   N.2       1 RES1   0.0000
     7 N6      25.3267  24.5076   4.8504   N.pl3     1 RES1   0.0000
     8 N7      21.8419  24.2212  -0.1543   N.2       1 RES1   0.0000
     9 N8      20.7023  23.2147  -1.7332   N.pl3     1 RES1   0.0000
    10 Cl1     18.5911  28.4393   1.8584   Cl        1 RES1   0.0000
    11 Cl2     17.3288  25.6269   2.7835   Cl        1 RES1   0.0000
    12 Cl3     20.2174  20.9899   5.2704   Cl        1 RES1   0.0000
    13 Cl4     23.1457  19.7333   4.5738   Cl        1 RES1   0.0000
    14 Cl5     26.0331  20.2260  -0.6632   Cl        1 RES1   0.0000
    15 Cl6     26.8835  22.9000  -2.2691   Cl        1 RES1   0.0000
    16 Cl7     26.7994  28.4714   0.0215   Cl        1 RES1   0.0000
    17 Cl8     24.3674  30.0796   1.4685   Cl        1 RES1   0.0000
    18 F1      19.3264  24.9345   5.6170   F         1 RES1   0.0000
    19 F2      17.0699  24.4149   6.9740   F         1 RES1   0.0000
    20 F3      15.4013  22.4499   6.1507   F         1 RES1   0.0000
    21 F4      15.9761  21.0382   3.9142   F         1 RES1   0.0000
    22 F5      18.1623  21.6422   2.4621   F         1 RES1   0.0000
    23 F6      22.9394  18.8704   1.2024   F         1 RES1   0.0000
    24 F7      24.2547  16.5543   1.4994   F         1 RES1   0.0000
    25 F8      26.8354  16.5566   2.4067   F         1 RES1   0.0000
    26 F9      27.9901  18.8672   3.2004   F         1 RES1   0.0000
    27 F10     26.6443  21.1910   2.9629   F         1 RES1   0.0000
    28 F11     25.4297  26.2818  -3.0545   F         1 RES1   0.0000
    29 F12     27.6208  27.0013  -4.4739   F         1 RES1   0.0000
    30 F13     30.0899  26.5710  -3.4360   F         1 RES1   0.0000
    31 F14     30.3557  25.5345  -0.9463   F         1 RES1   0.0000
    32 F15     28.1718  25.0383   0.5445   F         1 RES1   0.0000
    33 F16     20.9699  28.9091  -0.8056   F         1 RES1   0.0000
    34 F17     20.4317  31.5104  -1.1690   F         1 RES1   0.0000
    35 F18     20.5238  33.2302   0.9109   F         1 RES1   0.0000
    36 F19     21.2517  32.3296   3.3626   F         1 RES1   0.0000
    37 F20     21.9063  29.7491   3.7035   F         1 RES1   0.0000
    38 C1      20.9461  26.8400   1.9128   C.2       1 RES1   0.0000
    39 C2      19.5299  27.0317   2.1152   C.2       1 RES1   0.0000
    40 C3      19.0120  25.8701   2.5327   C.2       1 RES1   0.0000
    41 C4      20.0906  24.9116   2.6188   C.2       1 RES1   0.0000
    42 C5      20.0277  23.6613   3.2260   C.2       1 RES1   0.0000
    43 C6      21.0892  22.7658   3.2032   C.2       1 RES1   0.0000
    44 C7      21.2523  21.5984   4.0281   C.2       1 RES1   0.0000
    45 C8      22.4196  21.0262   3.7320   C.2       1 RES1   0.0000
    46 C9      22.9889  21.7816   2.6339   C.2       1 RES1   0.0000
    47 C10     24.0676  21.4010   1.8344   C.2       1 RES1   0.0000
    48 C11     24.5860  22.1964   0.8173   C.2       1 RES1   0.0000
    49 C12     25.5124  21.7884  -0.2176   C.2       1 RES1   0.0000
    50 C13     25.8786  22.9002  -0.8780   C.2       1 RES1   0.0000
    51 C14     25.2152  24.0218  -0.2454   C.2       1 RES1   0.0000
    52 C15     25.5468  25.3608  -0.3643   C.2       1 RES1   0.0000
    53 C16     24.8715  26.3851   0.2884   C.2       1 RES1   0.0000
    54 C17     25.2635  27.7641   0.3972   C.2       1 RES1   0.0000
    55 C18     24.2564  28.4393   0.9716   C.2       1 RES1   0.0000
    56 C19     23.2064  27.5009   1.2196   C.2       1 RES1   0.0000
    57 C20     21.8788  27.8070   1.5738   C.2       1 RES1   0.0000
    58 C21     18.8060  23.3094   3.9775   C.ar      1 RES1   0.0000
    59 C22     18.4970  23.9703   5.1464   C.ar      1 RES1   0.0000
    60 C23     17.3612  23.7157   5.8701   C.ar      1 RES1   0.0000
    61 C24     16.5114  22.7286   5.4425   C.ar      1 RES1   0.0000
    62 C25     16.8090  22.0190   4.3140   C.ar      1 RES1   0.0000
    63 C26     17.9277  22.3309   3.5904   C.ar      1 RES1   0.0000
    64 C27     24.7514  20.0992   2.0697   C.ar      1 RES1   0.0000
    65 C28     24.1763  18.8947   1.7180   C.ar      1 RES1   0.0000
    66 C29     24.8544  17.7073   1.8344   C.ar      1 RES1   0.0000
    67 C30     26.1505  17.7073   2.3227   C.ar      1 RES1   0.0000
    68 C31     26.7398  18.8661   2.6972   C.ar      1 RES1   0.0000
    69 C32     26.0475  20.0477   2.5833   C.ar      1 RES1   0.0000
    70 C33     26.7398  25.7033  -1.1943   C.ar      1 RES1   0.0000
    71 C34     26.6368  26.1819  -2.4847   C.ar      1 RES1   0.0000
    72 C35     27.7441  26.4909  -3.2336   C.ar      1 RES1   0.0000
    73 C36     28.9915  26.2849  -2.7073   C.ar      1 RES1   0.0000
    74 C37     29.1231  25.7785  -1.4599   C.ar      1 RES1   0.0000
    75 C38     28.0044  25.5176  -0.7110   C.ar      1 RES1   0.0000
    76 C39     21.4668  29.2376   1.4473   C.ar      1 RES1   0.0000
    77 C40     21.0892  29.7497   0.2328   C.ar      1 RES1   0.0000
    78 C41     20.7687  31.0801   0.0481   C.ar      1 RES1   0.0000
    79 C42     20.8174  31.9098   1.0956   C.ar      1 RES1   0.0000
    80 C43     21.1693  31.4721   2.3126   C.ar      1 RES1   0.0000
    81 C44     21.4697  30.1331   2.4973   C.ar      1 RES1   0.0000
    82 C45     25.0690  24.4223   3.5347   C.2       1 RES1   0.0000
    83 H1      25.6955  24.1248   2.8844   H         1 RES1   0.0000
    84 C46     24.1963  24.9345   5.4576   C.2       1 RES1   0.0000
    85 H2      24.0647  25.0661   6.3913   H         1 RES1   0.0000
    86 C47     23.2865  25.1376   4.4683   C.2       1 RES1   0.0000
    87 H3      22.4024  25.4638   4.5948   H         1 RES1   0.0000
    88 C48     26.5768  24.1649   5.5285   C.3       1 RES1   0.0000
    89 H4      27.2205  23.8187   4.8732   H         1 RES1   0.0000
    90 H5      26.4051  23.4810   6.2091   H         1 RES1   0.0000
    91 H6      26.9487  24.9631   5.9561   H         1 RES1   0.0000
    92 C49     21.3553  23.0605  -0.5819   C.2       1 RES1   0.0000
    93 H7      21.4582  22.2307  -0.1265   H         1 RES1   0.0000
    94 C50     20.7659  24.5311  -2.0824   C.2       1 RES1   0.0000
    95 H8      20.3968  24.9345  -2.8566   H         1 RES1   0.0000
    96 C51     21.4640  25.1433  -1.0930   C.2       1 RES1   0.0000
    97 H9      21.6614  26.0703  -1.0576   H         1 RES1   0.0000
    98 C52     20.1278  22.1506  -2.5403   C.3       1 RES1   0.0000
    99 H10     20.0563  21.3352  -2.0014   H         1 RES1   0.0000
   100 H11     20.7001  21.9818  -3.3171   H         1 RES1   0.0000
   101 H12     19.2352  22.4196  -2.8465   H         1 RES1   0.0000
@<TRIPOS>BOND
     1     1     2    1
     2     2    38    1
     3     3     1    1
     4     4     1    1
     5     5     1    1
     6     6     1    1
     7     7    82    1
     8     8     1    1
     9     9    92    1
    10    10    39    1
    11    11    40    1
    12    12    44    1
    13    13    45    1
    14    14    49    1
    15    15    50    1
    16    16    54    1
    17    17    55    1
    18    18    59    1
    19    19    60    1
    20    20    61    1
    21    21    62    1
    22    22    63    1
    23    23    65    1
    24    24    66    1
    25    25    67    1
    26    26    68    1
    27    27    69    1
    28    28    71    1
    29    29    72    1
    30    30    73    1
    31    31    74    1
    32    32    75    1
    33    33    77    1
    34    34    78    1
    35    35    79    1
    36    36    80    1
    37    37    81    1
    38    38    39    1
    39    39    40    2
    40    40    41    1
    41    41     2    2
    42    42    41    1
    43    43     3    1
    44    44    43    1
    45    45    44    2
    46    46     3    1
    47    47    46    2
    48    48     4    2
    49    49    48    1
    50    50    49    2
    51    51     4    1
    52    52    51    2
    53    53     5    1
    54    54    53    2
    55    55    54    1
    56    56     5    1
    57    57    38    2
    58    58    42    1
    59    59    58   ar
    60    60    59   ar
    61    61    60   ar
    62    62    61   ar
    63    63    58   ar
    64    64    47    1
    65    65    64   ar
    66    66    65   ar
    67    67    66   ar
    68    68    67   ar
    69    69    64   ar
    70    70    52    1
    71    71    70   ar
    72    72    71   ar
    73    73    72   ar
    74    74    73   ar
    75    75    70   ar
    76    76    57    1
    77    77    76   ar
    78    78    77   ar
    79    79    78   ar
    80    80    79   ar
    81    81    76   ar
    82    82     6    2
    83    83    82    1
    84    84     7    1
    85    85    84    1
    86    86     6    1
    87    87    86    1
    88    88     7    1
    89    89    88    1
    90    90    88    1
    91    91    88    1
    92    92     8    2
    93    93    92    1
    94    94     9    1
    95    95    94    1
    96    96     8    1
    97    97    96    1
    98    98     9    1
    99    99    98    1
   100   100    98    1
   101   101    98    1
   102    42    43    2
   103    45    46    1
   104    47    48    1
   105    50    51    1
   106    52    53    1
   107    55    56    2
   108    56    57    1
   109    62    63   ar
   110    68    69   ar
   111    74    75   ar
   112    80    81   ar
   113    84    86    2
   114    94    96    2
@<TRIPOS>SUBSTRUCTURE
     1 RES1        1 GROUP             0 ****  ****    0  
