@<TRIPOS>MOLECULE
ECUFUD
    79    81     1     0     0
SMALL
NO_CHARGES
****
Generated from the CSD

@<TRIPOS>ATOM
     1 Fe1      4.0111  12.2788   0.5431   Fe        1 RES1   0.0000
     2 As1      0.7119  10.1953   0.4417   As        1 RES1   0.0000
     3 As2      5.1906  12.8132   4.1699   As        1 RES1   0.0000
     4 O1       3.4052  10.5142   1.3278   O.2       1 RES1   0.0000
     5 O2       2.3135  12.3513  -0.5229   O.2       1 RES1   0.0000
     6 O3       5.8328  12.2285   1.4548   O.2       1 RES1   0.0000
     7 O4       3.3333  13.3887   2.1102   O.2       1 RES1   0.0000
     8 O5       5.0502  11.4949  -1.2082   O.3       1 RES1   0.0000
     9 O6       4.5754  14.0671  -0.6125   O.3       1 RES1   0.0000
    10 C1       2.3267   9.8651   1.4025   C.3       1 RES1   0.0000
    11 C2       1.2114  11.7543  -0.5341   C.3       1 RES1   0.0000
    12 C3       2.3525   8.6726   2.3754   C.3       1 RES1   0.0000
    13 C4       0.9265   8.2260   2.8031   C.3       1 RES1   0.0000
    14 H1       0.4716   7.8439   2.0486   H         1 RES1   0.0000
    15 H2       0.4347   8.9857   3.1224   H         1 RES1   0.0000
    16 H3       0.9934   7.5707   3.5034   H         1 RES1   0.0000
    17 C5       2.9284   9.0501   3.6042   C.3       1 RES1   0.0000
    18 H4       2.5545   9.8865   3.8899   H         1 RES1   0.0000
    19 H5       3.8779   9.1437   3.4978   H         1 RES1   0.0000
    20 H6       2.7459   8.3764   4.2634   H         1 RES1   0.0000
    21 C6       2.8659   7.5154   1.6788   C.3       1 RES1   0.0000
    22 H7       2.2826   7.2975   0.9487   H         1 RES1   0.0000
    23 H8       2.9140   6.7726   2.2839   H         1 RES1   0.0000
    24 H9       3.7436   7.7103   1.3408   H         1 RES1   0.0000
    25 C7       0.1392  12.4080  -1.4174   C.3       1 RES1   0.0000
    26 C8      -0.1853  13.7417  -0.7489   C.3       1 RES1   0.0000
    27 H10     -0.8622  14.1960  -1.2549   H         1 RES1   0.0000
    28 H11      0.6063  14.2819  -0.7134   H         1 RES1   0.0000
    29 H12     -0.5046  13.5821   0.1419   H         1 RES1   0.0000
    30 C9       0.7300  12.6475  -2.8012   C.3       1 RES1   0.0000
    31 H13      0.9223  11.8049  -3.2176   H         1 RES1   0.0000
    32 H14      1.5403  13.1570  -2.7190   H         1 RES1   0.0000
    33 H15      0.1006  13.1340  -3.3390   H         1 RES1   0.0000
    34 C10     -1.1419  11.5762  -1.5444   C.3       1 RES1   0.0000
    35 H16     -0.9431  10.7460  -1.9832   H         1 RES1   0.0000
    36 H17     -1.7910  12.0627  -2.0579   H         1 RES1   0.0000
    37 H18     -1.4945  11.3982  -0.6686   H         1 RES1   0.0000
    38 C11      6.1932  12.2362   2.6705   C.3       1 RES1   0.0000
    39 C12      3.5719  13.4210   3.3278   C.3       1 RES1   0.0000
    40 C13      7.6225  11.7052   2.9151   C.3       1 RES1   0.0000
    41 C14      7.7232  10.2917   2.3437   C.3       1 RES1   0.0000
    42 H19      7.1107   9.7147   2.8068   H         1 RES1   0.0000
    43 H20      8.6187   9.9648   2.4576   H         1 RES1   0.0000
    44 H21      7.5035  10.3086   1.4099   H         1 RES1   0.0000
    45 C15      8.5862  12.6244   2.1831   C.3       1 RES1   0.0000
    46 H22      8.3154  12.7058   1.2661   H         1 RES1   0.0000
    47 H23      9.4719  12.2561   2.2241   H         1 RES1   0.0000
    48 H24      8.5794  13.4900   2.5976   H         1 RES1   0.0000
    49 C16      8.0152  11.6791   4.3848   C.3       1 RES1   0.0000
    50 H25      7.4273  11.0913   4.8629   H         1 RES1   0.0000
    51 H26      7.9481  12.5646   4.7490   H         1 RES1   0.0000
    52 H27      8.9188  11.3660   4.4670   H         1 RES1   0.0000
    53 C17      2.5034  14.0625   4.1924   C.3       1 RES1   0.0000
    54 C18      2.6932  13.8000   5.6846   C.3       1 RES1   0.0000
    55 H28      1.9785  14.2113   6.1757   H         1 RES1   0.0000
    56 H29      3.5326  14.1699   5.9703   H         1 RES1   0.0000
    57 H30      2.6891  12.8531   5.8452   H         1 RES1   0.0000
    58 C19      1.1368  13.5330   3.7499   C.3       1 RES1   0.0000
    59 H31      0.4462  13.9535   4.2671   H         1 RES1   0.0000
    60 H32      1.1033  12.5830   3.8843   H         1 RES1   0.0000
    61 H33      1.0037  13.7294   2.8199   H         1 RES1   0.0000
    62 C20      2.5788  15.5680   3.9329   C.3       1 RES1   0.0000
    63 H34      1.8550  16.0085   4.3848   H         1 RES1   0.0000
    64 H35      2.5143  15.7337   2.9898   H         1 RES1   0.0000
    65 H36      3.4153  15.9087   4.2597   H         1 RES1   0.0000
    66 C21      5.7419  10.2856  -1.1485   C.3       1 RES1   0.0000
    67 H37      5.9744  10.0062  -2.0374   H         1 RES1   0.0000
    68 H38      5.1878   9.6195  -0.7376   H         1 RES1   0.0000
    69 H39      6.5422  10.4007  -0.6293   H         1 RES1   0.0000
    70 C22      5.7916  12.5615  -1.8544   C.3       1 RES1   0.0000
    71 H40      6.0443  12.2914  -2.7526   H         1 RES1   0.0000
    72 H41      6.6004  12.7518  -1.3539   H         1 RES1   0.0000
    73 C23      3.7309  15.2319  -0.5696   C.3       1 RES1   0.0000
    74 H42      3.4255  15.3731   0.3287   H         1 RES1   0.0000
    75 H43      2.9761  15.1030  -1.1485   H         1 RES1   0.0000
    76 H44      4.2291  15.9992  -0.8609   H         1 RES1   0.0000
    77 C24      4.9484  13.7586  -1.9123   C.3       1 RES1   0.0000
    78 H45      5.4413  14.4968  -2.3044   H         1 RES1   0.0000
    79 H46      4.1636  13.5898  -2.4576   H         1 RES1   0.0000
@<TRIPOS>BOND
     1     1     4    1
     2     2    10   un
     3     3    38   un
     4     4    10   un
     5     5     1    1
     6     6     1    1
     7     7     1    1
     8     8     1    1
     9     9     1    1
    10    10    12    1
    11    11     2   un
    12    12    13    1
    13    13    14    1
    14    15    13    1
    15    16    13    1
    16    17    12    1
    17    18    17    1
    18    19    17    1
    19    20    17    1
    20    21    12    1
    21    22    21    1
    22    23    21    1
    23    24    21    1
    24    25    11    1
    25    26    25    1
    26    27    26    1
    27    28    26    1
    28    29    26    1
    29    30    25    1
    30    31    30    1
    31    32    30    1
    32    33    30    1
    33    34    25    1
    34    35    34    1
    35    36    34    1
    36    37    34    1
    37    38     6   un
    38    39     3   un
    39    40    38    1
    40    41    40    1
    41    42    41    1
    42    43    41    1
    43    44    41    1
    44    45    40    1
    45    46    45    1
    46    47    45    1
    47    48    45    1
    48    49    40    1
    49    50    49    1
    50    51    49    1
    51    52    49    1
    52    53    39    1
    53    54    53    1
    54    55    54    1
    55    56    54    1
    56    57    54    1
    57    58    53    1
    58    59    58    1
    59    60    58    1
    60    61    58    1
    61    62    53    1
    62    63    62    1
    63    64    62    1
    64    65    62    1
    65    66     8    1
    66    67    66    1
    67    68    66    1
    68    69    66    1
    69    70     8    1
    70    71    70    1
    71    72    70    1
    72    73     9    1
    73    74    73    1
    74    75    73    1
    75    76    73    1
    76    77     9    1
    77    78    77    1
    78    79    77    1
    79     5    11   un
    80     7    39   un
    81    70    77    1
@<TRIPOS>SUBSTRUCTURE
     1 RES1        1 GROUP             0 ****  ****    0  
@<TRIPOS>CRYSIN
   10.9710   15.3470   18.6940   90.0000   92.6100   90.0000    14     1
