@<TRIPOS>MOLECULE
EDEZEU
    75    79     1     0     0
SMALL
NO_CHARGES
****
Generated from the CSD

@<TRIPOS>ATOM
     1 Fe1      6.1142   0.0469   5.1720   Fe        1 RES1   0.0000
     2 Si1      7.3234   1.4722   2.5391   Si        1 RES1   0.0000
     3 Si2      7.7856  -1.6684   3.0510   Si        1 RES1   0.0000
     4 C1       5.7154   0.8926   7.2634   C.ar      1 RES1   0.0000
     5 C2       5.5919  -0.5630   7.3020   C.ar      1 RES1   0.0000
     6 C3       4.5113  -0.9026   6.4147   C.ar      1 RES1   0.0000
     7 H1       4.2102  -1.7866   6.2432   H         1 RES1   0.0000
     8 C4       3.9537   0.2742   5.8259   C.ar      1 RES1   0.0000
     9 C5       4.7104   1.3636   6.3569   C.ar      1 RES1   0.0000
    10 H2       4.5668   2.2776   6.1378   H         1 RES1   0.0000
    11 C6       6.6924   1.8845   7.9445   C.3       1 RES1   0.0000
    12 C7       6.7566   1.6779   9.4821   C.3       1 RES1   0.0000
    13 H3       5.8520   1.7230   9.8552   H         1 RES1   0.0000
    14 H4       7.3108   2.3797   9.8834   H         1 RES1   0.0000
    15 H5       7.1483   0.8016   9.6782   H         1 RES1   0.0000
    16 C8       6.2050   3.3394   7.7272   C.3       1 RES1   0.0000
    17 H6       6.2100   3.5466   6.7684   H         1 RES1   0.0000
    18 H7       6.8014   3.9577   8.1988   H         1 RES1   0.0000
    19 H8       5.2936   3.4342   8.0765   H         1 RES1   0.0000
    20 C9       8.1012   1.8032   7.3306   C.3       1 RES1   0.0000
    21 H9       8.4525   0.8948   7.4365   H         1 RES1   0.0000
    22 H10      8.6940   2.4373   7.7866   H         1 RES1   0.0000
    23 H11      8.0555   2.0262   6.3769   H         1 RES1   0.0000
    24 C10      6.2618  -1.6655   8.1531   C.3       1 RES1   0.0000
    25 C11      5.6419  -1.6581   9.5741   C.3       1 RES1   0.0000
    26 H12      6.0892  -2.3309  10.1300   H         1 RES1   0.0000
    27 H13      4.6860  -1.8665   9.5145   H         1 RES1   0.0000
    28 H14      5.7579  -0.7720   9.9756   H         1 RES1   0.0000
    29 C12      7.7922  -1.5443   8.2417   C.3       1 RES1   0.0000
    30 H15      8.0274  -0.7365   8.7447   H         1 RES1   0.0000
    31 H16      8.1685  -1.4878   7.3387   H         1 RES1   0.0000
    32 H17      8.1565  -2.3309   8.6976   H         1 RES1   0.0000
    33 C13      5.9731  -3.0621   7.5500   C.3       1 RES1   0.0000
    34 H18      6.4717  -3.7433   8.0483   H         1 RES1   0.0000
    35 H19      6.2512  -3.0763   6.6103   H         1 RES1   0.0000
    36 H20      5.0129  -3.2508   7.6097   H         1 RES1   0.0000
    37 C14      2.7407   0.3445   4.9240   C.3       1 RES1   0.0000
    38 C15      1.4696   0.2983   5.8007   C.3       1 RES1   0.0000
    39 H21      1.4446  -0.5472   6.2959   H         1 RES1   0.0000
    40 H22      0.6761   0.3653   5.2287   H         1 RES1   0.0000
    41 H23      1.4810   1.0471   6.4333   H         1 RES1   0.0000
    42 C16      2.7388   1.6437   4.1019   C.3       1 RES1   0.0000
    43 H24      2.7200   2.4137   4.7074   H         1 RES1   0.0000
    44 H25      1.9468   1.6638   3.5235   H         1 RES1   0.0000
    45 H26      3.5466   1.6816   3.5498   H         1 RES1   0.0000
    46 C17      2.7140  -0.8435   3.9330   C.3       1 RES1   0.0000
    47 H27      3.4990  -0.7986   3.3484   H         1 RES1   0.0000
    48 H28      1.8993  -0.7986   3.3898   H         1 RES1   0.0000
    49 H29      2.7280  -1.6860   4.4326   H         1 RES1   0.0000
    50 C18      7.5513   0.0522   3.7313   C.3       1 RES1   0.0000
    51 C19      6.7387   3.0449   3.4149   C.3       1 RES1   0.0000
    52 H30      5.8626   2.8855   3.8227   H         1 RES1   0.0000
    53 H31      6.6679   3.7743   2.7631   H         1 RES1   0.0000
    54 H32      7.3836   3.2907   4.1107   H         1 RES1   0.0000
    55 C20      6.0567   1.0789   1.2089   C.3       1 RES1   0.0000
    56 H33      6.3853   0.3416   0.6531   H         1 RES1   0.0000
    57 H34      5.9130   1.8709   0.6494   H         1 RES1   0.0000
    58 H35      5.2109   0.8193   1.6300   H         1 RES1   0.0000
    59 C21      8.9601   1.9414   1.7258   C.3       1 RES1   0.0000
    60 H36      9.5855   2.2599   2.4092   H         1 RES1   0.0000
    61 H37      8.8063   2.6518   1.0672   H         1 RES1   0.0000
    62 H38      9.3387   1.1566   1.2761   H         1 RES1   0.0000
    63 C22      8.7239  -2.7290   4.2912   C.3       1 RES1   0.0000
    64 H39      9.6034  -2.3323   4.4608   H         1 RES1   0.0000
    65 H40      8.8380  -3.6324   3.9281   H         1 RES1   0.0000
    66 H41      8.2194  -2.7745   5.1290   H         1 RES1   0.0000
    67 C23      6.1197  -2.4832   2.7147   C.3       1 RES1   0.0000
    68 H42      5.5953  -2.5069   3.5423   H         1 RES1   0.0000
    69 H43      6.2627  -3.3972   2.3923   H         1 RES1   0.0000
    70 H44      5.6357  -1.9685   2.0365   H         1 RES1   0.0000
    71 C24      8.7750  -1.7604   1.4414   C.3       1 RES1   0.0000
    72 H45      8.3302  -1.2231   0.7529   H         1 RES1   0.0000
    73 H46      8.8282  -2.6932   1.1444   H         1 RES1   0.0000
    74 H47      9.6786  -1.4139   1.5923   H         1 RES1   0.0000
    75 H48      8.2888   0.3047   4.2443   H         1 RES1   0.0000
@<TRIPOS>BOND
     1     1     4   un
     2     2    50    1
     3     3    50    1
     4     4     5   ar
     5     5     1   un
     6     6     1   un
     7     7     6    1
     8     8     1   un
     9     9     1   un
    10    10     9    1
    11    11     4    1
    12    12    11    1
    13    13    12    1
    14    14    12    1
    15    15    12    1
    16    16    11    1
    17    17    16    1
    18    18    16    1
    19    19    16    1
    20    20    11    1
    21    21    20    1
    22    22    20    1
    23    23    20    1
    24    24     5    1
    25    25    24    1
    26    26    25    1
    27    27    25    1
    28    28    25    1
    29    29    24    1
    30    30    29    1
    31    31    29    1
    32    32    29    1
    33    33    24    1
    34    34    33    1
    35    35    33    1
    36    36    33    1
    37    37     8    1
    38    38    37    1
    39    39    38    1
    40    40    38    1
    41    41    38    1
    42    42    37    1
    43    43    42    1
    44    44    42    1
    45    45    42    1
    46    46    37    1
    47    47    46    1
    48    48    46    1
    49    49    46    1
    50    50     1    1
    51    51     2    1
    52    52    51    1
    53    53    51    1
    54    54    51    1
    55    55     2    1
    56    56    55    1
    57    57    55    1
    58    58    55    1
    59    59     2    1
    60    60    59    1
    61    61    59    1
    62    62    59    1
    63    63     3    1
    64    64    63    1
    65    65    63    1
    66    66    63    1
    67    67     3    1
    68    68    67    1
    69    69    67    1
    70    70    67    1
    71    71     3    1
    72    72    71    1
    73    73    71    1
    74    74    71    1
    75    75    50    1
    76     4     9   ar
    77     5     6   ar
    78     6     8   ar
    79     8     9   ar
@<TRIPOS>SUBSTRUCTURE
     1 RES1        1 GROUP             0 ****  ****    0  
@<TRIPOS>CRYSIN
    9.8466   14.7897   18.8919   90.0000   94.9330   90.0000    14     1
