@<TRIPOS>MOLECULE
EDIFAB
   112   118     1     0     0
SMALL
NO_CHARGES
****
Generated from the CSD

@<TRIPOS>ATOM
     1 Fe1     10.0939   7.4036   9.3007   Fe        1 RES1   0.0000
     2 Si1     11.1449   6.1421  10.7989   Si        1 RES1   0.0000
     3 N1      10.2076   5.3444   7.0625   N.pl3     1 RES1   0.0000
     4 C1      10.2001   6.6461   7.4940   C.3       1 RES1   0.0000
     5 Si2      8.0994   7.9554  10.0491   Si        1 RES1   0.0000
     6 N2      10.2410   7.3375   6.3067   N.pl3     1 RES1   0.0000
     7 C2      10.2358   5.2534   5.6892   C.2       1 RES1   0.0000
     8 H1      10.2398   4.4538   5.1752   H         1 RES1   0.0000
     9 N3      12.9516   8.0350   8.5526   N.pl3     1 RES1   0.0000
    10 C3      10.2535   6.4887   5.2201   C.2       1 RES1   0.0000
    11 H2      10.2714   6.7443   4.3045   H         1 RES1   0.0000
    12 C4      10.1397   4.1768   7.9304   C.3       1 RES1   0.0000
    13 H3      10.2023   4.4991   8.8740   H         1 RES1   0.0000
    14 N4      11.9751   9.7453   9.3910   N.pl3     1 RES1   0.0000
    15 C5      10.1215   8.7905   6.1518   C.3       1 RES1   0.0000
    16 H4      10.0891   9.1959   7.0652   H         1 RES1   0.0000
    17 N5      10.0361   6.4976  13.5330   N.pl3     1 RES1   0.0000
    18 C6      11.3189   3.2462   7.6849   C.3       1 RES1   0.0000
    19 H5      11.2553   2.8710   6.7813   H         1 RES1   0.0000
    20 H6      11.3036   2.5197   8.3414   H         1 RES1   0.0000
    21 H7      12.1549   3.7499   7.7709   H         1 RES1   0.0000
    22 N6       9.0553   4.9252  12.4783   N.pl3     1 RES1   0.0000
    23 C7       8.8032   3.4729   7.7765   C.3       1 RES1   0.0000
    24 H8       8.6948   3.1770   6.8489   H         1 RES1   0.0000
    25 H9       8.0792   4.0911   8.0088   H         1 RES1   0.0000
    26 H10      8.7730   2.6947   8.3711   H         1 RES1   0.0000
    27 C8       8.8219   9.1128   5.4534   C.3       1 RES1   0.0000
    28 H11      8.7128  10.0849   5.3996   H         1 RES1   0.0000
    29 H12      8.0754   8.7263   5.9566   H         1 RES1   0.0000
    30 H13      8.8357   8.7363   4.5479   H         1 RES1   0.0000
    31 C9      11.3173   9.3735   5.4264   C.3       1 RES1   0.0000
    32 H14     11.4053   8.9479   4.5479   H         1 RES1   0.0000
    33 H15     12.1276   9.2098   5.9512   H         1 RES1   0.0000
    34 H16     11.1906  10.3380   5.3104   H         1 RES1   0.0000
    35 C10     11.7260   8.4404   9.0487   C.3       1 RES1   0.0000
    36 C11     13.8847   9.0499   8.6180   C.2       1 RES1   0.0000
    37 H17     14.7931   8.9995   8.3441   H         1 RES1   0.0000
    38 C12     13.2782  10.1089   9.1325   C.2       1 RES1   0.0000
    39 H18     13.6692  10.9588   9.2931   H         1 RES1   0.0000
    40 C13     10.9938  10.6491   9.9869   C.3       1 RES1   0.0000
    41 H19     10.1078  10.1857   9.9745   H         1 RES1   0.0000
    42 C14     13.3040   6.6775   8.1432   C.3       1 RES1   0.0000
    43 H20     12.4862   6.1096   8.2359   H         1 RES1   0.0000
    44 C15     10.8646  11.9070   9.1582   C.3       1 RES1   0.0000
    45 H21     10.6986  11.6665   8.2224   H         1 RES1   0.0000
    46 H22     11.6952  12.4258   9.2201   H         1 RES1   0.0000
    47 H23     10.1184  12.4459   9.4959   H         1 RES1   0.0000
    48 H24      8.9572   6.4219   9.5770   H         1 RES1   0.0000
    49 H25      9.9591   8.0085  10.6072   H         1 RES1   0.0000
    50 H26      9.2326   8.3989   8.7983   H         1 RES1   0.0000
    51 H27      7.7110   7.3839  11.3210   H         1 RES1   0.0000
    52 H28     11.5902   4.7472  10.6505   H         1 RES1   0.0000
    53 H29     12.2791   6.7355  11.6157   H         1 RES1   0.0000
    54 C16     11.3345  10.9412  11.4216   C.3       1 RES1   0.0000
    55 H30     12.1878  11.4222  11.4643   H         1 RES1   0.0000
    56 H31     11.4095  10.0988  11.9186   H         1 RES1   0.0000
    57 H32     10.6285  11.4927  11.8185   H         1 RES1   0.0000
    58 C17     14.3694   6.0996   9.0482   C.3       1 RES1   0.0000
    59 H33     14.5223   5.1602   8.8146   H         1 RES1   0.0000
    60 H34     14.0755   6.1613   9.9799   H         1 RES1   0.0000
    61 H35     15.2032   6.6032   8.9335   H         1 RES1   0.0000
    62 C18     13.7331   6.6335   6.6885   C.3       1 RES1   0.0000
    63 H36     12.9993   6.9508   6.1215   H         1 RES1   0.0000
    64 H37     13.9607   5.7130   6.4433   H         1 RES1   0.0000
    65 H38     14.5165   7.2089   6.5622   H         1 RES1   0.0000
    66 C19     10.0503   5.8188  12.3709   C.3       1 RES1   0.0000
    67 C20      8.4399   5.0267  13.7058   C.2       1 RES1   0.0000
    68 H39      7.7150   4.4991  14.0222   H         1 RES1   0.0000
    69 C21      9.0504   5.9976  14.3602   C.2       1 RES1   0.0000
    70 H40      8.8485   6.2973  15.2389   H         1 RES1   0.0000
    71 C22      8.6972   3.9526  11.4381   C.3       1 RES1   0.0000
    72 H41      9.1435   4.2372  10.5883   H         1 RES1   0.0000
    73 C23     11.0101   7.5275  13.9175   C.3       1 RES1   0.0000
    74 H42     11.3804   7.9279  13.0785   H         1 RES1   0.0000
    75 C24      7.2102   3.9602  11.1993   C.3       1 RES1   0.0000
    76 H43      6.9170   4.8731  10.9966   H         1 RES1   0.0000
    77 H44      6.7489   3.6391  12.0024   H         1 RES1   0.0000
    78 H45      6.9973   3.3734  10.4450   H         1 RES1   0.0000
    79 C25      9.2320   2.5914  11.8007   C.3       1 RES1   0.0000
    80 H46      9.0597   1.9669  11.0669   H         1 RES1   0.0000
    81 H47      8.7861   2.2716  12.6135   H         1 RES1   0.0000
    82 H48     10.1966   2.6506  11.9591   H         1 RES1   0.0000
    83 C26     12.1640   6.8526  14.6643   C.3       1 RES1   0.0000
    84 H49     12.5723   6.1726  14.0898   H         1 RES1   0.0000
    85 H50     11.8221   6.4282  15.4795   H         1 RES1   0.0000
    86 H51     12.8367   7.5237  14.9036   H         1 RES1   0.0000
    87 C27     10.3452   8.6142  14.6884   C.3       1 RES1   0.0000
    88 H52     10.9821   9.3420  14.8441   H         1 RES1   0.0000
    89 H53     10.0351   8.2616  15.5498   H         1 RES1   0.0000
    90 H54      9.5798   8.9529  14.1790   H         1 RES1   0.0000
    91 C28      6.5345   7.5144   9.0487   C.ar      1 RES1   0.0000
    92 C29      6.5573   6.7758   7.8774   C.ar      1 RES1   0.0000
    93 H55      7.3938   6.5138   7.5113   H         1 RES1   0.0000
    94 C30      5.3953   6.4131   7.2277   C.ar      1 RES1   0.0000
    95 H56      5.4404   5.9132   6.4216   H         1 RES1   0.0000
    96 C31      4.1719   6.7707   7.7452   C.ar      1 RES1   0.0000
    97 H57      3.3720   6.5063   7.3058   H         1 RES1   0.0000
    98 C32      4.1108   7.5124   8.9016   C.ar      1 RES1   0.0000
    99 H58      3.2698   7.7667   9.2634   H         1 RES1   0.0000
   100 C33      5.2749   7.8839   9.5316   C.ar      1 RES1   0.0000
   101 H59      5.2222   8.4102  10.3206   H         1 RES1   0.0000
   102 C34      7.6703   9.7664  10.4845   C.ar      1 RES1   0.0000
   103 C35      7.2516  10.6717   9.5340   C.ar      1 RES1   0.0000
   104 H60      7.1922  10.3934   8.6280   H         1 RES1   0.0000
   105 C36      6.9121  11.9775   9.8563   C.ar      1 RES1   0.0000
   106 H61      6.6167  12.5794   9.1823   H         1 RES1   0.0000
   107 C37      7.0108  12.3868  11.1674   C.ar      1 RES1   0.0000
   108 H62      6.7650  13.2732  11.4075   H         1 RES1   0.0000
   109 C38      7.4634  11.5103  12.1295   C.ar      1 RES1   0.0000
   110 H63      7.5623  11.7974  13.0299   H         1 RES1   0.0000
   111 C39      7.7737  10.2197  11.7804   C.ar      1 RES1   0.0000
   112 H64      8.0690   9.6190  12.4539   H         1 RES1   0.0000
@<TRIPOS>BOND
     1     1     2    2
     2     2    52    1
     3     3     4    1
     4     4     1    1
     5     5    48    1
     6     6     4    1
     7     7     3    1
     8     8     7    1
     9     9    35    1
    10    10     6    1
    11    11    10    1
    12    12     3    1
    13    13    12    1
    14    14    35    1
    15    15     6    1
    16    16    15    1
    17    17    66    1
    18    18    12    1
    19    19    18    1
    20    20    18    1
    21    21    18    1
    22    22    66    1
    23    23    12    1
    24    24    23    1
    25    25    23    1
    26    26    23    1
    27    27    15    1
    28    28    27    1
    29    29    27    1
    30    30    27    1
    31    31    15    1
    32    32    31    1
    33    33    31    1
    34    34    31    1
    35    35     1    1
    36    36     9    1
    37    37    36    1
    38    38    14    1
    39    39    38    1
    40    40    14    1
    41    41    40    1
    42    42     9    1
    43    43    42    1
    44    44    40    1
    45    45    44    1
    46    46    44    1
    47    47    44    1
    48    48     1    1
    49    49     1    1
    50    50     1    1
    51    51     5    1
    52    53     2    1
    53    54    40    1
    54    55    54    1
    55    56    54    1
    56    57    54    1
    57    58    42    1
    58    59    58    1
    59    60    58    1
    60    61    58    1
    61    62    42    1
    62    63    62    1
    63    64    62    1
    64    65    62    1
    65    66     2    1
    66    67    22    1
    67    68    67    1
    68    69    17    1
    69    70    69    1
    70    71    22    1
    71    72    71    1
    72    73    17    1
    73    74    73    1
    74    75    71    1
    75    76    75    1
    76    77    75    1
    77    78    75    1
    78    79    71    1
    79    80    79    1
    80    81    79    1
    81    82    79    1
    82    83    73    1
    83    84    83    1
    84    85    83    1
    85    86    83    1
    86    87    73    1
    87    88    87    1
    88    89    87    1
    89    90    87    1
    90    91     5    1
    91    92    91   ar
    92    93    92    1
    93    94    92   ar
    94    95    94    1
    95    96    94   ar
    96    97    96    1
    97    98    96   ar
    98    99    98    1
    99   100    91   ar
   100   101   100    1
   101   102     5    1
   102   103   102   ar
   103   104   103    1
   104   105   103   ar
   105   106   105    1
   106   107   105   ar
   107   108   107    1
   108   109   107   ar
   109   110   109    1
   110   111   102   ar
   111   112   111    1
   112     5    49    1
   113     5    50    1
   114     7    10    2
   115    36    38    2
   116    67    69    2
   117    98   100   ar
   118   109   111   ar
@<TRIPOS>SUBSTRUCTURE
     1 RES1        1 GROUP             0 ****  ****    0  
@<TRIPOS>CRYSIN
   14.0650   12.5920   27.0400   90.0000   90.6020   90.0000    14     1
