@<TRIPOS>MOLECULE
EDUKUL
    99   108     3     0     0
SMALL
USER_CHARGES
****
Generated from the CSD

@<TRIPOS>ATOM
     1 Fe1      5.6322   6.1296   4.8010   Fe        1 RES1   2.0000
     2 N1       6.8162   7.5109   4.0751   N.ar      1 RES1   0.0000
     3 N2       4.3208   7.5824   4.7733   N.ar      1 RES1   0.0000
     4 N3       6.0211   6.5197   6.6873   N.ar      1 RES1   0.0000
     5 N4       4.3914   4.8255   5.5959   N.ar      1 RES1   0.0000
     6 N5       6.9739   4.6943   4.7131   N.ar      1 RES1   0.0000
     7 N6       5.2459   5.5386   2.9697   N.ar      1 RES1   0.0000
     8 C1       6.1858   8.7144   3.8830   C.ar      1 RES1   0.0000
     9 C2       8.0880   7.4191   3.6827   C.ar      1 RES1   0.0000
    10 H1       8.5520   6.6018   3.8178   H         1 RES1   0.0000
    11 C3       8.7580   8.4827   3.0819   C.ar      1 RES1   0.0000
    12 H2       9.6545   8.3719   2.7876   H         1 RES1   0.0000
    13 C4       8.1284   9.6833   2.9142   C.ar      1 RES1   0.0000
    14 H3       8.5920  10.4124   2.5182   H         1 RES1   0.0000
    15 C5       6.7943   9.8393   3.3288   C.ar      1 RES1   0.0000
    16 C6       6.0255  11.0658   3.2029   C.ar      1 RES1   0.0000
    17 C7       6.7289  12.2727   2.6346   C.3       1 RES1   0.0000
    18 H4       6.0696  12.9656   2.4231   H         1 RES1   0.0000
    19 H5       7.2075  12.0171   1.8191   H         1 RES1   0.0000
    20 H6       7.3667  12.6183   3.2930   H         1 RES1   0.0000
    21 C8       4.8219   8.7585   4.2883   C.ar      1 RES1   0.0000
    22 C9       3.0454   7.5744   5.1801   C.ar      1 RES1   0.0000
    23 H7       2.6722   6.7664   5.5154   H         1 RES1   0.0000
    24 C10      2.2509   8.7150   5.1255   C.ar      1 RES1   0.0000
    25 H8       1.3551   8.6823   5.4397   H         1 RES1   0.0000
    26 C11      2.7478   9.8777   4.6249   C.ar      1 RES1   0.0000
    27 H9       2.1975  10.6516   4.5838   H         1 RES1   0.0000
    28 C12      4.0888   9.9378   4.1647   C.ar      1 RES1   0.0000
    29 C13      4.7143  11.1089   3.5996   C.ar      1 RES1   0.0000
    30 C14      3.8586  12.3410   3.4564   C.3       1 RES1   0.0000
    31 H10      4.4073  13.0822   3.1257   H         1 RES1   0.0000
    32 H11      3.4789  12.5774   4.3285   H         1 RES1   0.0000
    33 H12      3.1332  12.1626   2.8211   H         1 RES1   0.0000
    34 C15      5.3572   5.7032   7.5558   C.ar      1 RES1   0.0000
    35 C16      6.8581   7.4252   7.2102   C.ar      1 RES1   0.0000
    36 H13      7.3264   8.0110   6.6266   H         1 RES1   0.0000
    37 C17      7.0639   7.5320   8.5844   C.ar      1 RES1   0.0000
    38 H14      7.6625   8.1870   8.9229   H         1 RES1   0.0000
    39 C18      6.4097   6.7028   9.4466   C.ar      1 RES1   0.0000
    40 H15      6.5595   6.7745  10.3827   H         1 RES1   0.0000
    41 C19      5.5106   5.7370   8.9452   C.ar      1 RES1   0.0000
    42 C20      4.7632   4.7981   9.7632   C.ar      1 RES1   0.0000
    43 C21      5.0065   4.8662  11.2500   C.3       1 RES1   0.0000
    44 H16      4.5084   4.1485  11.6947   H         1 RES1   0.0000
    45 H17      4.7044   5.7334  11.5908   H         1 RES1   0.0000
    46 H18      5.9631   4.7596  11.4305   H         1 RES1   0.0000
    47 C22      4.4639   4.7800   6.9525   C.ar      1 RES1   0.0000
    48 C23      3.5630   3.9792   4.9887   C.ar      1 RES1   0.0000
    49 H19      3.4832   4.0083   4.0432   H         1 RES1   0.0000
    50 C24      2.8071   3.0472   5.7077   C.ar      1 RES1   0.0000
    51 H20      2.2370   2.4452   5.2442   H         1 RES1   0.0000
    52 C25      2.8814   2.9946   7.0652   C.ar      1 RES1   0.0000
    53 H21      2.3634   2.3594   7.5458   H         1 RES1   0.0000
    54 C26      3.7264   3.8833   7.7538   C.ar      1 RES1   0.0000
    55 C27      3.8908   3.9174   9.1874   C.ar      1 RES1   0.0000
    56 C28      3.0572   2.9580  10.0039   C.3       1 RES1   0.0000
    57 H22      3.3641   2.9706  10.9357   H         1 RES1   0.0000
    58 H23      3.1515   2.0523   9.6414   H         1 RES1   0.0000
    59 H24      2.1169   3.2287   9.9654   H         1 RES1   0.0000
    60 C29      6.8877   3.9527   3.5697   C.ar      1 RES1   0.0000
    61 C30      7.8641   4.3048   5.6284   C.ar      1 RES1   0.0000
    62 H25      7.9555   4.8172   6.4241   H         1 RES1   0.0000
    63 C31      8.6583   3.1851   5.4638   C.ar      1 RES1   0.0000
    64 H26      9.2821   2.9443   6.1388   H         1 RES1   0.0000
    65 C32      8.5500   2.4214   4.3325   C.ar      1 RES1   0.0000
    66 H27      9.0809   1.6407   4.2316   H         1 RES1   0.0000
    67 C33      7.6491   2.8006   3.3196   C.ar      1 RES1   0.0000
    68 C34      7.4678   2.0955   2.0651   C.ar      1 RES1   0.0000
    69 C35      8.3211   0.8675   1.8478   C.3       1 RES1   0.0000
    70 H28      8.0292   0.4070   1.0337   H         1 RES1   0.0000
    71 H29      8.2274   0.2642   2.6151   H         1 RES1   0.0000
    72 H30      9.2590   1.1340   1.7539   H         1 RES1   0.0000
    73 C36      5.9547   4.4248   2.6084   C.ar      1 RES1   0.0000
    74 C37      4.3846   6.0353   2.0764   C.ar      1 RES1   0.0000
    75 H31      3.8821   6.8094   2.3016   H         1 RES1   0.0000
    76 C38      4.2000   5.4514   0.8234   C.ar      1 RES1   0.0000
    77 H32      3.5930   5.8432   0.2060   H         1 RES1   0.0000
    78 C39      4.8864   4.3211   0.4783   C.ar      1 RES1   0.0000
    79 H33      4.7457   3.9185  -0.3698   H         1 RES1   0.0000
    80 C40      5.8065   3.7564   1.3885   C.ar      1 RES1   0.0000
    81 C41      6.5699   2.5499   1.1378   C.ar      1 RES1   0.0000
    82 C42      6.3189   1.8639  -0.1736   C.3       1 RES1   0.0000
    83 H34      6.7633   0.9905  -0.1761   H         1 RES1   0.0000
    84 H35      6.6749   2.4128  -0.9034   H         1 RES1   0.0000
    85 H36      5.3550   1.7409  -0.2976   H         1 RES1   0.0000
    86 C43      1.0209   3.7424   0.7507   C.2       2 RES2  -1.0000
    87 C44      1.0502   4.5384   1.9142   C.1       2 RES2   0.0000
    88 C45      0.0768   3.9907  -0.2571   C.1       2 RES2   0.0000
    89 C46      1.8981   2.6623   0.6225   C.1       2 RES2   0.0000
    90 N7       1.0783   5.1784   2.8757   N.1       2 RES2   0.0000
    91 N8      -0.6856   4.1667  -1.1077   N.1       2 RES2   0.0000
    92 N9       2.6161   1.7651   0.5045   N.1       2 RES2   0.0000
    93 C47     10.3247  11.3147   7.9068   C.2       3 RES3  -1.0000
    94 C48     10.3403  11.1208   9.3068   C.1       3 RES3   0.0000
    95 C49     11.2005  12.2337   7.3214   C.1       3 RES3   0.0000
    96 C50      9.4079  10.6141   7.1091   C.1       3 RES3   0.0000
    97 N10     10.3609  10.9715  10.4479   N.1       3 RES3   0.0000
    98 N11     11.9083  12.9911   6.8069   N.1       3 RES3   0.0000
    99 N12      8.6597  10.0379   6.4406   N.1       3 RES3   0.0000
@<TRIPOS>BOND
     1     1     2    1
     2     2     8   ar
     3     3     1    1
     4     4     1    1
     5     5     1    1
     6     6     1    1
     7     7     1    1
     8     8    15   ar
     9     9     2   ar
    10    10     9    1
    11    11     9   ar
    12    12    11    1
    13    13    11   ar
    14    14    13    1
    15    15    13   ar
    16    16    15   ar
    17    17    16    1
    18    18    17    1
    19    19    17    1
    20    20    17    1
    21    21     3   ar
    22    22     3   ar
    23    23    22    1
    24    24    22   ar
    25    25    24    1
    26    26    24   ar
    27    27    26    1
    28    28    21   ar
    29    29    16   ar
    30    30    29    1
    31    31    30    1
    32    32    30    1
    33    33    30    1
    34    34     4   ar
    35    35     4   ar
    36    36    35    1
    37    37    35   ar
    38    38    37    1
    39    39    37   ar
    40    40    39    1
    41    41    34   ar
    42    42    41   ar
    43    43    42    1
    44    44    43    1
    45    45    43    1
    46    46    43    1
    47    47     5   ar
    48    48     5   ar
    49    49    48    1
    50    50    48   ar
    51    51    50    1
    52    52    50   ar
    53    53    52    1
    54    54    47   ar
    55    55    42   ar
    56    56    55    1
    57    57    56    1
    58    58    56    1
    59    59    56    1
    60    60     6   ar
    61    61     6   ar
    62    62    61    1
    63    63    61   ar
    64    64    63    1
    65    65    63   ar
    66    66    65    1
    67    67    60   ar
    68    68    67   ar
    69    69    68    1
    70    70    69    1
    71    71    69    1
    72    72    69    1
    73    73     7   ar
    74    74     7   ar
    75    75    74    1
    76    76    74   ar
    77    77    76    1
    78    78    76   ar
    79    79    78    1
    80    80    73   ar
    81    81    68   ar
    82    82    81    1
    83    83    82    1
    84    84    82    1
    85    85    82    1
    86     8    21   ar
    87    26    28   ar
    88    28    29   ar
    89    34    47   ar
    90    39    41   ar
    91    52    54   ar
    92    54    55   ar
    93    60    73   ar
    94    65    67   ar
    95    78    80   ar
    96    80    81   ar
    97    86    87    1
    98    87    90    3
    99    88    86    1
   100    89    86    1
   101    91    88    3
   102    92    89    3
   103    93    94    1
   104    94    97    3
   105    95    93    1
   106    96    93    1
   107    98    95    3
   108    99    96    3
@<TRIPOS>SUBSTRUCTURE
     1 RES1        1 GROUP             0 ****  ****    0  
     2 RES2       86 GROUP             0 ****  ****    0  
     3 RES3       93 GROUP             0 ****  ****    0  
@<TRIPOS>CRYSIN
    9.3676   12.7079   18.1998   75.4580   89.6230   82.3230     2     1
