@<TRIPOS>MOLECULE
EFAKAB
    75    82     1     0     0
SMALL
USER_CHARGES
****
Generated from the CSD

@<TRIPOS>ATOM
     1 Fe1      6.0005   2.2258   6.0520   Fe        1 RES1   0.0000
     2 N1       4.8946   4.1357   6.5686   N.ar      1 RES1   0.0000
     3 C1       5.4554   4.9230   7.5142   C.ar      1 RES1   0.0000
     4 S1       3.7454   1.2168   5.8154   S.3       1 RES1   0.0000
     5 B1       5.5468   3.8591   1.5239   B         1 RES1  -1.0000
     6 H1       5.0331   3.1573   0.9320   H         1 RES1   0.0000
     7 H2       4.8926   4.6725   1.6583   H         1 RES1   0.0000
     8 H3       6.4809   3.8541   1.0046   H         1 RES1   0.0000
     9 N2       3.1567   3.7863   5.0240   N.pl3     1 RES1   0.0000
    10 C2       4.8855   6.0813   7.9669   C.ar      1 RES1   0.0000
    11 N3       2.5538   4.5077   4.0653   N.2       1 RES1   0.0000
    12 C3       3.6671   6.4591   7.4682   C.ar      1 RES1   0.0000
    13 N4       6.0012   2.7982   3.9845   N.1       1 RES1   0.0000
    14 C4       3.7200   4.5423   6.1025   C.ar      1 RES1   0.0000
    15 C5       3.0597   5.6642   6.5229   C.ar      1 RES1   0.0000
    16 N5       2.1426   3.5964   3.2175   N.pl3     1 RES1   1.0000
    17 H4       3.2488   7.1792   7.7224   H         1 RES1   0.0000
    18 C6       2.1427   1.1670   2.7430   C.ar      1 RES1   0.0000
    19 H5       5.2904   6.5670   8.6544   H         1 RES1   0.0000
    20 C7       2.4440   2.3282   3.5817   C.2       1 RES1   0.0000
    21 H6       6.3094   4.6225   7.8313   H         1 RES1   0.0000
    22 C8       3.1133   2.4303   4.7910   C.2       1 RES1   0.0000
    23 C9       1.4874   4.0458   1.9814   C.3       1 RES1   0.0000
    24 H7       1.9360   3.6625   1.2237   H         1 RES1   0.0000
    25 H8       1.5301   5.0034   1.9270   H         1 RES1   0.0000
    26 H9       0.5694   3.7657   1.9851   H         1 RES1   0.0000
    27 H10      2.2628   5.8594   6.1610   H         1 RES1   0.0000
    28 C10      0.8231   0.8270   2.4535   C.ar      1 RES1   0.0000
    29 H11      0.1204   1.3140   2.8190   H         1 RES1   0.0000
    30 C11      3.1682   0.4280   2.2114   C.ar      1 RES1   0.0000
    31 C12      1.5945  -0.9591   1.0773   C.ar      1 RES1   0.0000
    32 H12      1.4120  -1.6746   0.5120   H         1 RES1   0.0000
    33 C13      0.5692  -0.2443   1.6135   C.ar      1 RES1   0.0000
    34 H13      4.0460   0.6207   2.3482   H         1 RES1   0.0000
    35 C14      2.8929  -0.6338   1.3605   C.ar      1 RES1   0.0000
    36 H14      3.6349  -1.1181   0.9683   H         1 RES1   0.0000
    37 H15     -0.2958  -0.4542   1.4525   H         1 RES1   0.0000
    38 C15      5.8250   3.2404   2.9540   C.1       1 RES1   0.0000
    39 N1A      7.1063   0.3159   5.5354   N.ar      1 RES1   0.0000
    40 C1A      6.5456  -0.4714   4.5899   C.ar      1 RES1   0.0000
    41 S1A      8.2556   3.2348   6.2887   S.3       1 RES1   0.0000
    42 B1A      6.4542   0.5925  10.5802   B         1 RES1  -1.0000
    43 H1A      6.9679   1.2943  11.1721   H         1 RES1   0.0000
    44 H2A      7.1084  -0.2209  10.4458   H         1 RES1   0.0000
    45 H3A      5.5201   0.5975  11.0994   H         1 RES1   0.0000
    46 N2A      8.8443   0.6653   7.0800   N.pl3     1 RES1   0.0000
    47 C2A      7.1155  -1.6297   4.1372   C.ar      1 RES1   0.0000
    48 N3A      9.4472  -0.0561   8.0388   N.2       1 RES1   0.0000
    49 C3A      8.3339  -2.0075   4.6359   C.ar      1 RES1   0.0000
    50 N4A      5.9998   1.6534   8.1195   N.1       1 RES1   0.0000
    51 C4A      8.2810  -0.0907   6.0016   C.ar      1 RES1   0.0000
    52 C5A      8.9413  -1.2126   5.5812   C.ar      1 RES1   0.0000
    53 N5A      9.8584   0.8552   8.8866   N.pl3     1 RES1   1.0000
    54 H4A      8.7522  -2.7276   4.3817   H         1 RES1   0.0000
    55 C6A      9.8583   3.2846   9.3611   C.ar      1 RES1   0.0000
    56 H5A      6.7106  -2.1154   3.4497   H         1 RES1   0.0000
    57 C7A      9.5570   2.1234   8.5224   C.2       1 RES1   0.0000
    58 H6A      5.6916  -0.1709   4.2727   H         1 RES1   0.0000
    59 C8A      8.8877   2.0213   7.3130   C.2       1 RES1   0.0000
    60 C9A     10.5136   0.4058  10.1226   C.3       1 RES1   0.0000
    61 H7A     10.0650   0.7891  10.8804   H         1 RES1   0.0000
    62 H8A     10.4709  -0.5518  10.1771   H         1 RES1   0.0000
    63 H9A     11.4316   0.6859  10.1190   H         1 RES1   0.0000
    64 H10A     9.7382  -1.4078   5.9431   H         1 RES1   0.0000
    65 C10A    11.1779   3.6246   9.6506   C.ar      1 RES1   0.0000
    66 H11A    11.8806   3.1376   9.2850   H         1 RES1   0.0000
    67 C11A     8.8328   4.0236   9.8927   C.ar      1 RES1   0.0000
    68 C12A    10.4064   5.4107  11.0268   C.ar      1 RES1   0.0000
    69 H12A    10.5890   6.1262  11.5921   H         1 RES1   0.0000
    70 C13A    11.4318   4.6959  10.4906   C.ar      1 RES1   0.0000
    71 H13A     7.9550   3.8309   9.7559   H         1 RES1   0.0000
    72 C14A     9.1081   5.0854  10.7436   C.ar      1 RES1   0.0000
    73 H14A     8.3661   5.5697  11.1358   H         1 RES1   0.0000
    74 H15A    12.2968   4.9058  10.6516   H         1 RES1   0.0000
    75 C15A     6.1760   1.2112   9.1501   C.1       1 RES1   0.0000
@<TRIPOS>BOND
     1     1     2    1
     2     2     3   ar
     3     3    10   ar
     4     4     1    1
     5     5     6    1
     6     7     5    1
     7     8     5    1
     8     9    11    1
     9    10    12   ar
    10    11    16    2
    11    12    15   ar
    12    13     1    1
    13    14     2   ar
    14    15    14   ar
    15    16    20    1
    16    17    12    1
    17    18    20    1
    18    19    10    1
    19    20    22    2
    20    21     3    1
    21    22     4    1
    22    23    16    1
    23    24    23    1
    24    25    23    1
    25    26    23    1
    26    27    15    1
    27    28    18   ar
    28    29    28    1
    29    30    18   ar
    30    31    32    1
    31    33    28   ar
    32    34    30    1
    33    35    30   ar
    34    36    35    1
    35    37    33    1
    36    38     5    1
    37    39     1    1
    38    40    39   ar
    39    41     1    1
    40    42    43    1
    41    44    42    1
    42    45    42    1
    43    46    48    1
    44    47    40   ar
    45    48    53    2
    46    49    47   ar
    47    50     1    1
    48    51    39   ar
    49    52    49   ar
    50    53    57    1
    51    54    49    1
    52    55    57    1
    53    56    47    1
    54    57    59    2
    55    58    40    1
    56    59    41    1
    57    60    53    1
    58    61    60    1
    59    62    60    1
    60    63    60    1
    61    64    52    1
    62    65    55   ar
    63    66    65    1
    64    67    55   ar
    65    68    69    1
    66    70    65   ar
    67    71    67    1
    68    72    67   ar
    69    73    72    1
    70    74    70    1
    71    75    42    1
    72     9    14    1
    73     9    22    1
    74    13    38    3
    75    31    33   ar
    76    31    35   ar
    77    46    51    1
    78    46    59    1
    79    50    75    3
    80    51    52   ar
    81    68    70   ar
    82    68    72   ar
@<TRIPOS>SUBSTRUCTURE
     1 RES1        1 GROUP             0 ****  ****    0  
@<TRIPOS>CRYSIN
    8.2630    8.4919   13.1039  104.8460  103.8200   99.4540     2     1
