@<TRIPOS>MOLECULE
EFAKAB01
    75    82     1     0     0
SMALL
USER_CHARGES
****
Generated from the CSD

@<TRIPOS>ATOM
     1 Fe1      6.0411   2.2052   6.0100   Fe        1 RES1   0.0000
     2 C1       5.5050   4.8950   7.4676   C.ar      1 RES1   0.0000
     3 N1       4.9363   4.1072   6.5341   N.ar      1 RES1   0.0000
     4 S1       3.7958   1.1825   5.7791   S.3       1 RES1   0.0000
     5 B1       6.6195   0.5862  10.5260   B         1 RES1  -1.0000
     6 H1       5.7231   0.3713  11.0104   H         1 RES1   0.0000
     7 H2       7.1951   1.2635  11.1066   H         1 RES1   0.0000
     8 H3       7.3085  -0.2740  10.3854   H         1 RES1   0.0000
     9 N2       3.1804   3.7517   5.0012   N.pl3     1 RES1   0.0000
    10 C2       4.9310   6.0595   7.9258   C.ar      1 RES1   0.0000
    11 C3       3.0834   5.6338   6.5029   C.ar      1 RES1   0.0000
    12 N3       2.1428   3.5595   3.2037   N.pl3     1 RES1   1.0000
    13 N4       2.5611   4.4688   4.0502   N.2       1 RES1   0.0000
    14 C4       3.6993   6.4271   7.4401   C.ar      1 RES1   0.0000
    15 N5       6.0581   1.6392   8.0782   N.1       1 RES1   0.0000
    16 C5       3.7517   4.5023   6.0707   C.ar      1 RES1   0.0000
    17 H4       2.2694   5.8229   6.1411   H         1 RES1   0.0000
    18 C6       0.8386   0.7913   2.4198   C.ar      1 RES1   0.0000
    19 C7       1.6211  -0.9925   1.0337   C.ar      1 RES1   0.0000
    20 C8       0.5811  -0.2775   1.5775   C.ar      1 RES1   0.0000
    21 H5       4.1129   0.6506   2.3740   H         1 RES1   0.0000
    22 C9       2.9269  -0.6636   1.3270   C.ar      1 RES1   0.0000
    23 H6       3.6676  -1.1495   0.9255   H         1 RES1   0.0000
    24 H7       1.4506  -1.7247   0.4688   H         1 RES1   0.0000
    25 C10      3.2000   0.3930   2.1762   C.ar      1 RES1   0.0000
    26 H8      -0.3275  -0.4653   1.3799   H         1 RES1   0.0000
    27 C11      6.2815   1.1977   9.1111   C.1       1 RES1   0.0000
    28 H9       0.1380   1.3008   2.7538   H         1 RES1   0.0000
    29 H10      1.8507   3.6160   1.2621   H         1 RES1   0.0000
    30 H11      0.5331   3.7485   2.0314   H         1 RES1   0.0000
    31 H12      1.5340   4.8950   1.9593   H         1 RES1   0.0000
    32 H13      3.2926   7.2176   7.7361   H         1 RES1   0.0000
    33 C12      2.1555   1.1316   2.7188   C.ar      1 RES1   0.0000
    34 H14      5.3866   6.5545   8.5475   H         1 RES1   0.0000
    35 C13      2.4624   2.2912   3.5632   C.2       1 RES1   0.0000
    36 H15      6.3667   4.6268   7.7986   H         1 RES1   0.0000
    37 C14      3.1430   2.3938   4.7648   C.2       1 RES1   0.0000
    38 C15      1.4735   4.0007   1.9773   C.3       1 RES1   0.0000
    39 C1A      6.5771  -0.4845   4.5525   C.ar      1 RES1   0.0000
    40 N1A      7.1458   0.3032   5.4860   N.ar      1 RES1   0.0000
    41 S1A      8.2864   3.2279   6.2410   S.3       1 RES1   0.0000
    42 B1A      5.4627   3.8242   1.4941   B         1 RES1  -1.0000
    43 H1A      6.3590   4.0391   1.0097   H         1 RES1   0.0000
    44 H2A      4.8870   3.1470   0.9135   H         1 RES1   0.0000
    45 H3A      4.7737   4.6844   1.6347   H         1 RES1   0.0000
    46 N2A      8.9017   0.6587   7.0189   N.pl3     1 RES1   0.0000
    47 C2A      7.1511  -1.6491   4.0943   C.ar      1 RES1   0.0000
    48 C3A      8.9987  -1.2233   5.5172   C.ar      1 RES1   0.0000
    49 N3A      9.9394   0.8510   8.8164   N.pl3     1 RES1   1.0000
    50 N4A      9.5210  -0.0584   7.9699   N.2       1 RES1   0.0000
    51 C4A      8.3828  -2.0167   4.5800   C.ar      1 RES1   0.0000
    52 N5A      6.0240   2.7712   3.9419   N.1       1 RES1   0.0000
    53 C5A      8.3305  -0.0919   5.9493   C.ar      1 RES1   0.0000
    54 H4A      9.8127  -1.4125   5.8790   H         1 RES1   0.0000
    55 C6A     11.2436   3.6192   9.6003   C.ar      1 RES1   0.0000
    56 C7A     10.4611   5.4029  10.9864   C.ar      1 RES1   0.0000
    57 C8A     11.5011   4.6880  10.4426   C.ar      1 RES1   0.0000
    58 H5A      7.9692   3.7598   9.6461   H         1 RES1   0.0000
    59 C9A      9.1553   5.0740  10.6931   C.ar      1 RES1   0.0000
    60 H6A      8.4145   5.5599  11.0945   H         1 RES1   0.0000
    61 H7A     10.6316   6.1351  11.5513   H         1 RES1   0.0000
    62 C10A     8.8821   4.0175   9.8439   C.ar      1 RES1   0.0000
    63 H8A     12.4096   4.8758  10.6402   H         1 RES1   0.0000
    64 C11A     5.8006   3.2127   2.9090   C.1       1 RES1   0.0000
    65 H9A     11.9442   3.1097   9.2663   H         1 RES1   0.0000
    66 H10A    10.2314   0.7945  10.7580   H         1 RES1   0.0000
    67 H11A    11.5491   0.6619   9.9887   H         1 RES1   0.0000
    68 H12A    10.5481  -0.4846  10.0608   H         1 RES1   0.0000
    69 H13A     8.7895  -2.8072   4.2840   H         1 RES1   0.0000
    70 C12A     9.9267   3.2788   9.3013   C.ar      1 RES1   0.0000
    71 H14A     6.6956  -2.1441   3.4726   H         1 RES1   0.0000
    72 C13A     9.6197   2.1192   8.4569   C.2       1 RES1   0.0000
    73 H15A     5.7155  -0.2163   4.2215   H         1 RES1   0.0000
    74 C14A     8.9391   2.0166   7.2553   C.2       1 RES1   0.0000
    75 C15A    10.6086   0.4098  10.0428   C.3       1 RES1   0.0000
@<TRIPOS>BOND
     1     1     3    1
     2     2     3   ar
     3     3    16   ar
     4     4     1    1
     5     5     6    1
     6     7     5    1
     7     8     5    1
     8     9    13    1
     9    10     2   ar
    10    11    14   ar
    11    12    13    2
    12    14    10   ar
    13    15     1    1
    14    16     9    1
    15    17    11    1
    16    18    20   ar
    17    19    20   ar
    18    20    26    1
    19    21    25    1
    20    22    19   ar
    21    23    22    1
    22    24    19    1
    23    25    22   ar
    24    27     5    1
    25    28    18    1
    26    29    38    1
    27    30    38    1
    28    31    38    1
    29    32    14    1
    30    33    18   ar
    31    34    10    1
    32    35    12    1
    33    36     2    1
    34    37     4    1
    35    38    12    1
    36    39    40   ar
    37    40     1    1
    38    41     1    1
    39    42    43    1
    40    44    42    1
    41    45    42    1
    42    46    50    1
    43    47    39   ar
    44    48    51   ar
    45    49    50    2
    46    51    47   ar
    47    52     1    1
    48    53    40   ar
    49    54    48    1
    50    55    57   ar
    51    56    57   ar
    52    57    63    1
    53    58    62    1
    54    59    56   ar
    55    60    59    1
    56    61    56    1
    57    62    59   ar
    58    64    42    1
    59    65    55    1
    60    66    75    1
    61    67    75    1
    62    68    75    1
    63    69    51    1
    64    70    55   ar
    65    71    47    1
    66    72    49    1
    67    73    39    1
    68    74    41    1
    69    75    49    1
    70     9    37    1
    71    11    16   ar
    72    15    27    3
    73    25    33   ar
    74    33    35    1
    75    35    37    2
    76    46    53    1
    77    46    74    1
    78    48    53   ar
    79    52    64    3
    80    62    70   ar
    81    70    72    1
    82    72    74    2
@<TRIPOS>SUBSTRUCTURE
     1 RES1        1 GROUP             0 ****  ****    0  
@<TRIPOS>CRYSIN
    8.2367    8.4429   12.9792  104.9460  103.1360   99.8310     2     1
