@<TRIPOS>MOLECULE
EFILUD
   111   114     5     0     0
SMALL
USER_CHARGES
****
Generated from the CSD

@<TRIPOS>ATOM
     1 Fe1     12.4298  15.3348   7.2817   Fe        1 RES1   2.0000
     2 N1      10.6995  17.1775   5.5952   N.pl3     1 RES1   0.0000
     3 N2       9.5810  16.1433   7.0716   N.pl3     1 RES1   0.0000
     4 N3      10.2320  15.4870   9.2757   N.pl3     1 RES1   0.0000
     5 N4      12.0222  15.4651  10.4228   N.pl3     1 RES1   0.0000
     6 N5      14.8622  14.8425   9.0262   N.pl3     1 RES1   0.0000
     7 N6      14.7452  13.4887   7.3887   N.pl3     1 RES1   0.0000
     8 N7      13.9277  13.8472   5.1724   N.pl3     1 RES1   0.0000
     9 N8      12.9943  15.4657   4.1743   N.pl3     1 RES1   0.0000
    10 N9      11.5546  13.6273   7.1894   N.1       1 RES1   0.0000
    11 N10     13.3950  16.9935   7.3488   N.1       1 RES1   0.0000
    12 C1      10.8355  16.2649   6.5846   C.3       1 RES1   0.0000
    13 C2       9.3690  17.6154   5.4635   C.2       1 RES1   0.0000
    14 C3       8.6626  16.9731   6.4010   C.2       1 RES1   0.0000
    15 C4       8.9534  18.6422   4.4620   C.3       1 RES1   0.0000
    16 H1       7.9842  18.7763   4.5139   H         1 RES1   0.0000
    17 H2       9.1930  18.3378   3.5626   H         1 RES1   0.0000
    18 H3       9.4088  19.4897   4.6526   H         1 RES1   0.0000
    19 C5       7.2128  17.0345   6.7510   C.3       1 RES1   0.0000
    20 H4       6.7486  17.6306   6.1237   H         1 RES1   0.0000
    21 H5       7.1105  17.3804   7.6624   H         1 RES1   0.0000
    22 H6       6.8234  16.1359   6.6955   H         1 RES1   0.0000
    23 C6       9.2574  15.3110   8.2013   C.3       1 RES1   0.0000
    24 H7       9.2447  14.3632   7.9189   H         1 RES1   0.0000
    25 H8       8.3532  15.5429   8.5340   H         1 RES1   0.0000
    26 C7      11.5863  15.4673   9.1267   C.3       1 RES1   0.0000
    27 C8       9.8297  15.4876  10.6117   C.2       1 RES1   0.0000
    28 C9      10.9648  15.4697  11.3308   C.2       1 RES1   0.0000
    29 C10      8.4016  15.5531  11.0310   C.3       1 RES1   0.0000
    30 H9       8.3461  15.5368  12.0083   H         1 RES1   0.0000
    31 H10      7.9182  14.7832  10.6619   H         1 RES1   0.0000
    32 H11      8.0002  16.3829  10.6948   H         1 RES1   0.0000
    33 C11     11.1509  15.4679  12.8123   C.3       1 RES1   0.0000
    34 H12     10.2824  15.3576  13.2507   H         1 RES1   0.0000
    35 H13     11.5555  16.3150  13.0913   H         1 RES1   0.0000
    36 H14     11.7409  14.7276  13.0653   H         1 RES1   0.0000
    37 C12     13.3875  15.3079  10.9357   C.3       1 RES1   0.0000
    38 H15     13.5453  14.3447  11.1090   H         1 RES1   0.0000
    39 H16     13.4490  15.7776  11.8056   H         1 RES1   0.0000
    40 C13     14.4922  15.8131  10.0502   C.3       1 RES1   0.0000
    41 H17     14.1996  16.6516   9.6118   H         1 RES1   0.0000
    42 H18     15.2854  16.0185  10.6047   H         1 RES1   0.0000
    43 C14     14.0728  14.5013   7.9778   C.3       1 RES1   0.0000
    44 C15     16.0067  14.0325   9.1041   C.2       1 RES1   0.0000
    45 C16     15.9252  13.1730   8.0731   C.2       1 RES1   0.0000
    46 C17     17.0631  14.1934  10.1438   C.3       1 RES1   0.0000
    47 H19     17.7281  13.4800  10.0468   H         1 RES1   0.0000
    48 H20     16.6530  14.1440  11.0345   H         1 RES1   0.0000
    49 H21     17.4981  15.0643  10.0346   H         1 RES1   0.0000
    50 C18     16.8491  12.1058   7.6070   C.3       1 RES1   0.0000
    51 H22     17.3216  12.4115   6.8047   H         1 RES1   0.0000
    52 H23     16.3356  11.2966   7.3991   H         1 RES1   0.0000
    53 H24     17.4999  11.9050   8.3122   H         1 RES1   0.0000
    54 C19     14.2991  12.8550   6.1774   C.3       1 RES1   0.0000
    55 H25     13.5185  12.2787   6.3750   H         1 RES1   0.0000
    56 H26     15.0216  12.2818   5.8205   H         1 RES1   0.0000
    57 C20     13.1338  14.9463   5.4098   C.3       1 RES1   0.0000
    58 C21     14.2474  13.6980   3.8312   C.2       1 RES1   0.0000
    59 C22     13.6588  14.7144   3.1936   C.2       1 RES1   0.0000
    60 C23     15.1501  12.6088   3.3252   C.3       1 RES1   0.0000
    61 H27     15.2088  12.6616   2.3479   H         1 RES1   0.0000
    62 H28     14.7880  11.7352   3.5852   H         1 RES1   0.0000
    63 H29     16.0450  12.7203   3.7117   H         1 RES1   0.0000
    64 C24     13.6629  15.0797   1.7467   C.3       1 RES1   0.0000
    65 H30     14.1212  14.3787   1.2355   H         1 RES1   0.0000
    66 H31     14.1336  15.9320   1.6271   H         1 RES1   0.0000
    67 H32     12.7429  15.1662   1.4278   H         1 RES1   0.0000
    68 C25     12.1763  16.6047   3.6961   C.3       1 RES1   0.0000
    69 H33     11.3469  16.2439   3.2958   H         1 RES1   0.0000
    70 H34     12.6770  17.0654   2.9770   H         1 RES1   0.0000
    71 C26     11.7926  17.6287   4.7375   C.3       1 RES1   0.0000
    72 H35     12.5825  17.8282   5.3006   H         1 RES1   0.0000
    73 H36     11.5216  18.4675   4.2835   H         1 RES1   0.0000
    74 C27     11.0316  12.6098   7.1409   C.1       1 RES1   0.0000
    75 C28     10.3867  11.3068   7.0941   C.3       1 RES1   0.0000
    76 H37     10.6568  10.7809   7.8756   H         1 RES1   0.0000
    77 H38     10.6551  10.8396   6.2762   H         1 RES1   0.0000
    78 H39      9.4123  11.4233   7.1010   H         1 RES1   0.0000
    79 C29     14.0582  17.9242   7.3523   C.1       1 RES1   0.0000
    80 C30     14.8914  19.1160   7.3367   C.3       1 RES1   0.0000
    81 H40     14.4706  19.8016   6.7770   H         1 RES1   0.0000
    82 H41     15.7740  18.8905   6.9711   H         1 RES1   0.0000
    83 H42     14.9948  19.4557   8.2499   H         1 RES1   0.0000
    84 S1      13.8746  20.5752  11.5103   S.o2      2 RES2   0.0000
    85 O1      14.5990  20.3018  10.3639   O.2       2 RES2   0.0000
    86 O2      12.5477  21.1014  11.2649   O.3       2 RES2  -1.0000
    87 O3      14.5724  21.2620  12.5333   O.2       2 RES2   0.0000
    88 C31     13.4900  18.9739  12.2440   C.3       2 RES2   0.0000
    89 F1      12.6928  18.2714  11.3793   F         2 RES2   0.0000
    90 F2      14.5899  18.2856  12.4883   F         2 RES2   0.0000
    91 F3      12.8524  19.0604  13.3651   F         2 RES2   0.0000
    92 S2      16.4101  14.6424  14.2145   S.o2      3 RES3   0.0000
    93 O4      15.3523  15.2048  13.4171   O.3       3 RES3  -1.0000
    94 O5      16.9716  13.4439  13.6597   O.2       3 RES3   0.0000
    95 O6      16.1700  14.6186  15.6229   O.2       3 RES3   0.0000
    96 C32     17.7834  15.8548  14.0443   C.3       3 RES3   0.0000
    97 F4      18.0401  16.0970  12.7673   F         3 RES3   0.0000
    98 F5      17.4671  16.9956  14.6196   F         3 RES3   0.0000
    99 F6      18.8847  15.4166  14.6075   F         3 RES3   0.0000
   100 N11      8.6139  18.7664   9.6656   N.1       4 RES4   0.0000
   101 C33      9.6350  18.9619   9.1769   C.1       4 RES4   0.0000
   102 C34     10.9207  19.2117   8.5912   C.3       4 RES4   0.0000
   103 H43     10.8084  19.6780   7.7370   H         4 RES4   0.0000
   104 H44     11.3807  18.3594   8.4387   H         4 RES4   0.0000
   105 H45     11.4574  19.7645   9.1977   H         4 RES4   0.0000
   106 N12     17.8315  10.2930  10.4817   N.1       5 RES5   0.0000
   107 C35     17.8315  10.2930  11.6011   C.1       5 RES5   0.0000
   108 C36     17.8315  10.2930  13.0566   C.3       5 RES5   0.0000
   109 H46     18.7426  10.1664  13.3841   H         5 RES5   0.0000
   110 H46B    17.2628   9.5673  13.3841   H         5 RES5   0.0000
   111 H46A    17.4839  11.1484  13.3841   H         5 RES5   0.0000
@<TRIPOS>BOND
     1     1    10    1
     2     2    12    1
     3     3    12    1
     4     4    23    1
     5     5    26    1
     6     6    40    1
     7     7    43    1
     8     8    54    1
     9     9    57    1
    10    10    74    3
    11    11     1    1
    12    12     1    1
    13    13     2    1
    14    14     3    1
    15    15    13    1
    16    16    15    1
    17    17    15    1
    18    18    15    1
    19    19    14    1
    20    20    19    1
    21    21    19    1
    22    22    19    1
    23    23     3    1
    24    24    23    1
    25    25    23    1
    26    26     1    1
    27    27     4    1
    28    28     5    1
    29    29    27    1
    30    30    29    1
    31    31    29    1
    32    32    29    1
    33    33    28    1
    34    34    33    1
    35    35    33    1
    36    36    33    1
    37    37     5    1
    38    38    37    1
    39    39    37    1
    40    40    37    1
    41    41    40    1
    42    42    40    1
    43    43     1    1
    44    44     6    1
    45    45     7    1
    46    46    44    1
    47    47    46    1
    48    48    46    1
    49    49    46    1
    50    50    45    1
    51    51    50    1
    52    52    50    1
    53    53    50    1
    54    54     7    1
    55    55    54    1
    56    56    54    1
    57    57     1    1
    58    58     8    1
    59    59     9    1
    60    60    58    1
    61    61    60    1
    62    62    60    1
    63    63    60    1
    64    64    59    1
    65    65    64    1
    66    66    64    1
    67    67    64    1
    68    68     9    1
    69    69    68    1
    70    70    68    1
    71    71     2    1
    72    72    71    1
    73    73    71    1
    74    74    75    1
    75    75    76    1
    76    77    75    1
    77    78    75    1
    78    79    11    3
    79    80    79    1
    80    81    80    1
    81    82    80    1
    82    83    80    1
    83     4    26    1
    84     6    43    1
    85     8    57    1
    86    13    14    2
    87    27    28    2
    88    44    45    2
    89    58    59    2
    90    68    71    1
    91    84    85    2
    92    86    84    1
    93    87    84    2
    94    88    84    1
    95    89    88    1
    96    90    88    1
    97    91    88    1
    98    92    93    1
    99    94    92    2
   100    95    92    2
   101    96    92    1
   102    97    96    1
   103    98    96    1
   104    99    96    1
   105   100   101    3
   106   101   102    1
   107   102   103    1
   108   104   102    1
   109   105   102    1
   110   106   107    3
   111   107   108    1
   112   108   109    1
   113   110   108    1
   114   111   108    1
@<TRIPOS>SUBSTRUCTURE
     1 RES1        1 GROUP             0 ****  ****    0  
     2 RES2       84 GROUP             0 ****  ****    0  
     3 RES3       92 GROUP             0 ****  ****    0  
     4 RES4      100 GROUP             0 ****  ****    0  
     5 RES5      106 GROUP             0 ****  ****    0  
@<TRIPOS>CRYSIN
   35.6595   35.6595   17.3280   90.0000   90.0000  120.0000   236     1
