@<TRIPOS>MOLECULE
EGICAZ03
   100   108     2     0     0
SMALL
USER_CHARGES
****
Generated from the CSD

@<TRIPOS>ATOM
     1 C1       7.0398   1.6798   3.7802   C.2       1 RES1   0.0000
     2 C2       7.9672   2.3946   4.5871   C.1       1 RES1   0.0000
     3 C3       7.2407   0.4369   3.1397   C.2       1 RES1   0.0000
     4 C4       8.3952  -0.4499   3.3591   C.ar      1 RES1   0.0000
     5 C5       8.6922  -1.3826   2.3882   C.ar      1 RES1   0.0000
     6 H1       8.1833  -1.4181   1.6102   H         1 RES1   0.0000
     7 C6       9.7416  -2.2640   2.5643   C.ar      1 RES1   0.0000
     8 H2       9.9372  -2.8883   1.9040   H         1 RES1   0.0000
     9 C7      10.4933  -2.2202   3.7087   C.ar      1 RES1   0.0000
    10 H3      11.1966  -2.8180   3.8262   H         1 RES1   0.0000
    11 C8      10.2114  -1.3000   4.6768   C.ar      1 RES1   0.0000
    12 H4      10.7318  -1.2669   5.4463   H         1 RES1   0.0000
    13 C9       9.1577  -0.4155   4.5208   C.ar      1 RES1   0.0000
    14 H5       8.9613   0.1981   5.1902   H         1 RES1   0.0000
    15 C10      3.9061   3.5520   0.8823   C.2       1 RES1   0.0000
    16 C11      2.9342   4.5210   0.5222   C.1       1 RES1   0.0000
    17 C12      5.1601   3.3041   0.2872   C.2       1 RES1   0.0000
    18 C13      5.7476   4.0869  -0.8148   C.ar      1 RES1   0.0000
    19 C14      6.6509   3.4527  -1.6470   C.ar      1 RES1   0.0000
    20 H6       6.8607   2.5573  -1.5081   H         1 RES1   0.0000
    21 C15      7.2408   4.1446  -2.6791   C.ar      1 RES1   0.0000
    22 H7       7.8572   3.7199  -3.2303   H         1 RES1   0.0000
    23 C16      6.9223   5.4555  -2.8987   C.ar      1 RES1   0.0000
    24 H8       7.3067   5.9096  -3.6136   H         1 RES1   0.0000
    25 C17      6.0477   6.1059  -2.0803   C.ar      1 RES1   0.0000
    26 H9       5.8493   7.0019  -2.2286   H         1 RES1   0.0000
    27 C18      5.4489   5.4227  -1.0176   C.ar      1 RES1   0.0000
    28 H10      4.8563   5.8627  -0.4519   H         1 RES1   0.0000
    29 C19      2.9494  -0.4888   2.7511   C.2       1 RES1   0.0000
    30 C20      2.1211  -1.2998   3.5582   C.1       1 RES1   0.0000
    31 C21      3.0669  -0.5062   1.3461   C.2       1 RES1   0.0000
    32 C22      2.2106  -1.3029   0.4477   C.ar      1 RES1   0.0000
    33 C23      2.7758  -1.8805  -0.6806   C.ar      1 RES1   0.0000
    34 H11      3.6908  -1.8091  -0.8324   H         1 RES1   0.0000
    35 C24      1.9800  -2.5620  -1.5757   C.ar      1 RES1   0.0000
    36 H12      2.3610  -2.9665  -2.3209   H         1 RES1   0.0000
    37 C25      0.6264  -2.6472  -1.3714   C.ar      1 RES1   0.0000
    38 H13      0.0920  -3.1021  -1.9810   H         1 RES1   0.0000
    39 C26      0.0649  -2.0643  -0.2725   C.ar      1 RES1   0.0000
    40 H14     -0.8550  -2.1141  -0.1455   H         1 RES1   0.0000
    41 C27      0.8457  -1.4019   0.6529   C.ar      1 RES1   0.0000
    42 H15      0.4569  -1.0245   1.4088   H         1 RES1   0.0000
    43 Fe1      4.8831   1.3349   2.1480   Fe        1 RES1   0.0000
    44 N1       5.8432   2.2653   3.4502   N.2       1 RES1   0.0000
    45 N2       8.7352   2.9764   5.1839   N.1       1 RES1   0.0000
    46 N3       3.5985   2.6571   1.8881   N.2       1 RES1   0.0000
    47 N4       2.1448   5.2853   0.2395   N.1       1 RES1   0.0000
    48 N5       3.8497   0.3689   3.3485   N.2       1 RES1   0.0000
    49 N6       1.4855  -1.9488   4.2470   N.1       1 RES1   0.0000
    50 O1       5.5347   3.3591   3.9702   O.2       1 RES1   0.0000
    51 O2       6.3518   0.0735   2.3141   O.3       1 RES1  -1.0000
    52 O3       2.5056   2.7729   2.4684   O.2       1 RES1   0.0000
    53 O4       5.8075   2.3083   0.7255   O.3       1 RES1   0.0000
    54 O5       3.9011   0.4067   4.5971   O.2       1 RES1   0.0000
    55 O6       3.9789   0.2041   0.8300   O.3       1 RES1   0.0000
    56 C28      1.8766   3.9618   6.4693   C.ar      2 RES2   0.0000
    57 C29      2.1079   2.9235   5.5861   C.ar      2 RES2   0.0000
    58 H16      2.9634   2.7788   5.2504   H         2 RES2   0.0000
    59 C30      1.0626   2.1019   5.2028   C.ar      2 RES2   0.0000
    60 H17      1.2180   1.3999   4.6125   H         2 RES2   0.0000
    61 C31     -0.1921   2.3143   5.6855   C.ar      2 RES2   0.0000
    62 H18     -0.8913   1.7648   5.4113   H         2 RES2   0.0000
    63 C32     -0.4332   3.3320   6.5724   C.ar      2 RES2   0.0000
    64 H19     -1.2912   3.4644   6.9068   H         2 RES2   0.0000
    65 C33      0.5935   4.1568   6.9675   C.ar      2 RES2   0.0000
    66 H20      0.4285   4.8460   7.5699   H         2 RES2   0.0000
    67 C34      2.6071   6.0006   8.3422   C.ar      2 RES2   0.0000
    68 C35      2.6900   5.4612   9.6089   C.ar      2 RES2   0.0000
    69 H21      3.1933   4.6948   9.7593   H         2 RES2   0.0000
    70 C36      2.0199   6.0678  10.6516   C.ar      2 RES2   0.0000
    71 H22      2.0781   5.7037  11.5053   H         2 RES2   0.0000
    72 C37      1.2743   7.1919  10.4490   C.ar      2 RES2   0.0000
    73 H23      0.8143   7.5832  11.1569   H         2 RES2   0.0000
    74 C38      1.2063   7.7406   9.1997   C.ar      2 RES2   0.0000
    75 H24      0.7122   8.5164   9.0640   H         2 RES2   0.0000
    76 C39      1.8613   7.1585   8.1422   C.ar      2 RES2   0.0000
    77 H25      1.8053   7.5363   7.2943   H         2 RES2   0.0000
    78 C40      4.6555   4.1036   7.3914   C.ar      2 RES2   0.0000
    79 C41      4.5416   2.7856   7.7812   C.ar      2 RES2   0.0000
    80 H26      3.7024   2.3878   7.8371   H         2 RES2   0.0000
    81 C42      5.6740   2.0565   8.0875   C.ar      2 RES2   0.0000
    82 H27      5.5980   1.1626   8.3366   H         2 RES2   0.0000
    83 C43      6.8993   2.6409   8.0260   C.ar      2 RES2   0.0000
    84 H28      7.6609   2.1454   8.2274   H         2 RES2   0.0000
    85 C44      7.0174   3.9524   7.6692   C.ar      2 RES2   0.0000
    86 H29      7.8576   4.3507   7.6427   H         2 RES2   0.0000
    87 C45      5.9002   4.6917   7.3508   C.ar      2 RES2   0.0000
    88 H30      5.9858   5.5864   7.1082   H         2 RES2   0.0000
    89 C46      3.6558   6.1687   5.6152   C.ar      2 RES2   0.0000
    90 C47      3.4648   5.8066   4.3005   C.ar      2 RES2   0.0000
    91 H31      3.0487   4.9998   4.0962   H         2 RES2   0.0000
    92 C48      3.8884   6.6372   3.2907   C.ar      2 RES2   0.0000
    93 H32      3.7595   6.3841   2.4049   H         2 RES2   0.0000
    94 C49      4.4967   7.8285   3.5702   C.ar      2 RES2   0.0000
    95 H33      4.7745   8.3861   2.8805   H         2 RES2   0.0000
    96 C50      4.6931   8.1947   4.8713   C.ar      2 RES2   0.0000
    97 H34      5.1097   9.0039   5.0643   H         2 RES2   0.0000
    98 C51      4.2823   7.3822   5.8953   C.ar      2 RES2   0.0000
    99 H35      4.4211   7.6405   6.7781   H         2 RES2   0.0000
   100 P1       3.2090   5.0603   6.9482   P.3       2 RES2   1.0000
@<TRIPOS>BOND
     1     1     2    1
     2     2    45    3
     3     3     1    2
     4     4     3    1
     5     5     4   ar
     6     6     5    1
     7     7     5   ar
     8     8     7    1
     9     9     7   ar
    10    10     9    1
    11    11     9   ar
    12    12    11    1
    13    13     4   ar
    14    14    13    1
    15    15    16    1
    16    16    47    3
    17    17    15    2
    18    18    17    1
    19    19    18   ar
    20    20    19    1
    21    21    19   ar
    22    22    21    1
    23    23    21   ar
    24    24    23    1
    25    25    23   ar
    26    26    25    1
    27    27    18   ar
    28    28    27    1
    29    29    30    1
    30    30    49    3
    31    31    29    2
    32    32    31    1
    33    33    32   ar
    34    34    33    1
    35    35    33   ar
    36    36    35    1
    37    37    35   ar
    38    38    37    1
    39    39    37   ar
    40    40    39    1
    41    41    32   ar
    42    42    41    1
    43    43    44    1
    44    44     1    1
    45    46    15    1
    46    48    29    1
    47    50    44    2
    48    51     3    1
    49    52    46    2
    50    53    17    1
    51    54    48    2
    52    55    31    1
    53    11    13   ar
    54    25    27   ar
    55    39    41   ar
    56    43    46    1
    57    43    48    1
    58    43    51    1
    59    43    53    1
    60    43    55    1
    61    56    57   ar
    62    57    58    1
    63    59    57   ar
    64    60    59    1
    65    61    59   ar
    66    62    61    1
    67    63    61   ar
    68    64    63    1
    69    65    56   ar
    70    66    65    1
    71    67    68   ar
    72    68    69    1
    73    70    68   ar
    74    71    70    1
    75    72    70   ar
    76    73    72    1
    77    74    72   ar
    78    75    74    1
    79    76    67   ar
    80    77    76    1
    81    78    79   ar
    82    79    80    1
    83    81    79   ar
    84    82    81    1
    85    83    81   ar
    86    84    83    1
    87    85    83   ar
    88    86    85    1
    89    87    78   ar
    90    88    87    1
    91    89    90   ar
    92    90    91    1
    93    92    90   ar
    94    93    92    1
    95    94    92   ar
    96    95    94    1
    97    96    94   ar
    98    97    96    1
    99    98    89   ar
   100    99    98    1
   101   100    56    1
   102    63    65   ar
   103    67   100    1
   104    74    76   ar
   105    78   100    1
   106    85    87   ar
   107    89   100    1
   108    96    98   ar
@<TRIPOS>SUBSTRUCTURE
     1 RES1        1 GROUP             0 ****  ****    0  
     2 RES2       56 GROUP             0 ****  ****    0  
@<TRIPOS>CRYSIN
   12.2470   26.0680   14.0070   90.0000   92.8350   90.0000   231     1
