@<TRIPOS>MOLECULE
EGICAZ01
   100   108     2     0     0
SMALL
USER_CHARGES
****
Generated from the CSD

@<TRIPOS>ATOM
     1 C1       4.8596   1.6522   3.1561   C.2       1 RES1   0.0000
     2 C2       3.9205   2.3605   2.3595   C.1       1 RES1   0.0000
     3 C3       4.6628   0.4018   3.8026   C.2       1 RES1   0.0000
     4 C4       3.5100  -0.4912   3.5846   C.ar      1 RES1   0.0000
     5 C5       3.2253  -1.4347   4.5654   C.ar      1 RES1   0.0000
     6 H1       3.7418  -1.4633   5.3623   H         1 RES1   0.0000
     7 C6       2.1870  -2.3356   4.3812   C.ar      1 RES1   0.0000
     8 H2       2.0002  -2.9864   5.0482   H         1 RES1   0.0000
     9 C7       1.4243  -2.2906   3.2297   C.ar      1 RES1   0.0000
    10 H3       0.7148  -2.9110   3.1067   H         1 RES1   0.0000
    11 C8       1.6909  -1.3476   2.2578   C.ar      1 RES1   0.0000
    12 H4       1.1565  -1.3125   1.4738   H         1 RES1   0.0000
    13 C9       2.7361  -0.4494   2.4217   C.ar      1 RES1   0.0000
    14 H5       2.9243   0.1923   1.7464   H         1 RES1   0.0000
    15 C10      8.0120   3.5332   6.0363   C.2       1 RES1   0.0000
    16 C11      8.9900   4.5074   6.3930   C.1       1 RES1   0.0000
    17 C12      6.7533   3.2858   6.6372   C.2       1 RES1   0.0000
    18 C13      6.1666   4.0795   7.7332   C.ar      1 RES1   0.0000
    19 C14      5.2344   3.4493   8.5622   C.ar      1 RES1   0.0000
    20 H6       5.0104   2.5367   8.4178   H         1 RES1   0.0000
    21 C15      4.6398   4.1531   9.5910   C.ar      1 RES1   0.0000
    22 H7       3.9971   3.7271  10.1461   H         1 RES1   0.0000
    23 C16      4.9770   5.4750   9.8156   C.ar      1 RES1   0.0000
    24 H8       4.5821   5.9467  10.5392   H         1 RES1   0.0000
    25 C17      5.8828   6.1126   8.9962   C.ar      1 RES1   0.0000
    26 H9       6.0997   7.0254   9.1470   H         1 RES1   0.0000
    27 C18      6.4796   5.4199   7.9478   C.ar      1 RES1   0.0000
    28 H10      7.1001   5.8610   7.3785   H         1 RES1   0.0000
    29 C19      8.9766  -0.5060   4.1739   C.2       1 RES1   0.0000
    30 C20      9.8194  -1.3125   3.3602   C.1       1 RES1   0.0000
    31 C21      8.8614  -0.5258   5.5863   C.2       1 RES1   0.0000
    32 C22      9.7300  -1.3144   6.4857   C.ar      1 RES1   0.0000
    33 C23      9.1583  -1.8945   7.6174   C.ar      1 RES1   0.0000
    34 H11      8.2233  -1.8220   7.7701   H         1 RES1   0.0000
    35 C24      9.9616  -2.5773   8.5207   C.ar      1 RES1   0.0000
    36 H12      9.5710  -2.9916   9.2813   H         1 RES1   0.0000
    37 C25     11.3292  -2.6547   8.3180   C.ar      1 RES1   0.0000
    38 H13     11.8774  -3.1137   8.9436   H         1 RES1   0.0000
    39 C26     11.8954  -2.0632   7.2033   C.ar      1 RES1   0.0000
    40 H14     12.8357  -2.1079   7.0727   H         1 RES1   0.0000
    41 C27     11.1010  -1.4043   6.2728   C.ar      1 RES1   0.0000
    42 H15     11.4919  -1.0188   5.4979   H         1 RES1   0.0000
    43 Fe1      7.0299   1.3055   4.7798   Fe        1 RES1   0.0000
    44 N1       6.0659   2.2342   3.4716   N.2       1 RES1   0.0000
    45 N2       3.1373   2.9515   1.7644   N.1       1 RES1   0.0000
    46 N3       8.3144   2.6318   5.0309   N.2       1 RES1   0.0000
    47 N4       9.7904   5.2731   6.6667   N.1       1 RES1   0.0000
    48 N5       8.0679   0.3410   3.5726   N.2       1 RES1   0.0000
    49 N6      10.4600  -1.9548   2.6620   N.1       1 RES1   0.0000
    50 O1       6.3775   3.3237   2.9378   O.2       1 RES1   0.0000
    51 O2       5.5597   0.0374   4.6250   O.3       1 RES1  -1.0000
    52 O3       9.4131   2.7452   4.4427   O.2       1 RES1   0.0000
    53 O4       6.1052   2.2841   6.2045   O.3       1 RES1   0.0000
    54 O5       8.0105   0.3834   2.3225   O.2       1 RES1   0.0000
    55 O6       7.9397   0.1804   6.1014   O.3       1 RES1   0.0000
    56 C28      8.1980   6.1814   1.3816   C.ar      2 RES2   0.0000
    57 C29      7.5736   7.4046   1.1048   C.ar      2 RES2   0.0000
    58 H16      7.4371   7.6751   0.2048   H         2 RES2   0.0000
    59 C30      7.1572   8.2158   2.1376   C.ar      2 RES2   0.0000
    60 H17      6.7332   9.0449   1.9470   H         2 RES2   0.0000
    61 C31      7.3532   7.8280   3.4500   C.ar      2 RES2   0.0000
    62 H18      7.0711   8.3925   4.1598   H         2 RES2   0.0000
    63 C32      7.9591   6.6189   3.7258   C.ar      2 RES2   0.0000
    64 H19      8.0836   6.3522   4.6289   H         2 RES2   0.0000
    65 C33      8.3858   5.7947   2.7044   C.ar      2 RES2   0.0000
    66 H20      8.8063   4.9669   2.9046   H         2 RES2   0.0000
    67 C34      9.2447   6.0393  -1.3525   C.ar      2 RES2   0.0000
    68 C35      9.1532   5.5005  -2.6288   C.ar      2 RES2   0.0000
    69 H21      8.6273   4.7252  -2.7842   H         2 RES2   0.0000
    70 C36      9.8366   6.1048  -3.6750   C.ar      2 RES2   0.0000
    71 H22      9.7825   5.7336  -4.5486   H         2 RES2   0.0000
    72 C37     10.5915   7.2349  -3.4584   C.ar      2 RES2   0.0000
    73 H23     11.0653   7.6336  -4.1791   H         2 RES2   0.0000
    74 C38     10.6607   7.7895  -2.1940   C.ar      2 RES2   0.0000
    75 H24     11.1664   8.5822  -2.0522   H         2 RES2   0.0000
    76 C39      9.9976   7.1969  -1.1354   C.ar      2 RES2   0.0000
    77 H25     10.0530   7.5738  -0.2657   H         2 RES2   0.0000
    78 C40      9.9828   3.9787   0.5043   C.ar      2 RES2   0.0000
    79 C41      9.7526   2.9170   1.3734   C.ar      2 RES2   0.0000
    80 H26      8.8791   2.7576   1.7090   H         2 RES2   0.0000
    81 C42     10.8057   2.0936   1.7469   C.ar      2 RES2   0.0000
    82 H27     10.6501   1.3645   2.3373   H         2 RES2   0.0000
    83 C43     12.0757   2.3262   1.2669   C.ar      2 RES2   0.0000
    84 H28     12.7930   1.7648   1.5388   H         2 RES2   0.0000
    85 C44     12.3127   3.3695   0.3923   C.ar      2 RES2   0.0000
    86 H29     13.1892   3.5192   0.0567   H         2 RES2   0.0000
    87 C45     11.2741   4.1975   0.0047   C.ar      2 RES2   0.0000
    88 H30     11.4365   4.9123  -0.5992   H         2 RES2   0.0000
    89 C46      7.1964   4.1230  -0.4107   C.ar      2 RES2   0.0000
    90 C47      5.9412   4.7296  -0.3684   C.ar      2 RES2   0.0000
    91 H31      5.8599   5.6452  -0.1301   H         2 RES2   0.0000
    92 C48      4.8178   3.9883  -0.6757   C.ar      2 RES2   0.0000
    93 H32      3.9611   4.3977  -0.6490   H         2 RES2   0.0000
    94 C49      4.9321   2.6565  -1.0207   C.ar      2 RES2   0.0000
    95 H33      4.1510   2.1495  -1.2122   H         2 RES2   0.0000
    96 C50      6.1657   2.0587  -1.0885   C.ar      2 RES2   0.0000
    97 H34      6.2385   1.1462  -1.3395   H         2 RES2   0.0000
    98 C51      7.3088   2.7907  -0.7909   C.ar      2 RES2   0.0000
    99 H35      8.1641   2.3808  -0.8469   H         2 RES2   0.0000
   100 P1       8.6446   5.0818   0.0351   P.3       2 RES2   1.0000
@<TRIPOS>BOND
     1     1     2    1
     2     2    45    3
     3     3     1    2
     4     4     3    1
     5     5     4   ar
     6     6     5    1
     7     7     5   ar
     8     8     7    1
     9     9     7   ar
    10    10     9    1
    11    11     9   ar
    12    12    11    1
    13    13     4   ar
    14    14    13    1
    15    15    16    1
    16    16    47    3
    17    17    15    2
    18    18    17    1
    19    19    18   ar
    20    20    19    1
    21    21    19   ar
    22    22    21    1
    23    23    21   ar
    24    24    23    1
    25    25    23   ar
    26    26    25    1
    27    27    18   ar
    28    28    27    1
    29    29    30    1
    30    30    49    3
    31    31    29    2
    32    32    31    1
    33    33    32   ar
    34    34    33    1
    35    35    33   ar
    36    36    35    1
    37    37    35   ar
    38    38    37    1
    39    39    37   ar
    40    40    39    1
    41    41    32   ar
    42    42    41    1
    43    43    44    1
    44    44     1    1
    45    46    15    1
    46    48    29    1
    47    50    44    2
    48    51     3    1
    49    52    46    2
    50    53    17    1
    51    54    48    2
    52    55    31    1
    53    11    13   ar
    54    25    27   ar
    55    39    41   ar
    56    43    46    1
    57    43    48    1
    58    43    51    1
    59    43    53    1
    60    43    55    1
    61    56    57   ar
    62    57    58    1
    63    59    57   ar
    64    60    59    1
    65    61    59   ar
    66    62    61    1
    67    63    61   ar
    68    64    63    1
    69    65    56   ar
    70    66    65    1
    71    67    68   ar
    72    68    69    1
    73    70    68   ar
    74    71    70    1
    75    72    70   ar
    76    73    72    1
    77    74    72   ar
    78    75    74    1
    79    76    67   ar
    80    77    76    1
    81    78    79   ar
    82    79    80    1
    83    81    79   ar
    84    82    81    1
    85    83    81   ar
    86    84    83    1
    87    85    83   ar
    88    86    85    1
    89    87    78   ar
    90    88    87    1
    91    89    90   ar
    92    90    91    1
    93    92    90   ar
    94    93    92    1
    95    94    92   ar
    96    95    94    1
    97    96    94   ar
    98    97    96    1
    99    98    89   ar
   100    99    98    1
   101   100    56    1
   102    63    65   ar
   103    67   100    1
   104    74    76   ar
   105    78   100    1
   106    85    87   ar
   107    89   100    1
   108    96    98   ar
@<TRIPOS>SUBSTRUCTURE
     1 RES1        1 GROUP             0 ****  ****    0  
     2 RES2       56 GROUP             0 ****  ****    0  
@<TRIPOS>CRYSIN
   12.2043   25.9910   13.8507   90.0000   92.4370   90.0000   231     1
