@<TRIPOS>MOLECULE
EHABOG
    84    88     1     0     0
SMALL
NO_CHARGES
****
Generated from the CSD

@<TRIPOS>ATOM
     1 Fe1      7.4408  10.0406   2.8797   Fe        1 RES1   0.0000
     2 N1       7.5771  12.9665   4.1150   N.pl3     1 RES1   0.0000
     3 N2       5.8412  12.6930   2.9348   N.pl3     1 RES1   0.0000
     4 N3       4.8878   9.2246   4.3446   N.pl3     1 RES1   0.0000
     5 N4       4.8028   8.3719   2.4048   N.pl3     1 RES1   0.0000
     6 O1      10.4536   8.3451   1.7739   O.3       1 RES1   0.0000
     7 Si1     10.4704   9.8767   1.2030   Si        1 RES1   0.0000
     8 Si2      9.5640   7.3938   2.7450   Si        1 RES1   0.0000
     9 C1       6.9478  12.0399   3.3363   C.3       1 RES1   0.0000
    10 C2       5.6172   9.1602   3.1680   C.3       1 RES1   0.0000
    11 C3       7.7077   9.8906   0.8329   C.2       1 RES1   0.0000
    12 H1       7.9023   8.9854   0.4831   H         1 RES1   0.0000
    13 H2       7.0667  10.3947   0.2716   H         1 RES1   0.0000
    14 C4       8.8124  10.6199   1.3220   C.2       1 RES1   0.0000
    15 H3       8.7872  11.5948   1.0997   H         1 RES1   0.0000
    16 C5       8.7750   9.5860   4.3770   C.2       1 RES1   0.0000
    17 H4       9.7080   9.8852   4.2400   H         1 RES1   0.0000
    18 H5       8.4548   9.7168   5.3048   H         1 RES1   0.0000
    19 C6       8.4053   8.3730   3.7509   C.2       1 RES1   0.0000
    20 H6       7.7949   7.8110   4.3085   H         1 RES1   0.0000
    21 C7       6.8938  14.1720   4.1571   C.2       1 RES1   0.0000
    22 C8       5.7800  14.0154   3.3759   C.2       1 RES1   0.0000
    23 C9       7.3251  15.3518   4.9755   C.3       1 RES1   0.0000
    24 H7       6.6575  16.0650   4.8974   H         1 RES1   0.0000
    25 H8       8.1905  15.6767   4.6498   H         1 RES1   0.0000
    26 H9       7.4081  15.0847   5.9154   H         1 RES1   0.0000
    27 C10      4.7407  14.9742   3.0262   C.3       1 RES1   0.0000
    28 H10      3.9682  14.8477   3.6163   H         1 RES1   0.0000
    29 H11      4.4679  14.8348   2.0960   H         1 RES1   0.0000
    30 H12      5.0878  15.8848   3.1319   H         1 RES1   0.0000
    31 C11      8.9446  12.8614   4.6318   C.3       1 RES1   0.0000
    32 H13      9.1572  11.9133   4.8205   H         1 RES1   0.0000
    33 H14      9.0211  13.3698   5.4779   H         1 RES1   0.0000
    34 C12      9.9238  13.4105   3.6175   C.3       1 RES1   0.0000
    35 H15      9.8119  12.9397   2.7654   H         1 RES1   0.0000
    36 H16     10.8388  13.2808   3.9444   H         1 RES1   0.0000
    37 H17      9.7562  14.3672   3.4865   H         1 RES1   0.0000
    38 C13      4.8560  12.1364   1.9938   C.3       1 RES1   0.0000
    39 H18      5.2282  11.3074   1.6020   H         1 RES1   0.0000
    40 H19      4.7265  12.7831   1.2547   H         1 RES1   0.0000
    41 C14      3.5042  11.8200   2.6007   C.3       1 RES1   0.0000
    42 H20      3.6155  11.1744   3.3290   H         1 RES1   0.0000
    43 H21      2.9189  11.4393   1.9133   H         1 RES1   0.0000
    44 H22      3.1037  12.6426   2.9529   H         1 RES1   0.0000
    45 C15      3.7000   8.5028   4.2893   C.2       1 RES1   0.0000
    46 C16      3.6314   7.9397   3.0791   C.2       1 RES1   0.0000
    47 C17      2.7308   8.4492   5.4214   C.3       1 RES1   0.0000
    48 H23      1.9697   7.8839   5.1726   H         1 RES1   0.0000
    49 H24      2.4139   9.3543   5.6233   H         1 RES1   0.0000
    50 H25      3.1732   8.0738   6.2110   H         1 RES1   0.0000
    51 C18      2.5553   7.1418   2.4757   C.3       1 RES1   0.0000
    52 H26      2.2540   6.4640   3.1151   H         1 RES1   0.0000
    53 H27      2.8891   6.7031   1.6657   H         1 RES1   0.0000
    54 H28      1.8054   7.7284   2.2438   H         1 RES1   0.0000
    55 C19      5.3463   9.9292   5.5308   C.3       1 RES1   0.0000
    56 H29      4.5902  10.4429   5.9094   H         1 RES1   0.0000
    57 H30      6.0497  10.5749   5.2676   H         1 RES1   0.0000
    58 C20      5.9023   9.0079   6.6040   C.3       1 RES1   0.0000
    59 H31      5.1997   8.3934   6.9021   H         1 RES1   0.0000
    60 H32      6.2137   9.5420   7.3636   H         1 RES1   0.0000
    61 H33      6.6518   8.4931   6.2362   H         1 RES1   0.0000
    62 C21      5.0856   7.9515   1.0504   C.3       1 RES1   0.0000
    63 H34      4.8522   6.9938   0.9554   H         1 RES1   0.0000
    64 H35      6.0558   8.0437   0.8809   H         1 RES1   0.0000
    65 C22      4.3242   8.7495   0.0084   C.3       1 RES1   0.0000
    66 H36      3.3628   8.6958   0.1947   H         1 RES1   0.0000
    67 H37      4.5047   8.3816  -0.8809   H         1 RES1   0.0000
    68 H38      4.6115   9.6857   0.0397   H         1 RES1   0.0000
    69 C23     11.7960  10.7647   2.1477   C.3       1 RES1   0.0000
    70 H39     11.5099  10.8891   3.0755   H         1 RES1   0.0000
    71 H40     11.9611  11.6388   1.7366   H         1 RES1   0.0000
    72 H41     12.6212  10.2349   2.1284   H         1 RES1   0.0000
    73 C24     11.0414   9.7362  -0.5733   C.3       1 RES1   0.0000
    74 H42     11.9218   9.3082  -0.6009   H         1 RES1   0.0000
    75 H43     11.1008  10.6306  -0.9699   H         1 RES1   0.0000
    76 H44     10.3997   9.1967  -1.0804   H         1 RES1   0.0000
    77 C25     10.8058   6.5283   3.8278   C.3       1 RES1   0.0000
    78 H45     11.3308   5.9009   3.2870   H         1 RES1   0.0000
    79 H46     10.3373   6.0360   4.5345   H         1 RES1   0.0000
    80 H47     11.4043   7.1900   4.2328   H         1 RES1   0.0000
    81 C26      8.6857   6.1347   1.7006   C.3       1 RES1   0.0000
    82 H48      8.0904   6.5916   1.0696   H         1 RES1   0.0000
    83 H49      8.1580   5.5427   2.2762   H         1 RES1   0.0000
    84 H50      9.3449   5.6060   1.2030   H         1 RES1   0.0000
@<TRIPOS>BOND
     1     1     9    1
     2     2     9    1
     3     3     9    1
     4     4    10    1
     5     5    10    1
     6     6     7    1
     7     7    14    1
     8     8     6    1
     9    10     1    1
    10    11     1   un
    11    12    11    1
    12    13    11    1
    13    14     1   un
    14    15    14    1
    15    16     1   un
    16    17    16    1
    17    18    16    1
    18    19     1   un
    19    20    19    1
    20    21     2    1
    21    22     3    1
    22    23    21    1
    23    24    23    1
    24    25    23    1
    25    26    23    1
    26    27    22    1
    27    28    27    1
    28    29    27    1
    29    30    27    1
    30    31     2    1
    31    32    31    1
    32    33    31    1
    33    34    31    1
    34    35    34    1
    35    36    34    1
    36    37    34    1
    37    38     3    1
    38    39    38    1
    39    40    38    1
    40    41    38    1
    41    42    41    1
    42    43    41    1
    43    44    41    1
    44    45     4    1
    45    46     5    1
    46    47    45    1
    47    48    47    1
    48    49    47    1
    49    50    47    1
    50    51    46    1
    51    52    51    1
    52    53    51    1
    53    54    51    1
    54    55     4    1
    55    56    55    1
    56    57    55    1
    57    58    55    1
    58    59    58    1
    59    60    58    1
    60    61    58    1
    61    62     5    1
    62    63    62    1
    63    64    62    1
    64    65    62    1
    65    66    65    1
    66    67    65    1
    67    68    65    1
    68    69     7    1
    69    70    69    1
    70    71    69    1
    71    72    69    1
    72    73     7    1
    73    74    73    1
    74    75    73    1
    75    76    73    1
    76    77     8    1
    77    78    77    1
    78    79    77    1
    79    80    77    1
    80    81     8    1
    81    82    81    1
    82    83    81    1
    83    84    81    1
    84     8    19    1
    85    11    14    2
    86    16    19    2
    87    21    22    2
    88    45    46    2
@<TRIPOS>SUBSTRUCTURE
     1 RES1        1 GROUP             0 ****  ****    0  
@<TRIPOS>CRYSIN
   11.7850   10.7250   12.8760   90.0000  111.0320   90.0000     4     1
