@<TRIPOS>MOLECULE
EHIDUX
    90    95     4     0     0
SMALL
USER_CHARGES
****
Generated from the CSD

@<TRIPOS>ATOM
     1 Fe1     18.0895   5.1739   6.7379   Fe        1 RES1   2.0000
     2 O1      17.2093   4.9809   4.9645   O.2       1 RES1   0.0000
     3 O2      15.9284   5.3163  10.6329   O.3       1 RES1   0.0000
     4 H1      15.1049   5.1730  10.5482   H         1 RES1   0.0000
     5 O3      22.3626   5.5118   7.9585   O.3       1 RES1   0.0000
     6 H2      22.8906   5.5164   7.3066   H         1 RES1   0.0000
     7 N1      19.5502   3.8542   6.2996   N.ar      1 RES1   0.0000
     8 N2      16.7711   3.8036   7.4100   N.ar      1 RES1   0.0000
     9 N3      19.4096   6.5341   6.0624   N.ar      1 RES1   0.0000
    10 N4      18.8323   5.3568   8.5336   N.ar      1 RES1   0.0000
    11 N5      16.6037   6.4561   7.2145   N.ar      1 RES1   0.0000
    12 N6      16.8505   4.7134   2.7617   N.am      1 RES1   0.0000
    13 C1      21.0473   5.3993   7.4935   C.3       1 RES1   0.0000
    14 C2      20.1659   5.4409   8.7348   C.ar      1 RES1   0.0000
    15 C3      20.6870   6.5260   6.5160   C.ar      1 RES1   0.0000
    16 C4      16.2409   3.9444   8.6532   C.ar      1 RES1   0.0000
    17 C5      18.0438   5.3740   9.6269   C.ar      1 RES1   0.0000
    18 C6      16.5457   5.2555   9.3745   C.3       1 RES1   0.0000
    19 C7      15.3892   2.9960   9.2150   C.ar      1 RES1   0.0000
    20 H3      15.0766   3.0996  10.1055   H         1 RES1   0.0000
    21 C8      19.1257   7.4440   5.0830   C.ar      1 RES1   0.0000
    22 H4      18.2427   7.4680   4.7367   H         1 RES1   0.0000
    23 C9      18.5382   5.4389  10.9214   C.ar      1 RES1   0.0000
    24 H5      17.9467   5.4358  11.6641   H         1 RES1   0.0000
    25 C10     19.3778   2.7458   5.5309   C.ar      1 RES1   0.0000
    26 H6      18.5129   2.5795   5.1738   H         1 RES1   0.0000
    27 C11     21.6566   7.4035   6.0643   C.ar      1 RES1   0.0000
    28 H7      22.5331   7.3824   6.4346   H         1 RES1   0.0000
    29 C12     20.7297   5.5108  10.0046   C.ar      1 RES1   0.0000
    30 H8      21.6716   5.5615  10.1125   H         1 RES1   0.0000
    31 C13     20.8212   4.0761   6.7457   C.ar      1 RES1   0.0000
    32 C14     16.3240   2.7498   6.6906   C.ar      1 RES1   0.0000
    33 H9      16.6287   2.6667   5.7939   H         1 RES1   0.0000
    34 C15     16.0364   7.3123   6.3414   C.ar      1 RES1   0.0000
    35 H10     16.3809   7.3398   5.4560   H         1 RES1   0.0000
    36 C16     20.0462   8.3285   4.5724   C.ar      1 RES1   0.0000
    37 H11     19.8002   8.9400   3.8887   H         1 RES1   0.0000
    38 C17     21.8663   3.2159   6.4875   C.ar      1 RES1   0.0000
    39 H12     22.7335   3.4061   6.8263   H         1 RES1   0.0000
    40 C18     21.6571   2.0771   5.7340   C.ar      1 RES1   0.0000
    41 H13     22.3605   1.4644   5.5619   H         1 RES1   0.0000
    42 C19     16.0477   6.3933   8.4539   C.ar      1 RES1   0.0000
    43 C20     17.6516   4.8867   3.8056   C.2       1 RES1   0.0000
    44 H14     18.5892   4.9393   3.6639   H         1 RES1   0.0000
    45 C21     19.8968   5.5067  11.1112   C.ar      1 RES1   0.0000
    46 H15     20.2593   5.5495  11.9883   H         1 RES1   0.0000
    47 C22     15.0223   7.2272   8.8468   C.ar      1 RES1   0.0000
    48 H16     14.6915   7.1829   9.7358   H         1 RES1   0.0000
    49 C23     14.4770   8.1279   7.9471   C.ar      1 RES1   0.0000
    50 H17     13.7733   8.7130   8.2062   H         1 RES1   0.0000
    51 C24     14.9891   8.1502   6.6546   C.ar      1 RES1   0.0000
    52 H18     14.6239   8.7322   5.9986   H         1 RES1   0.0000
    53 C25     21.3462   8.3153   5.0640   C.ar      1 RES1   0.0000
    54 H19     22.0000   8.9150   4.7277   H         1 RES1   0.0000
    55 C26     15.4697   1.7984   7.1576   C.ar      1 RES1   0.0000
    56 H20     15.1944   1.0793   6.6007   H         1 RES1   0.0000
    57 C27     20.3737   1.8572   5.2405   C.ar      1 RES1   0.0000
    58 H21     20.1941   1.0949   4.7034   H         1 RES1   0.0000
    59 C28     15.0084   1.8967   8.4596   C.ar      1 RES1   0.0000
    60 H22     14.4403   1.2282   8.8267   H         1 RES1   0.0000
    61 C29     15.4170   4.5847   2.9515   C.3       1 RES1   0.0000
    62 H23     15.1915   4.7988   3.8816   H         1 RES1   0.0000
    63 H24     15.1427   3.6662   2.7521   H         1 RES1   0.0000
    64 H25     14.9520   5.2040   2.3521   H         1 RES1   0.0000
    65 C30     17.3510   4.5381   1.4197   C.3       1 RES1   0.0000
    66 H26     16.8991   5.1662   0.8181   H         1 RES1   0.0000
    67 H27     17.1784   3.6203   1.1238   H         1 RES1   0.0000
    68 H28     18.3157   4.7101   1.4064   H         1 RES1   0.0000
    69 Cl1     12.6313   4.4851  11.7825   Cl        2 RES2   0.0000
    70 O4      13.1667   5.3456  10.7468   O.3       2 RES2  -1.0000
    71 O5      13.6135   3.5178  12.1058   O.2       2 RES2   0.0000
    72 O6      11.4716   3.8350  11.2630   O.2       2 RES2   0.0000
    73 O7      12.2805   5.2514  12.9030   O.2       2 RES2   0.0000
    74 O8      24.6492   5.5685   6.6090   O.2       3 RES3   0.0000
    75 N7      26.2860   5.9303   8.1407   N.am      3 RES3   0.0000
    76 C31     25.3966   6.3173   7.2411   C.2       3 RES3   0.0000
    77 H29     25.3323   7.2493   7.0664   H         3 RES3   0.0000
    78 C32     26.4935   4.5209   8.4425   C.3       3 RES3   0.0000
    79 H30     26.4790   4.3884   9.4128   H         3 RES3   0.0000
    80 H31     27.3640   4.2366   8.0881   H         3 RES3   0.0000
    81 H32     25.7840   3.9891   8.0276   H         3 RES3   0.0000
    82 C33     27.1766   6.8908   8.7994   C.3       3 RES3   0.0000
    83 H33     26.8822   7.8032   8.5962   H         3 RES3   0.0000
    84 H34     28.0929   6.7637   8.4750   H         3 RES3   0.0000
    85 H35     27.1517   6.7485   9.7692   H         3 RES3   0.0000
    86 Cl2     16.8472   0.1834   3.3620   Cl        4 RES4   0.0000
    87 O9      17.0123  -1.2098   3.0198   O.3       4 RES4  -1.0000
    88 O10     15.9670   0.5603   2.4827   O.2       4 RES4   0.0000
    89 O11     16.7032   0.0892   4.6483   O.2       4 RES4   0.0000
    90 O12     18.0287   0.8065   3.2343   O.2       4 RES4   0.0000
@<TRIPOS>BOND
     1     1     2    1
     2     2    43    2
     3     3     4    1
     4     5     6    1
     5     7     1    1
     6     8     1    1
     7     9     1    1
     8    10     1    1
     9    11     1    1
    10    12    43   am
    11    13     5    1
    12    14    10   ar
    13    15     9   ar
    14    16     8   ar
    15    17    10   ar
    16    18     3    1
    17    19    16   ar
    18    20    19    1
    19    21     9   ar
    20    22    21    1
    21    23    17   ar
    22    24    23    1
    23    25     7   ar
    24    26    25    1
    25    27    15   ar
    26    28    27    1
    27    29    14   ar
    28    30    29    1
    29    31     7   ar
    30    32     8   ar
    31    33    32    1
    32    34    11   ar
    33    35    34    1
    34    36    21   ar
    35    37    36    1
    36    38    31   ar
    37    39    38    1
    38    40    38   ar
    39    41    40    1
    40    42    11   ar
    41    43    44    1
    42    45    23   ar
    43    46    45    1
    44    47    42   ar
    45    48    47    1
    46    49    47   ar
    47    50    49    1
    48    51    34   ar
    49    52    51    1
    50    53    27   ar
    51    54    53    1
    52    55    32   ar
    53    56    55    1
    54    57    25   ar
    55    58    57    1
    56    59    19   ar
    57    60    59    1
    58    61    12    1
    59    62    61    1
    60    63    61    1
    61    64    61    1
    62    65    12    1
    63    66    65    1
    64    67    65    1
    65    68    65    1
    66    13    14    1
    67    13    15    1
    68    13    31    1
    69    16    18    1
    70    17    18    1
    71    18    42    1
    72    29    45   ar
    73    36    53   ar
    74    40    57   ar
    75    49    51   ar
    76    55    59   ar
    77    69    70    1
    78    71    69    2
    79    72    69    2
    80    73    69    2
    81    74    76    2
    82    75    76   am
    83    76    77    1
    84    78    75    1
    85    79    78    1
    86    80    78    1
    87    81    78    1
    88    82    75    1
    89    83    82    1
    90    84    82    1
    91    85    82    1
    92    86    87    1
    93    88    86    2
    94    89    86    2
    95    90    86    2
@<TRIPOS>SUBSTRUCTURE
     1 RES1        1 GROUP             0 ****  ****    0  
     2 RES2       69 GROUP             0 ****  ****    0  
     3 RES3       74 GROUP             0 ****  ****    0  
     4 RES4       86 GROUP             0 ****  ****    0  
@<TRIPOS>CRYSIN
   37.2740   10.1320   25.8790   90.0000  132.8250   90.0000    15     1
