@<TRIPOS>MOLECULE
EHUVUZ
    89    91     2     0     0
SMALL
USER_CHARGES
****
Generated from the CSD

@<TRIPOS>ATOM
     1 Fe1     -0.1290   2.4351   3.6783   Fe        1 RES1   0.0000
     2 P1       1.1880   1.0971   2.4552   P.3       1 RES1   0.0000
     3 P2       1.1492   4.2045   3.1445   P.3       1 RES1   0.0000
     4 P3      -1.6827   3.6871   4.7015   P.3       1 RES1   0.0000
     5 N1      -1.0956   0.8341   4.1735   N.2       1 RES1   0.0000
     6 N2       1.0214   0.2931   7.0701   N.ar      1 RES1   1.0000
     7 C1      -1.4659   2.3552   2.1545   C.ar      1 RES1   0.0000
     8 C2      -1.7682   3.1816   1.0535   C.ar      1 RES1   0.0000
     9 H1      -1.2735   3.9016   0.8790   H         1 RES1   0.0000
    10 C3      -2.8372   2.9741   0.1726   C.ar      1 RES1   0.0000
    11 C4      -3.6439   1.8425   0.3665   C.ar      1 RES1   0.0000
    12 H2      -4.3966   1.6826  -0.1780   H         1 RES1   0.0000
    13 C5      -3.3920   0.9828   1.4037   C.ar      1 RES1   0.0000
    14 H3      -3.9151   0.2512   1.5279   H         1 RES1   0.0000
    15 C6      -2.3384   1.2384   2.2904   C.ar      1 RES1   0.0000
    16 C7      -2.0640   0.4211   3.4307   C.2       1 RES1   0.0000
    17 H4      -2.5429  -0.3592   3.6076   H         1 RES1   0.0000
    18 C8      -0.6866   0.0655   5.3414   C.3       1 RES1   0.0000
    19 H5      -1.4062   0.0003   5.9282   H         1 RES1   0.0000
    20 H6      -0.3936  -0.8451   5.0629   H         1 RES1   0.0000
    21 C9       0.4382   0.8270   5.9677   C.ar      1 RES1   0.0000
    22 C10      2.0501   0.9337   7.6889   C.ar      1 RES1   0.0000
    23 H7       2.4141   0.4811   8.3747   H         1 RES1   0.0000
    24 C11      2.4659   2.1314   7.2195   C.ar      1 RES1   0.0000
    25 H8       3.1386   2.5475   7.5875   H         1 RES1   0.0000
    26 C12      1.8559   2.6879   6.1076   C.ar      1 RES1   0.0000
    27 H9       2.1298   3.5100   5.8063   H         1 RES1   0.0000
    28 C13      0.8352   2.0358   5.3774   C.ar      1 RES1   0.0000
    29 C14     -3.2028   3.9654  -0.9276   C.3       1 RES1   0.0000
    30 C15     -3.4367   3.2527  -2.2702   C.3       1 RES1   0.0000
    31 H10     -2.6212   2.7783  -2.5342   H         1 RES1   0.0000
    32 H11     -3.6652   3.9142  -2.9559   H         1 RES1   0.0000
    33 H12     -4.1717   2.6123  -2.1769   H         1 RES1   0.0000
    34 C16     -2.1081   5.0057  -1.1589   C.3       1 RES1   0.0000
    35 H13     -2.0189   5.5689  -0.3614   H         1 RES1   0.0000
    36 H14     -2.3460   5.5640  -1.9290   H         1 RES1   0.0000
    37 H15     -1.2578   4.5518  -1.3349   H         1 RES1   0.0000
    38 C17     -4.4971   4.6819  -0.5193   C.3       1 RES1   0.0000
    39 H16     -5.2075   4.0209  -0.3820   H         1 RES1   0.0000
    40 H17     -4.7635   5.3045  -1.2281   H         1 RES1   0.0000
    41 H18     -4.3477   5.1786   0.3122   H         1 RES1   0.0000
    42 C18      0.5274  -0.9781   7.6236   C.3       1 RES1   0.0000
    43 H19     -0.4116  -0.8778   7.8846   H         1 RES1   0.0000
    44 H20      1.0603  -1.2214   8.4089   H         1 RES1   0.0000
    45 H21      0.6046  -1.6812   6.9454   H         1 RES1   0.0000
    46 C19      0.4724  -0.4934   1.9156   C.3       1 RES1   0.0000
    47 H22     -0.3554  -0.3270   1.4184   H         1 RES1   0.0000
    48 H23      0.2757  -1.0463   2.7012   H         1 RES1   0.0000
    49 H24      1.1121  -0.9610   1.3390   H         1 RES1   0.0000
    50 C20      2.7080   0.4531   3.2530   C.3       1 RES1   0.0000
    51 H25      2.4637  -0.0753   4.0416   H         1 RES1   0.0000
    52 H26      3.2764   1.2032   3.5254   H         1 RES1   0.0000
    53 H27      3.1956  -0.1125   2.6177   H         1 RES1   0.0000
    54 C21      1.7889   1.6634   0.8272   C.3       1 RES1   0.0000
    55 H28      2.2535   0.9274   0.3765   H         1 RES1   0.0000
    56 H29      2.4079   2.4136   0.9501   H         1 RES1   0.0000
    57 H30      1.0289   1.9534   0.2807   H         1 RES1   0.0000
    58 C22      2.9858   4.0041   3.1831   C.3       1 RES1   0.0000
    59 H31      3.2625   3.3934   2.4685   H         1 RES1   0.0000
    60 H32      3.2567   3.6364   4.0498   H         1 RES1   0.0000
    61 H33      3.4120   4.8767   3.0503   H         1 RES1   0.0000
    62 C23      1.0234   5.0108   1.5009   C.3       1 RES1   0.0000
    63 H34      0.1939   5.5307   1.4540   H         1 RES1   0.0000
    64 H35      1.0193   4.3258   0.8009   H         1 RES1   0.0000
    65 H36      1.7899   5.6068   1.3705   H         1 RES1   0.0000
    66 C24      1.0943   5.7388   4.1597   C.3       1 RES1   0.0000
    67 H37      1.7228   6.3948   3.7937   H         1 RES1   0.0000
    68 H38      1.3429   5.5283   5.0834   H         1 RES1   0.0000
    69 H39      0.1873   6.1091   4.1415   H         1 RES1   0.0000
    70 C25     -2.4258   5.0812   3.7766   C.3       1 RES1   0.0000
    71 H40     -2.9934   4.7318   3.0585   H         1 RES1   0.0000
    72 H41     -1.7139   5.6334   3.3912   H         1 RES1   0.0000
    73 H42     -2.9671   5.6253   4.3852   H         1 RES1   0.0000
    74 C26     -1.2866   4.4351   6.3289   C.3       1 RES1   0.0000
    75 H43     -2.0373   4.9928   6.6237   H         1 RES1   0.0000
    76 H44     -0.4818   4.9874   6.2472   H         1 RES1   0.0000
    77 H45     -1.1292   3.7247   6.9851   H         1 RES1   0.0000
    78 C27     -3.2084   2.8044   5.1810   C.3       1 RES1   0.0000
    79 H46     -3.8504   3.4419   5.5585   H         1 RES1   0.0000
    80 H47     -2.9942   2.1224   5.8515   H         1 RES1   0.0000
    81 H48     -3.5995   2.3762   4.3920   H         1 RES1   0.0000
    82 S1      -3.3181   1.1363   8.9315   S.o2      2 RES2   0.0000
    83 F1      -2.7863   1.9918  11.3372   F         2 RES2   0.0000
    84 F2      -1.1458   2.0496  10.0321   F         2 RES2   0.0000
    85 F3      -1.7863   0.1807  10.8117   F         2 RES2   0.0000
    86 O1      -2.4787   0.4694   7.9841   O.3       2 RES2  -1.0000
    87 O2      -3.6791   2.4666   8.5815   O.2       2 RES2   0.0000
    88 O3      -4.3747   0.3126   9.4315   O.2       2 RES2   0.0000
    89 C28     -2.2131   1.3524  10.3557   C.3       2 RES2   0.0000
@<TRIPOS>BOND
     1     1     2    1
     2     2    46    1
     3     3     1    1
     4     4     1    1
     5     5     1    1
     6     6    21   ar
     7     7     1    1
     8     8     7   ar
     9     9     8    1
    10    10     8   ar
    11    11    10   ar
    12    12    11    1
    13    13    11   ar
    14    14    13    1
    15    15     7   ar
    16    16     5    2
    17    17    16    1
    18    18     5    1
    19    19    18    1
    20    20    18    1
    21    21    18    1
    22    22     6   ar
    23    23    22    1
    24    24    22   ar
    25    25    24    1
    26    26    24   ar
    27    27    26    1
    28    28     1    1
    29    29    10    1
    30    30    29    1
    31    31    30    1
    32    32    30    1
    33    33    30    1
    34    34    29    1
    35    35    34    1
    36    36    34    1
    37    37    34    1
    38    38    29    1
    39    39    38    1
    40    40    38    1
    41    41    38    1
    42    42     6    1
    43    43    42    1
    44    44    42    1
    45    45    42    1
    46    46    47    1
    47    48    46    1
    48    49    46    1
    49    50     2    1
    50    51    50    1
    51    52    50    1
    52    53    50    1
    53    54     2    1
    54    55    54    1
    55    56    54    1
    56    57    54    1
    57    58     3    1
    58    59    58    1
    59    60    58    1
    60    61    58    1
    61    62     3    1
    62    63    62    1
    63    64    62    1
    64    65    62    1
    65    66     3    1
    66    67    66    1
    67    68    66    1
    68    69    66    1
    69    70     4    1
    70    71    70    1
    71    72    70    1
    72    73    70    1
    73    74     4    1
    74    75    74    1
    75    76    74    1
    76    77    74    1
    77    78     4    1
    78    79    78    1
    79    80    78    1
    80    81    78    1
    81    13    15   ar
    82    15    16    1
    83    21    28   ar
    84    26    28   ar
    85    82    86    1
    86    83    89    1
    87    84    89    1
    88    85    89    1
    89    87    82    2
    90    88    82    2
    91    89    82    1
@<TRIPOS>SUBSTRUCTURE
     1 RES1        1 GROUP             0 ****  ****    0  
     2 RES2       82 GROUP             0 ****  ****    0  
@<TRIPOS>CRYSIN
    9.1821   13.7066   14.5326   97.4860  105.8730  102.5040     2     1
