@<TRIPOS>MOLECULE
EHUWAG
    80    83     1     0     0
SMALL
USER_CHARGES
****
Generated from the CSD

@<TRIPOS>ATOM
     1 Fe1      1.7401   6.6014   7.7660   Fe        1 RES1   0.0000
     2 P1       2.2783   5.1470   9.3619   P.3       1 RES1   0.0000
     3 P2       3.5111   7.8865   8.0917   P.3       1 RES1   0.0000
     4 P3       1.1296   7.7862   5.9787   P.3       1 RES1   0.0000
     5 N1       0.0676   5.6131   7.4899   N.2       1 RES1  -1.0000
     6 N2      -1.7691   7.6455   9.8471   N.ar      1 RES1   1.0000
     7 C1       2.4037   5.1847   6.4849   C.ar      1 RES1   0.0000
     8 C2       3.6596   4.8541   5.9547   C.ar      1 RES1   0.0000
     9 H1       4.3715   5.4105   6.1538   H         1 RES1   0.0000
    10 C3       3.9234   3.7746   5.0988   C.ar      1 RES1   0.0000
    11 C4       2.8445   2.9710   4.7225   C.ar      1 RES1   0.0000
    12 H2       2.9670   2.2623   4.1393   H         1 RES1   0.0000
    13 C5       1.5748   3.2415   5.1980   C.ar      1 RES1   0.0000
    14 H3       0.8968   2.7155   4.9799   H         1 RES1   0.0000
    15 C6       1.3539   4.3047   6.0800   C.ar      1 RES1   0.0000
    16 C7       0.0817   4.6038   6.6662   C.2       1 RES1   0.0000
    17 H4      -0.6677   4.0920   6.5488   H         1 RES1   0.0000
    18 C8      -1.0444   6.0633   8.1721   C.2       1 RES1   0.0000
    19 H5      -1.8791   5.6105   8.0203   H         1 RES1   0.0000
    20 C9      -0.7863   7.1082   9.0279   C.ar      1 RES1   0.0000
    21 C10     -1.4730   8.6148  10.7699   C.ar      1 RES1   0.0000
    22 H6      -2.2341   8.8792  11.3003   H         1 RES1   0.0000
    23 C11     -0.2352   9.1026  10.8753   C.ar      1 RES1   0.0000
    24 H7      -0.0202   9.8287  11.5025   H         1 RES1   0.0000
    25 C12      0.7850   8.6167   9.9911   C.ar      1 RES1   0.0000
    26 H8       1.5976   9.0521  10.1040   H         1 RES1   0.0000
    27 C13      0.5807   7.6290   9.0565   C.ar      1 RES1   0.0000
    28 C14      5.3533   3.5253   4.6280   C.3       1 RES1   0.0000
    29 C15      5.8570   4.7816   3.8958   C.3       1 RES1   0.0000
    30 H9       5.8320   5.5479   4.5063   H         1 RES1   0.0000
    31 H10      5.2829   4.9620   3.1227   H         1 RES1   0.0000
    32 H11      6.7774   4.6359   3.5927   H         1 RES1   0.0000
    33 C16      6.2617   3.2659   5.8233   C.3       1 RES1   0.0000
    34 H12      6.1950   4.0135   6.4533   H         1 RES1   0.0000
    35 H13      7.1890   3.1790   5.5172   H         1 RES1   0.0000
    36 H14      5.9857   2.4380   6.2698   H         1 RES1   0.0000
    37 C17      5.4761   2.3418   3.6784   C.3       1 RES1   0.0000
    38 H15      6.4192   2.1988   3.4560   H         1 RES1   0.0000
    39 H16      4.9718   2.5268   2.8588   H         1 RES1   0.0000
    40 H17      5.1159   1.5391   4.1094   H         1 RES1   0.0000
    41 C18     -3.1234   7.0926   9.7799   C.3       1 RES1   0.0000
    42 H18     -3.6961   7.5514  10.4297   H         1 RES1   0.0000
    43 H19     -3.0967   6.1357   9.9879   H         1 RES1   0.0000
    44 H20     -3.4851   7.2215   8.8777   H         1 RES1   0.0000
    45 C19      1.2526   3.6298   9.4178   C.3       1 RES1   0.0000
    46 H21      1.5569   3.0576  10.1527   H         1 RES1   0.0000
    47 H22      1.3378   3.1463   8.5707   H         1 RES1   0.0000
    48 H23      0.3152   3.8743   9.5611   H         1 RES1   0.0000
    49 C20      2.1076   5.6312  11.1230   C.3       1 RES1   0.0000
    50 H24      1.1730   5.8591  11.3096   H         1 RES1   0.0000
    51 H25      2.6764   6.4085  11.3040   H         1 RES1   0.0000
    52 H26      2.3832   4.8844  11.6953   H         1 RES1   0.0000
    53 C21      3.9288   4.3460   9.3480   C.3       1 RES1   0.0000
    54 H27      4.6265   5.0349   9.3476   H         1 RES1   0.0000
    55 H28      4.0157   3.7920   8.5445   H         1 RES1   0.0000
    56 H29      4.0258   3.7836  10.1452   H         1 RES1   0.0000
    57 C22      4.3280   7.9342   9.7438   C.3       1 RES1   0.0000
    58 H30      4.6465   7.0374   9.9767   H         1 RES1   0.0000
    59 H31      3.6836   8.2373  10.4185   H         1 RES1   0.0000
    60 H32      5.0875   8.5531   9.7146   H         1 RES1   0.0000
    61 C23      5.0668   7.7023   7.1239   C.3       1 RES1   0.0000
    62 H33      5.6629   8.4569   7.3164   H         1 RES1   0.0000
    63 H34      4.8572   7.6878   6.1669   H         1 RES1   0.0000
    64 H35      5.5092   6.8645   7.3744   H         1 RES1   0.0000
    65 C24      3.3118   9.7141   7.8787   C.3       1 RES1   0.0000
    66 H36      4.1133  10.1707   8.2094   H         1 RES1   0.0000
    67 H37      2.5306  10.0183   8.3854   H         1 RES1   0.0000
    68 H38      3.1858   9.9202   6.9288   H         1 RES1   0.0000
    69 C25      2.3779   8.2690   4.7216   C.3       1 RES1   0.0000
    70 H39      2.8233   7.4663   4.3771   H         1 RES1   0.0000
    71 H40      3.0431   8.8605   5.1316   H         1 RES1   0.0000
    72 H41      1.9345   8.7381   3.9839   H         1 RES1   0.0000
    73 C26      0.1967   9.3430   6.2550   C.3       1 RES1   0.0000
    74 H42      0.7638   9.9819   6.7360   H         1 RES1   0.0000
    75 H43     -0.6054   9.1530   6.7847   H         1 RES1   0.0000
    76 H44     -0.0646   9.7249   5.3918   H         1 RES1   0.0000
    77 C27     -0.0606   6.9907   4.8290   C.3       1 RES1   0.0000
    78 H45     -0.2610   7.6037   4.0906   H         1 RES1   0.0000
    79 H46     -0.8879   6.7786   5.3094   H         1 RES1   0.0000
    80 H47      0.3301   6.1665   4.4726   H         1 RES1   0.0000
@<TRIPOS>BOND
     1     1     2    1
     2     2    45    1
     3     3     1    1
     4     4     1    1
     5     5     1    1
     6     6    20   ar
     7     7     1    1
     8     8     7   ar
     9     9     8    1
    10    10     8   ar
    11    11    10   ar
    12    12    11    1
    13    13    11   ar
    14    14    13    1
    15    15     7   ar
    16    16     5   un
    17    17    16    1
    18    18     5   un
    19    19    18    1
    20    20    18    1
    21    21     6   ar
    22    22    21    1
    23    23    21   ar
    24    24    23    1
    25    25    23   ar
    26    26    25    1
    27    27     1    1
    28    28    10    1
    29    29    28    1
    30    30    29    1
    31    31    29    1
    32    32    29    1
    33    33    28    1
    34    34    33    1
    35    35    33    1
    36    36    33    1
    37    37    28    1
    38    38    37    1
    39    39    37    1
    40    40    37    1
    41    41     6    1
    42    42    41    1
    43    43    41    1
    44    44    41    1
    45    45    46    1
    46    47    45    1
    47    48    45    1
    48    49     2    1
    49    50    49    1
    50    51    49    1
    51    52    49    1
    52    53     2    1
    53    54    53    1
    54    55    53    1
    55    56    53    1
    56    57     3    1
    57    58    57    1
    58    59    57    1
    59    60    57    1
    60    61     3    1
    61    62    61    1
    62    63    61    1
    63    64    61    1
    64    65     3    1
    65    66    65    1
    66    67    65    1
    67    68    65    1
    68    69     4    1
    69    70    69    1
    70    71    69    1
    71    72    69    1
    72    73     4    1
    73    74    73    1
    74    75    73    1
    75    76    73    1
    76    77     4    1
    77    78    77    1
    78    79    77    1
    79    80    77    1
    80    13    15   ar
    81    15    16    1
    82    20    27   ar
    83    25    27   ar
@<TRIPOS>SUBSTRUCTURE
     1 RES1        1 GROUP             0 ****  ****    0  
@<TRIPOS>CRYSIN
   16.9889    9.3446   19.4216   90.0000  105.4310   90.0000    14     1
