@<TRIPOS>MOLECULE
EJIYIG
   124   128     2     0     0
SMALL
NO_CHARGES
****
Generated from the CSD

@<TRIPOS>ATOM
     1 Fe1      6.3191   1.4833   0.1407   Fe        1 RES1   0.0000
     2 N1       8.7172   0.9774   3.4383   N.pl3     1 RES1   0.0000
     3 N2       6.6134   4.0892   3.5320   N.pl3     1 RES1   0.0000
     4 N3       2.2955   2.1638  -0.4733   N.pl3     1 RES1   0.0000
     5 N4       3.1053  -0.3974   2.1588   N.pl3     1 RES1   0.0000
     6 C1       6.9596   2.0917   1.8721   C.3       1 RES1   0.0000
     7 C2       7.8253   1.8503   2.9426   C.2       1 RES1   0.0000
     8 C3       7.0494   2.9675   2.9677   C.2       1 RES1   0.0000
     9 C4       9.0607  -0.2017   2.6580   C.3       1 RES1   0.0000
    10 H1       8.3962  -0.2753   1.9145   H         1 RES1   0.0000
    11 C5       8.9712  -1.4838   3.4801   C.3       1 RES1   0.0000
    12 H2       9.6719  -1.4823   4.1655   H         1 RES1   0.0000
    13 H3       9.0912  -2.2580   2.8923   H         1 RES1   0.0000
    14 H4       8.0935  -1.5338   3.9124   H         1 RES1   0.0000
    15 C6      10.4464  -0.0500   2.0230   C.3       1 RES1   0.0000
    16 H5      10.4582   0.7463   1.4540   H         1 RES1   0.0000
    17 H6      10.6467  -0.8420   1.4823   H         1 RES1   0.0000
    18 H7      11.1207   0.0412   2.7288   H         1 RES1   0.0000
    19 C7       9.4499   1.2689   4.7031   C.3       1 RES1   0.0000
    20 H8      10.0812   0.5064   4.8524   H         1 RES1   0.0000
    21 C8      10.2925   2.5127   4.5757   C.3       1 RES1   0.0000
    22 H9      10.9475   2.3920   3.8558   H         1 RES1   0.0000
    23 H10     10.7647   2.6761   5.4198   H         1 RES1   0.0000
    24 H11      9.7176   3.2781   4.3698   H         1 RES1   0.0000
    25 C9       8.4920   1.2747   5.8694   C.3       1 RES1   0.0000
    26 H12      7.8003   1.9519   5.7201   H         1 RES1   0.0000
    27 H13      8.9807   1.4838   6.6931   H         1 RES1   0.0000
    28 H14      8.0726   0.3915   5.9527   H         1 RES1   0.0000
    29 C10      5.5251   4.8325   2.8891   C.3       1 RES1   0.0000
    30 H15      5.3424   5.6392   3.4503   H         1 RES1   0.0000
    31 C11      5.9288   5.3227   1.5059   C.3       1 RES1   0.0000
    32 H16      6.7208   5.8953   1.5797   H         1 RES1   0.0000
    33 H17      5.1920   5.8350   1.1129   H         1 RES1   0.0000
    34 H18      6.1344   4.5543   0.9337   H         1 RES1   0.0000
    35 C12      4.2400   4.0274   2.8152   C.3       1 RES1   0.0000
    36 H19      4.3752   3.2457   2.2399   H         1 RES1   0.0000
    37 H20      3.5241   4.5852   2.4443   H         1 RES1   0.0000
    38 H21      3.9887   3.7300   3.7144   H         1 RES1   0.0000
    39 C13      7.0692   4.4984   4.8665   C.3       1 RES1   0.0000
    40 H22      7.8308   3.9022   5.1180   H         1 RES1   0.0000
    41 C14      7.6004   5.9262   4.8320   C.3       1 RES1   0.0000
    42 H23      8.1659   6.0455   4.0397   H         1 RES1   0.0000
    43 H24      8.1316   6.0970   5.6383   H         1 RES1   0.0000
    44 H25      6.8503   6.5533   4.7958   H         1 RES1   0.0000
    45 C15      5.9669   4.2997   5.9118   C.3       1 RES1   0.0000
    46 H26      5.2567   4.9591   5.7657   H         1 RES1   0.0000
    47 H27      6.3419   4.4174   6.8094   H         1 RES1   0.0000
    48 H28      5.5975   3.3959   5.8285   H         1 RES1   0.0000
    49 C16      4.4692   1.1275   0.5418   C.3       1 RES1   0.0000
    50 C17      3.1154   1.4058   0.2562   C.2       1 RES1   0.0000
    51 C18      3.4331   0.4651   1.2229   C.2       1 RES1   0.0000
    52 C19      2.9259   3.0102  -1.5216   C.3       1 RES1   0.0000
    53 H29      3.8859   2.7408  -1.5907   H         1 RES1   0.0000
    54 C20      2.8882   4.4778  -1.1396   C.3       1 RES1   0.0000
    55 H30      1.9553   4.7781  -1.0925   H         1 RES1   0.0000
    56 H31      3.3680   5.0033  -1.8124   H         1 RES1   0.0000
    57 H32      3.3147   4.5985  -0.2656   H         1 RES1   0.0000
    58 C21      2.2809   2.7600  -2.8750   C.3       1 RES1   0.0000
    59 H33      2.3094   1.8017  -3.0777   H         1 RES1   0.0000
    60 H34      2.7683   3.2560  -3.5666   H         1 RES1   0.0000
    61 H35      1.3480   3.0617  -2.8530   H         1 RES1   0.0000
    62 C22      0.8661   2.3037  -0.1823   C.3       1 RES1   0.0000
    63 H36      0.5255   3.0367  -0.7718   H         1 RES1   0.0000
    64 C23      0.6093   2.7497   1.2591   C.3       1 RES1   0.0000
    65 H37      0.9367   2.0623   1.8753   H         1 RES1   0.0000
    66 H38     -0.3541   2.8777   1.3927   H         1 RES1   0.0000
    67 H39      1.0776   3.5917   1.4288   H         1 RES1   0.0000
    68 C24      0.0864   1.0613  -0.5470   C.3       1 RES1   0.0000
    69 H40      0.1104   0.9332  -1.5184   H         1 RES1   0.0000
    70 H41     -0.8434   1.1599  -0.2531   H         1 RES1   0.0000
    71 H42      0.4874   0.2826  -0.1053   H         1 RES1   0.0000
    72 C25      4.1859  -1.0642   2.9331   C.3       1 RES1   0.0000
    73 H43      3.7526  -1.7605   3.5053   H         1 RES1   0.0000
    74 C26      5.1558  -1.7782   2.0214   C.3       1 RES1   0.0000
    75 H44      4.6608  -2.3611   1.4100   H         1 RES1   0.0000
    76 H45      5.7727  -2.3184   2.5590   H         1 RES1   0.0000
    77 H46      5.6641  -1.1187   1.5043   H         1 RES1   0.0000
    78 C27      4.8645  -0.0736   3.8684   C.3       1 RES1   0.0000
    79 H47      5.2929   0.6330   3.3402   H         1 RES1   0.0000
    80 H48      5.5423  -0.5387   4.4013   H         1 RES1   0.0000
    81 H49      4.1962   0.3224   4.4641   H         1 RES1   0.0000
    82 C28      1.7078  -0.7978   2.4411   C.3       1 RES1   0.0000
    83 H50      1.1309  -0.2340   1.8501   H         1 RES1   0.0000
    84 C29      1.4317  -2.2301   2.0560   C.3       1 RES1   0.0000
    85 H51      1.7763  -2.3979   1.1538   H         1 RES1   0.0000
    86 H52      0.4646  -2.3920   2.0717   H         1 RES1   0.0000
    87 H53      1.8734  -2.8306   2.6911   H         1 RES1   0.0000
    88 C30      1.3156  -0.4607   3.8621   C.3       1 RES1   0.0000
    89 H54      1.8830  -0.9612   4.4861   H         1 RES1   0.0000
    90 H55      0.3770  -0.7051   4.0083   H         1 RES1   0.0000
    91 H56      1.4298   0.5005   4.0146   H         1 RES1   0.0000
    92 C31      6.6085   3.3208  -2.4663   C.2       1 RES1   0.0000
    93 H57      6.4923   4.2526  -2.6172   H         1 RES1   0.0000
    94 C32      5.9707   2.5613  -3.4188   C.2       1 RES1   0.0000
    95 H58      5.7212   3.0411  -4.2001   H         1 RES1   0.0000
    96 C33      5.6261   1.2056  -3.4377   C.2       1 RES1   0.0000
    97 H59      5.1348   0.9480  -4.2079   H         1 RES1   0.0000
    98 C34      5.8545   0.1825  -2.5685   C.2       1 RES1   0.0000
    99 H60      5.3614  -0.5962  -2.7964   H         1 RES1   0.0000
   100 C35      6.6580  -0.0103  -1.3974   C.2       1 RES1   0.0000
   101 H61      6.5418  -0.9332  -1.0312   H         1 RES1   0.0000
   102 C36      7.8498   0.5800  -0.9133   C.2       1 RES1   0.0000
   103 H62      8.4496  -0.0177  -0.3851   H         1 RES1   0.0000
   104 C37      8.0973   1.9357  -0.8017   C.2       1 RES1   0.0000
   105 H63      8.8456   2.1668  -0.1792   H         1 RES1   0.0000
   106 C38      7.3927   3.0647  -1.3204   C.2       1 RES1   0.0000
   107 H64      7.6366   3.9081  -0.8410   H         1 RES1   0.0000
   108 C39     17.5141  11.0193   0.3521   C.3       2 RES2   0.0000
   109 H65     17.3522  11.0767   1.3172   H         2 RES2   0.0000
   110 H66     18.4337  10.7220   0.1918   H         2 RES2   0.0000
   111 H67     16.8877  10.3790  -0.0472   H         2 RES2   0.0000
   112 C40     17.3084  12.3750  -0.2719   C.3       2 RES2   0.0000
   113 H68     17.7463  12.3780  -1.1600   H         2 RES2   0.0000
   114 H69     17.7730  13.0477   0.2877   H         2 RES2   0.0000
   115 C41     15.8653  12.8166  -0.4496   C.3       2 RES2   0.0000
   116 H70     15.8672  13.6071  -1.0469   H         2 RES2   0.0000
   117 H71     15.3912  12.0939  -0.9321   H         2 RES2   0.0000
   118 C42     15.0656  13.1566   0.7183   C.3       2 RES2   0.0000
   119 H72     15.5169  13.8750   1.2276   H         2 RES2   0.0000
   120 H73     14.9895  12.3632   1.3062   H         2 RES2   0.0000
   121 C43     13.6130  13.6409   0.3049   C.3       2 RES2   0.0000
   122 H74     13.6834  14.3180  -0.4008   H         2 RES2   0.0000
   123 H75     13.1636  14.0295   1.0846   H         2 RES2   0.0000
   124 H76     13.0951  12.8784  -0.0252   H         2 RES2   0.0000
@<TRIPOS>BOND
     1     1     6    1
     2     2     7    1
     3     3     8    1
     4     4    50    1
     5     5    51    1
     6     6     7    1
     7     7     8    2
     8     8     6    1
     9     9     2    1
    10    10     9    1
    11    11     9    1
    12    12    11    1
    13    13    11    1
    14    14    11    1
    15    15     9    1
    16    16    15    1
    17    17    15    1
    18    18    15    1
    19    19     2    1
    20    20    19    1
    21    21    19    1
    22    22    21    1
    23    23    21    1
    24    24    21    1
    25    25    19    1
    26    26    25    1
    27    27    25    1
    28    28    25    1
    29    29     3    1
    30    30    29    1
    31    31    29    1
    32    32    31    1
    33    33    31    1
    34    34    31    1
    35    35    29    1
    36    36    35    1
    37    37    35    1
    38    38    35    1
    39    39     3    1
    40    40    39    1
    41    41    39    1
    42    42    41    1
    43    43    41    1
    44    44    41    1
    45    45    39    1
    46    46    45    1
    47    47    45    1
    48    48    45    1
    49    49     1    1
    50    50    49    1
    51    51    49    1
    52    52     4    1
    53    53    52    1
    54    54    52    1
    55    55    54    1
    56    56    54    1
    57    57    54    1
    58    58    52    1
    59    59    58    1
    60    60    58    1
    61    61    58    1
    62    62     4    1
    63    63    62    1
    64    64    62    1
    65    65    64    1
    66    66    64    1
    67    67    64    1
    68    68    62    1
    69    69    68    1
    70    70    68    1
    71    71    68    1
    72    72     5    1
    73    73    72    1
    74    74    72    1
    75    75    74    1
    76    76    74    1
    77    77    74    1
    78    78    72    1
    79    79    78    1
    80    80    78    1
    81    81    78    1
    82    82     5    1
    83    83    82    1
    84    84    82    1
    85    85    84    1
    86    86    84    1
    87    87    84    1
    88    88    82    1
    89    89    88    1
    90    90    88    1
    91    91    88    1
    92    92    93    1
    93    94    92    2
    94    95    94    1
    95    96    94    1
    96    97    96    1
    97    98    96    2
    98    99    98    1
    99   100     1   un
   100   101   100    1
   101   102     1   un
   102   103   102    1
   103   104     1   un
   104   105   104    1
   105   106     1   un
   106   107   106    1
   107    50    51    2
   108    92   106    1
   109    98   100    1
   110   100   102    2
   111   102   104    1
   112   104   106    2
   113   108   109    1
   114   110   108    1
   115   111   108    1
   116   112   108    1
   117   113   112    1
   118   114   112    1
   119   115   112    1
   120   116   115    1
   121   117   115    1
   122   118   115    1
   123   119   118    1
   124   120   118    1
   125   121   118    1
   126   122   121    1
   127   123   121    1
   128   124   121    1
@<TRIPOS>SUBSTRUCTURE
     1 RES1        1 GROUP             0 ****  ****    0  
     2 RES2      108 GROUP             0 ****  ****    0  
@<TRIPOS>CRYSIN
   19.0391   14.7199   15.7188   90.0000   90.0000   90.0000    33     1
