@<TRIPOS>MOLECULE
EJODUE
   107   118     3     0     0
SMALL
NO_CHARGES
****
Generated from the CSD

@<TRIPOS>ATOM
     1 Fe1      4.3738  10.0383   8.1917   Fe        1 RES1   0.0000
     2 F1       4.5509  10.5987  12.4801   F         1 RES1   0.0000
     3 F2       4.2274   9.4999   3.8918   F         1 RES1   0.0000
     4 O1       5.8630  10.7474  10.6035   O.3       1 RES1   0.0000
     5 O2       5.1299  10.8784   5.4927   O.3       1 RES1   0.0000
     6 O3       4.1404   9.0123  10.8600   O.3       1 RES1   0.0000
     7 O4       4.9024   8.4665   5.8318   O.3       1 RES1   0.0000
     8 O5       3.4866  11.3618  10.5858   O.3       1 RES1   0.0000
     9 O6       2.9023   9.8668   5.7392   O.3       1 RES1   0.0000
    10 N1       5.8680  10.7245   9.2133   N.2       1 RES1   0.0000
    11 N2       5.3322  11.0520   6.8582   N.2       1 RES1   0.0000
    12 N3       4.2118   8.6994   9.5256   N.2       1 RES1   0.0000
    13 N4       4.8178   8.4655   7.2066   N.2       1 RES1   0.0000
    14 N5       3.2435  11.1300   9.2573   N.2       1 RES1   0.0000
    15 N6       2.8567  10.2265   7.0591   N.2       1 RES1   0.0000
    16 N7       7.6321  12.3328   9.2322   N.pl3     1 RES1   0.0000
    17 N8       7.4134  12.0043   6.2949   N.pl3     1 RES1   0.0000
    18 H1       7.1637  12.1758   5.4900   H         1 RES1   0.0000
    19 C1       6.6986  11.5489   8.6375   C.2       1 RES1   0.0000
    20 C2       6.4857  11.5645   7.1830   C.2       1 RES1   0.0000
    21 C3       4.4599   7.4435   9.2212   C.2       1 RES1   0.0000
    22 C4       4.6855   7.2949   7.7887   C.2       1 RES1   0.0000
    23 C5       2.0330  11.4179   8.8242   C.2       1 RES1   0.0000
    24 C6       1.8378  10.9553   7.4576   C.2       1 RES1   0.0000
    25 C7       4.5373   6.3312  10.1783   C.ar      1 RES1   0.0000
    26 C8       3.4864   6.0422  11.0522   C.ar      1 RES1   0.0000
    27 H2       2.7334   6.5879  11.0726   H         1 RES1   0.0000
    28 C9       3.5667   4.9360  11.8932   C.ar      1 RES1   0.0000
    29 H3       2.8686   4.7489  12.4785   H         1 RES1   0.0000
    30 C10      4.6789   4.1116  11.8650   C.ar      1 RES1   0.0000
    31 H4       4.7219   3.3631  12.4157   H         1 RES1   0.0000
    32 C11      5.7222   4.4089  11.0130   C.ar      1 RES1   0.0000
    33 H5       6.4796   3.8704  11.0099   H         1 RES1   0.0000
    34 C12      5.6585   5.4984  10.1610   C.ar      1 RES1   0.0000
    35 H6       6.3603   5.6762   9.5774   H         1 RES1   0.0000
    36 C13      4.6641   6.0006   7.0810   C.ar      1 RES1   0.0000
    37 C14      3.6656   5.0816   7.4058   C.ar      1 RES1   0.0000
    38 H7       3.0595   5.2666   8.0868   H         1 RES1   0.0000
    39 C15      3.5871   3.8891   6.7045   C.ar      1 RES1   0.0000
    40 H8       2.9243   3.2737   6.9194   H         1 RES1   0.0000
    41 C16      4.4779   3.6053   5.6987   C.ar      1 RES1   0.0000
    42 H9       4.4011   2.8142   5.2155   H         1 RES1   0.0000
    43 C17      5.4987   4.5108   5.4053   C.ar      1 RES1   0.0000
    44 H10      6.1217   4.3081   4.7463   H         1 RES1   0.0000
    45 C18      5.5862   5.6928   6.0816   C.ar      1 RES1   0.0000
    46 H11      6.2622   6.2948   5.8760   H         1 RES1   0.0000
    47 C19      0.9953  12.0770   9.6527   C.ar      1 RES1   0.0000
    48 C20     -0.2723  11.5105   9.7688   C.ar      1 RES1   0.0000
    49 H12     -0.4746  10.7224   9.3185   H         1 RES1   0.0000
    50 C21     -1.2323  12.1280  10.5596   C.ar      1 RES1   0.0000
    51 H13     -2.0759  11.7464  10.6427   H         1 RES1   0.0000
    52 C22     -0.9441  13.2954  11.2201   C.ar      1 RES1   0.0000
    53 H14     -1.5881  13.6978  11.7567   H         1 RES1   0.0000
    54 C23      0.3049  13.8735  11.0852   C.ar      1 RES1   0.0000
    55 H15      0.4931  14.6781  11.5120   H         1 RES1   0.0000
    56 C24      1.2747  13.2580  10.3164   C.ar      1 RES1   0.0000
    57 H16      2.1210  13.6396  10.2458   H         1 RES1   0.0000
    58 C25      0.6803  11.3067   6.6213   C.ar      1 RES1   0.0000
    59 C26      0.0549  10.3419   5.8337   C.ar      1 RES1   0.0000
    60 H17      0.3977   9.4770   5.8085   H         1 RES1   0.0000
    61 C27     -1.0682  10.6507   5.0884   C.ar      1 RES1   0.0000
    62 H18     -1.4820   9.9947   4.5737   H         1 RES1   0.0000
    63 C28     -1.5740  11.9408   5.1088   C.ar      1 RES1   0.0000
    64 H19     -2.3278  12.1519   4.6082   H         1 RES1   0.0000
    65 C29     -0.9595  12.9150   5.8729   C.ar      1 RES1   0.0000
    66 H20     -1.2912  13.7830   5.8729   H         1 RES1   0.0000
    67 C30      0.1543  12.5979   6.6433   C.ar      1 RES1   0.0000
    68 H21      0.5515  13.2507   7.1736   H         1 RES1   0.0000
    69 C31      8.0046  13.5990   8.5685   C.3       1 RES1   0.0000
    70 H22      8.3381  14.2145   9.2384   H         1 RES1   0.0000
    71 H23      7.2087  13.9920   8.1794   H         1 RES1   0.0000
    72 C32      9.0566  13.4503   7.4764   C.3       1 RES1   0.0000
    73 H24      9.9368  13.4015   7.8812   H         1 RES1   0.0000
    74 H25      9.0328  14.2280   6.8975   H         1 RES1   0.0000
    75 C33      8.8082  12.1945   6.6495   C.3       1 RES1   0.0000
    76 H26      9.3350  12.2454   5.8368   H         1 RES1   0.0000
    77 H27      9.1150  11.4231   7.1516   H         1 RES1   0.0000
    78 C34      8.4548  11.8702  10.3007   C.3       1 RES1   0.0000
    79 H28      8.1048  11.0437  10.6412   H         1 RES1   0.0000
    80 H29      8.4654  12.5251  11.0036   H         1 RES1   0.0000
    81 H30      9.3483  11.7308   9.9790   H         1 RES1   0.0000
    82 B1       4.5230  10.4313  11.1338   B         1 RES1   0.0000
    83 B2       4.3046   9.6714   5.2437   B         1 RES1   0.0000
    84 C35      8.0889   8.0673   9.0313   C.ar      2 RES2   0.0000
    85 H31      7.3917   8.5861   9.3640   H         2 RES2   0.0000
    86 C36      8.8233   7.2263   9.8880   C.ar      2 RES2   0.0000
    87 H32      8.6006   7.1628  10.7887   H         2 RES2   0.0000
    88 C37      8.4150   8.1141   7.7024   C.ar      2 RES2   0.0000
    89 H33      7.9166   8.6432   7.1218   H         2 RES2   0.0000
    90 C38     10.1996   6.5775   8.0680   C.ar      2 RES2   0.0000
    91 H34     10.9178   6.0848   7.7432   H         2 RES2   0.0000
    92 C39      9.8666   6.5037   9.3859   C.ar      2 RES2   0.0000
    93 H35     10.3557   5.9527   9.9524   H         2 RES2   0.0000
    94 C40      9.4755   7.3791   7.2175   C.ar      2 RES2   0.0000
    95 H36      9.7035   7.4259   6.3169   H         2 RES2   0.0000
    96 C41     12.3768  22.8889  15.8315   C.ar      3 RES3   0.0000
    97 H37     11.6893  23.2028  15.2902   H         3 RES3   0.0000
    98 C42     12.5812  23.4440  17.0883   C.ar      3 RES3   0.0000
    99 H38     12.0287  24.1302  17.3896   H         3 RES3   0.0000
   100 C43     13.6096  22.9741  17.8979   C.ar      3 RES3   0.0000
   101 H39     13.7467  23.3463  18.7389   H         3 RES3   0.0000
   102 C44     14.4339  21.9491  17.4476   C.ar      3 RES3   0.0000
   103 H40     15.1227  21.6351  17.9889   H         3 RES3   0.0000
   104 C45     14.2295  21.3939  16.1908   C.ar      3 RES3   0.0000
   105 H41     14.7807  20.7078  15.8896   H         3 RES3   0.0000
   106 C46     13.2011  21.8638  15.3812   C.ar      3 RES3   0.0000
   107 H42     13.0653  21.4917  14.5402   H         3 RES3   0.0000
@<TRIPOS>BOND
     1     1    10    1
     2     2    82    1
     3     3    83    1
     4     4    10    1
     5     5    11    1
     6     6    12    1
     7     7    13    1
     8     8    14    1
     9     9    15    1
    10    10    19    2
    11    11     1    1
    12    12     1    1
    13    13     1    1
    14    14     1    1
    15    15     1    1
    16    16    19    1
    17    17    18    1
    18    19    20    1
    19    20    11    2
    20    21    12    2
    21    22    13    2
    22    23    14    2
    23    24    15    2
    24    25    21    1
    25    26    25   ar
    26    27    26    1
    27    28    26   ar
    28    29    28    1
    29    30    28   ar
    30    31    30    1
    31    32    30   ar
    32    33    32    1
    33    34    25   ar
    34    35    34    1
    35    36    22    1
    36    37    36   ar
    37    38    37    1
    38    39    37   ar
    39    40    39    1
    40    41    39   ar
    41    42    41    1
    42    43    41   ar
    43    44    43    1
    44    45    36   ar
    45    46    45    1
    46    47    23    1
    47    48    47   ar
    48    49    48    1
    49    50    48   ar
    50    51    50    1
    51    52    50   ar
    52    53    52    1
    53    54    52   ar
    54    55    54    1
    55    56    47   ar
    56    57    56    1
    57    58    24    1
    58    59    58   ar
    59    60    59    1
    60    61    59   ar
    61    62    61    1
    62    63    61   ar
    63    64    63    1
    64    65    63   ar
    65    66    65    1
    66    67    58   ar
    67    68    67    1
    68    69    16    1
    69    70    69    1
    70    71    69    1
    71    72    69    1
    72    73    72    1
    73    74    72    1
    74    75    17    1
    75    76    75    1
    76    77    75    1
    77    78    16    1
    78    79    78    1
    79    80    78    1
    80    81    78    1
    81    82     4    1
    82    83     5    1
    83     6    82    1
    84     7    83    1
    85     8    82    1
    86     9    83    1
    87    17    20    1
    88    21    22    1
    89    23    24    1
    90    32    34   ar
    91    43    45   ar
    92    54    56   ar
    93    65    67   ar
    94    72    75    1
    95    84    85    1
    96    86    84   ar
    97    87    86    1
    98    88    84   ar
    99    89    88    1
   100    90    91    1
   101    92    86   ar
   102    93    92    1
   103    94    88   ar
   104    95    94    1
   105    90    92   ar
   106    90    94   ar
   107    96    97    1
   108    98    96   ar
   109    99    98    1
   110   100    98   ar
   111   101   100    1
   112   102   100   ar
   113   103   102    1
   114   104   102   ar
   115   105   104    1
   116   106    96   ar
   117   107   106    1
   118   104   106   ar
@<TRIPOS>SUBSTRUCTURE
     1 RES1        1 GROUP             0 ****  ****    0  
     2 RES2       84 GROUP             0 ****  ****    0  
     3 RES3       96 GROUP             0 ****  ****    0  
@<TRIPOS>CRYSIN
   26.5124   10.3960   15.6903   90.0000   90.0000   90.0000    33     1
