@<TRIPOS>MOLECULE
EJONOG
    78    84     4     0     0
SMALL
USER_CHARGES
****
Generated from the CSD

@<TRIPOS>ATOM
     1 C1       3.8976   4.2638   1.9633   C.3       1 RES1   0.0000
     2 H1       4.6150   4.4004   2.6015   H         1 RES1   0.0000
     3 H2       3.4265   5.1039   1.8378   H         1 RES1   0.0000
     4 C2       4.4429   3.7356   0.6304   C.3       1 RES1   0.0000
     5 H3       5.4066   3.6378   0.6743   H         1 RES1   0.0000
     6 H4       4.2266   4.3474  -0.0910   H         1 RES1   0.0000
     7 C3       3.7732   2.3715   0.3952   C.3       1 RES1   0.0000
     8 H5       3.2459   2.3756  -0.4187   H         1 RES1   0.0000
     9 H6       4.4328   1.6619   0.3434   H         1 RES1   0.0000
    10 C4       2.9083   2.2206   1.5979   C.2       1 RES1   0.0000
    11 C5       2.0087   1.1419   1.9947   C.ar      1 RES1   0.0000
    12 C6       1.6659  -0.0204   1.3172   C.ar      1 RES1   0.0000
    13 H7       2.0368  -0.2223   0.4877   H         1 RES1   0.0000
    14 C7       0.7513  -0.8687   1.9225   C.ar      1 RES1   0.0000
    15 H8       0.5053  -1.6517   1.4882   H         1 RES1   0.0000
    16 C8       0.1954  -0.5771   3.1519   C.ar      1 RES1   0.0000
    17 H9      -0.4180  -1.1562   3.5455   H         1 RES1   0.0000
    18 C9       0.5698   0.5893   3.7839   C.ar      1 RES1   0.0000
    19 C10      0.1898   1.1521   5.0760   C.2       1 RES1   0.0000
    20 C11     -0.7185   0.6158   6.1392   C.3       1 RES1   0.0000
    21 H10     -0.3848  -0.2223   6.4999   H         1 RES1   0.0000
    22 H11     -1.6174   0.4792   5.8005   H         1 RES1   0.0000
    23 C12     -0.6810   1.7251   7.1836   C.3       1 RES1   0.0000
    24 H12     -0.4886   1.3560   8.0602   H         1 RES1   0.0000
    25 H13     -1.5351   2.1839   7.2212   H         1 RES1   0.0000
    26 C13      0.4273   2.6896   6.7539   C.3       1 RES1   0.0000
    27 H14      0.1166   3.6072   6.7790   H         1 RES1   0.0000
    28 H15      1.2048   2.6039   7.3279   H         1 RES1   0.0000
    29 C14     -0.7710   3.6704   2.5388   C.3       1 RES1   0.0000
    30 H16     -1.2869   3.0138   3.0343   H         1 RES1   0.0000
    31 H17     -0.5413   3.2993   1.6732   H         1 RES1   0.0000
    32 C15     -1.5492   4.9611   2.3836   C.3       1 RES1   0.0000
    33 H18     -2.3668   4.9285   2.9073   H         1 RES1   0.0000
    34 H19     -1.7832   5.1059   1.4537   H         1 RES1   0.0000
    35 C16     -0.6312   6.0867   2.8901   C.3       1 RES1   0.0000
    36 H20     -0.3183   6.6434   2.1609   H         1 RES1   0.0000
    37 H21     -1.0814   6.6434   3.5471   H         1 RES1   0.0000
    38 C17      0.4938   5.3098   3.5079   C.2       1 RES1   0.0000
    39 C18      1.6646   5.7686   4.2841   C.ar      1 RES1   0.0000
    40 C19      2.0849   7.0369   4.5883   C.ar      1 RES1   0.0000
    41 H22      1.5816   7.7812   4.3453   H         1 RES1   0.0000
    42 C20      3.2859   7.1776   5.2673   C.ar      1 RES1   0.0000
    43 H23      3.5915   8.0300   5.4806   H         1 RES1   0.0000
    44 C21      4.0462   6.0704   5.6406   C.ar      1 RES1   0.0000
    45 H24      4.8593   6.1744   6.0796   H         1 RES1   0.0000
    46 C22      3.5529   4.7980   5.3379   C.ar      1 RES1   0.0000
    47 C23      4.1115   3.4685   5.5559   C.2       1 RES1   0.0000
    48 C24      5.3285   3.0321   6.3007   C.3       1 RES1   0.0000
    49 H25      5.3231   3.3666   7.2102   H         1 RES1   0.0000
    50 H26      6.1379   3.3319   5.8570   H         1 RES1   0.0000
    51 C25      5.2177   1.5354   6.2725   C.3       1 RES1   0.0000
    52 H27      5.0884   1.1929   7.1710   H         1 RES1   0.0000
    53 H28      6.0289   1.1480   5.9087   H         1 RES1   0.0000
    54 C26      4.0064   1.1704   5.3834   C.3       1 RES1   0.0000
    55 H29      4.2874   0.6913   4.5883   H         1 RES1   0.0000
    56 H30      3.3661   0.6301   5.8695   H         1 RES1   0.0000
    57 N1       2.9747   3.2049   2.4243   N.2       1 RES1   0.0000
    58 N2       1.4706   1.4074   3.1817   N.ar      1 RES1   0.0000
    59 N3       0.7389   2.2754   5.3818   N.2       1 RES1   0.0000
    60 N4       0.4530   4.0523   3.2902   N.2       1 RES1   0.0000
    61 N5       2.3810   4.6948   4.6779   N.ar      1 RES1   0.0000
    62 N6       3.4375   2.4879   5.0379   N.2       1 RES1   0.0000
    63 Fe1      1.9003   3.0146   4.0177   Fe        1 RES1   3.0000
    64 O1       7.3599   0.9359   1.5587   O.3       2 RES2  -1.0000
    65 O2       7.0208  -0.0285   3.6992   O.2       2 RES2   0.0000
    66 O3       5.2542   0.0950   2.2079   O.2       2 RES2   0.0000
    67 O4       6.0970   2.0609   3.1394   O.2       2 RES2   0.0000
    68 Cl1      6.4528   0.7710   2.6279   Cl        2 RES2   0.0000
    69 O5      -1.7126   4.7531   5.7535   O.3       3 RES3  -1.0000
    70 O6      -1.0624   5.3588   7.9426   O.2       3 RES3   0.0000
    71 O7      -0.9532   6.9024   6.1596   O.2       3 RES3   0.0000
    72 O8      -3.0237   6.2315   7.0221   O.2       3 RES3   0.0000
    73 Cl2     -1.6875   5.8224   6.7437   Cl        3 RES3   0.0000
    74 O9       5.5542   6.7066   0.8280   O.3       4 RES4  -1.0000
    75 O10      5.6892   8.9496   1.3141   O.2       4 RES4   0.0000
    76 O11      5.8773   7.2612   3.0735   O.2       4 RES4   0.0000
    77 O12      3.9228   7.7955   2.1107   O.2       4 RES4   0.0000
    78 Cl3      5.3719   7.7131   1.8277   Cl        4 RES4   0.0000
@<TRIPOS>BOND
     1     1     2    1
     2     3     1    1
     3     4     1    1
     4     5     4    1
     5     6     4    1
     6     7     4    1
     7     8     7    1
     8     9     7    1
     9    10     7    1
    10    11    10    1
    11    12    11   ar
    12    13    12    1
    13    14    12   ar
    14    15    14    1
    15    16    14   ar
    16    17    16    1
    17    18    16   ar
    18    19    18    1
    19    20    19    1
    20    21    20    1
    21    22    20    1
    22    23    20    1
    23    24    23    1
    24    25    23    1
    25    26    23    1
    26    27    26    1
    27    28    26    1
    28    29    30    1
    29    31    29    1
    30    32    29    1
    31    33    32    1
    32    34    32    1
    33    35    32    1
    34    36    35    1
    35    37    35    1
    36    38    35    1
    37    39    38    1
    38    40    39   ar
    39    41    40    1
    40    42    40   ar
    41    43    42    1
    42    44    42   ar
    43    45    44    1
    44    46    44   ar
    45    47    46    1
    46    48    47    1
    47    49    48    1
    48    50    48    1
    49    51    48    1
    50    52    51    1
    51    53    51    1
    52    54    51    1
    53    55    54    1
    54    56    54    1
    55    57     1    1
    56    58    11   ar
    57    59    19    2
    58    60    29    1
    59    61    39   ar
    60    62    47    2
    61    63    57    1
    62    10    57    2
    63    18    58   ar
    64    26    59    1
    65    38    60    2
    66    46    61   ar
    67    54    62    1
    68    58    63    1
    69    59    63    1
    70    60    63    1
    71    61    63    1
    72    62    63    1
    73    64    68    1
    74    65    68    2
    75    66    68    2
    76    67    68    2
    77    69    73    1
    78    70    73    2
    79    71    73    2
    80    72    73    2
    81    74    78    1
    82    75    78    2
    83    76    78    2
    84    77    78    2
@<TRIPOS>SUBSTRUCTURE
     1 RES1        1 GROUP             0 ****  ****    0  
     2 RES2       64 GROUP             0 ****  ****    0  
     3 RES3       69 GROUP             0 ****  ****    0  
     4 RES4       74 GROUP             0 ****  ****    0  
@<TRIPOS>CRYSIN
    9.9390   20.3910   16.3760   90.0000  106.7490   90.0000    14     1
