@<TRIPOS>MOLECULE
EKABUO
    89    96     1     0     0
SMALL
NO_CHARGES
****
Generated from the CSD

@<TRIPOS>ATOM
     1 Fe1      0.0000   4.5030   0.0000   Fe        1 RES1   0.0000
     2 O1       1.7052   2.6424  -1.3531   O.3       1 RES1   0.0000
     3 O2       0.4249   5.6945   2.6177   O.3       1 RES1   0.0000
     4 O3       2.3880   5.5711  -4.6473   O.2       1 RES1   0.0000
     5 N1       1.5496   3.3980  -0.2601   N.2       1 RES1   0.0000
     6 N2       0.8917   4.8452   1.6386   N.2       1 RES1   0.0000
     7 N3       0.9884   6.0304  -0.8448   N.ar      1 RES1   0.0000
     8 N4       3.6723   7.4029  -4.6048   N.am      1 RES1   0.0000
     9 C1       2.4608   3.4331   0.6918   C.2       1 RES1   0.0000
    10 C2       2.0504   4.2869   1.8120   C.2       1 RES1   0.0000
    11 C3       1.5352   5.8998  -2.0619   C.ar      1 RES1   0.0000
    12 C4       2.2901   6.8905  -2.6806   C.ar      1 RES1   0.0000
    13 C5       2.4822   8.0865  -2.0194   C.ar      1 RES1   0.0000
    14 C6       1.8975   8.2504  -0.7717   C.ar      1 RES1   0.0000
    15 C7       1.1677   7.2147  -0.2227   C.ar      1 RES1   0.0000
    16 C8       2.8008   6.5708  -4.0626   C.2       1 RES1   0.0000
    17 C9       3.7559   2.7207   0.6578   C.ar      1 RES1   0.0000
    18 C10      4.2260   2.0218   1.7627   C.ar      1 RES1   0.0000
    19 C11      5.4673   1.4238   1.7423   C.ar      1 RES1   0.0000
    20 C12      6.2499   1.4860   0.6459   C.ar      1 RES1   0.0000
    21 C13      5.7961   2.1218  -0.4623   C.ar      1 RES1   0.0000
    22 C14      4.5500   2.7720  -0.4759   C.ar      1 RES1   0.0000
    23 C15      2.8770   4.4913   3.0291   C.ar      1 RES1   0.0000
    24 C16      2.4533   4.0446   4.2410   C.ar      1 RES1   0.0000
    25 C17      3.2883   4.1608   5.3510   C.ar      1 RES1   0.0000
    26 C18      4.4724   4.7372   5.2643   C.ar      1 RES1   0.0000
    27 C19      4.9114   5.1812   4.0609   C.ar      1 RES1   0.0000
    28 C20      4.1230   5.0443   2.9186   C.ar      1 RES1   0.0000
    29 H1      -0.3141   6.0335   2.3699   H         1 RES1   0.0000
    30 H2       0.7696   7.3429   0.6413   H         1 RES1   0.0000
    31 H3       1.9995   9.0771  -0.2942   H         1 RES1   0.0000
    32 H4       3.0073   8.7873  -2.4127   H         1 RES1   0.0000
    33 H5       1.3977   5.0750  -2.5334   H         1 RES1   0.0000
    34 H6       3.9415   8.1317  -4.1504   H         1 RES1   0.0000
    35 H7       3.9968   7.2410  -5.4285   H         1 RES1   0.0000
    36 H8       4.2543   3.2439  -1.2580   H         1 RES1   0.0000
    37 H9       6.3376   2.1280  -1.2550   H         1 RES1   0.0000
    38 H10      7.1213   1.0833   0.6500   H         1 RES1   0.0000
    39 H11      5.7797   0.9561   2.5203   H         1 RES1   0.0000
    40 H12      3.6797   1.9548   2.5494   H         1 RES1   0.0000
    41 H13      1.5825   3.6508   4.3320   H         1 RES1   0.0000
    42 H14      2.9958   3.8140   6.1970   H         1 RES1   0.0000
    43 H15      5.0183   4.8412   6.0471   H         1 RES1   0.0000
    44 H16      5.7751   5.5947   3.9942   H         1 RES1   0.0000
    45 H17      4.4512   5.3349   2.0644   H         1 RES1   0.0000
    46 O1B     -1.7052   6.3636   1.3531   O.3       1 RES1   0.0000
    47 O2B     -0.4249   3.3115  -2.6177   O.3       1 RES1   0.0000
    48 O3B     -2.3880   3.4349   4.6473   O.2       1 RES1   0.0000
    49 N1B     -1.5496   5.6080   0.2601   N.2       1 RES1   0.0000
    50 N2B     -0.8917   4.1608  -1.6386   N.2       1 RES1   0.0000
    51 N3B     -0.9884   2.9756   0.8448   N.ar      1 RES1   0.0000
    52 N4B     -3.6723   1.6031   4.6048   N.am      1 RES1   0.0000
    53 C1B     -2.4608   5.5729  -0.6918   C.2       1 RES1   0.0000
    54 C2B     -2.0504   4.7191  -1.8120   C.2       1 RES1   0.0000
    55 C3B     -1.5352   3.1062   2.0619   C.ar      1 RES1   0.0000
    56 C4B     -2.2901   2.1155   2.6806   C.ar      1 RES1   0.0000
    57 C5B     -2.4822   0.9195   2.0194   C.ar      1 RES1   0.0000
    58 C6B     -1.8975   0.7556   0.7717   C.ar      1 RES1   0.0000
    59 C7B     -1.1677   1.7913   0.2227   C.ar      1 RES1   0.0000
    60 C8B     -2.8008   2.4352   4.0626   C.2       1 RES1   0.0000
    61 C9B     -3.7559   6.2853  -0.6578   C.ar      1 RES1   0.0000
    62 C10B    -4.2260   6.9842  -1.7627   C.ar      1 RES1   0.0000
    63 C11B    -5.4673   7.5822  -1.7423   C.ar      1 RES1   0.0000
    64 C12B    -6.2499   7.5200  -0.6459   C.ar      1 RES1   0.0000
    65 C13B    -5.7961   6.8842   0.4623   C.ar      1 RES1   0.0000
    66 C14B    -4.5500   6.2340   0.4759   C.ar      1 RES1   0.0000
    67 C15B    -2.8770   4.5147  -3.0291   C.ar      1 RES1   0.0000
    68 C16B    -2.4533   4.9614  -4.2410   C.ar      1 RES1   0.0000
    69 C17B    -3.2883   4.8452  -5.3510   C.ar      1 RES1   0.0000
    70 C18B    -4.4724   4.2688  -5.2643   C.ar      1 RES1   0.0000
    71 C19B    -4.9114   3.8248  -4.0609   C.ar      1 RES1   0.0000
    72 C20B    -4.1230   3.9617  -2.9186   C.ar      1 RES1   0.0000
    73 H1B      0.3141   2.9725  -2.3699   H         1 RES1   0.0000
    74 H2B     -0.7696   1.6631  -0.6413   H         1 RES1   0.0000
    75 H3B     -1.9995  -0.0711   0.2942   H         1 RES1   0.0000
    76 H4B     -3.0073   0.2187   2.4127   H         1 RES1   0.0000
    77 H5B     -1.3977   3.9310   2.5334   H         1 RES1   0.0000
    78 H6B     -3.9415   0.8743   4.1504   H         1 RES1   0.0000
    79 H7B     -3.9968   1.7650   5.4285   H         1 RES1   0.0000
    80 H8B     -4.2543   5.7621   1.2580   H         1 RES1   0.0000
    81 H9B     -6.3376   6.8780   1.2550   H         1 RES1   0.0000
    82 H10B    -7.1213   7.9227  -0.6500   H         1 RES1   0.0000
    83 H11B    -5.7797   8.0499  -2.5203   H         1 RES1   0.0000
    84 H12B    -3.6797   7.0512  -2.5494   H         1 RES1   0.0000
    85 H13B    -1.5825   5.3552  -4.3320   H         1 RES1   0.0000
    86 H14B    -2.9958   5.1920  -6.1970   H         1 RES1   0.0000
    87 H15B    -5.0183   4.1648  -6.0471   H         1 RES1   0.0000
    88 H16B    -5.7751   3.4113  -3.9942   H         1 RES1   0.0000
    89 H17B    -4.4512   3.6711  -2.0644   H         1 RES1   0.0000
@<TRIPOS>BOND
     1     1     5    1
     2     2     5    1
     3     3     6    1
     4     4    16    2
     5     5     9    2
     6     6     1    1
     7     7     1    1
     8     8    16   am
     9     9    10    1
    10    10     6    2
    11    11     7   ar
    12    12    11   ar
    13    13    12   ar
    14    14    13   ar
    15    15     7   ar
    16    16    12    1
    17    17     9    1
    18    18    17   ar
    19    19    18   ar
    20    20    19   ar
    21    21    20   ar
    22    22    17   ar
    23    23    10    1
    24    24    23   ar
    25    25    24   ar
    26    26    25   ar
    27    27    26   ar
    28    28    23   ar
    29    29     3    1
    30    30    15    1
    31    31    14    1
    32    32    13    1
    33    33    11    1
    34    34     8    1
    35    35     8    1
    36    36    22    1
    37    37    21    1
    38    38    20    1
    39    39    19    1
    40    40    18    1
    41    41    24    1
    42    42    25    1
    43    43    26    1
    44    44    27    1
    45    45    28    1
    46    46    49    1
    47    47    50    1
    48    48    60    2
    49    49     1    1
    50    50     1    1
    51    51     1    1
    52    52    60   am
    53    53    49    2
    54    54    50    2
    55    55    51   ar
    56    56    55   ar
    57    57    56   ar
    58    58    57   ar
    59    59    51   ar
    60    60    56    1
    61    61    53    1
    62    62    61   ar
    63    63    62   ar
    64    64    63   ar
    65    65    64   ar
    66    66    61   ar
    67    67    54    1
    68    68    67   ar
    69    69    68   ar
    70    70    69   ar
    71    71    70   ar
    72    72    67   ar
    73    73    47    1
    74    74    59    1
    75    75    58    1
    76    76    57    1
    77    77    55    1
    78    78    52    1
    79    79    52    1
    80    80    66    1
    81    81    65    1
    82    82    64    1
    83    83    63    1
    84    84    62    1
    85    85    68    1
    86    86    69    1
    87    87    70    1
    88    88    71    1
    89    89    72    1
    90    14    15   ar
    91    21    22   ar
    92    27    28   ar
    93    53    54    1
    94    58    59   ar
    95    65    66   ar
    96    71    72   ar
@<TRIPOS>SUBSTRUCTURE
     1 RES1        1 GROUP             0 ****  ****    0  
@<TRIPOS>CRYSIN
   12.2627    9.0060   17.0504   90.0000   94.4870   90.0000   231     1
