@<TRIPOS>MOLECULE
EKACAV01
    99   106     1     0     0
SMALL
NO_CHARGES
****
Generated from the CSD

@<TRIPOS>ATOM
     1 Fe1      0.0000   0.0000   0.0000   Fe        1 RES1   0.0000
     2 N1       1.2304  -0.0069  -1.4530   N.2       1 RES1   0.0000
     3 C1       1.0651  -0.9132  -2.3814   C.2       1 RES1   0.0000
     4 C2      -0.0603  -1.8147  -2.0708   C.2       1 RES1   0.0000
     5 N2      -0.6443  -1.5255  -0.9369   N.2       1 RES1   0.0000
     6 O1       2.2583   0.8925  -1.5591   O.3       1 RES1   0.0000
     7 H1       2.1652   1.4421  -0.7170   H         1 RES1   0.0000
     8 O2      -1.7202  -2.2180  -0.5241   O.3       1 RES1   0.0000
     9 N3      -1.2127   1.1531  -1.1154   N.ar      1 RES1   0.0000
    10 C3      -0.8232   2.3759  -1.5017   C.ar      1 RES1   0.0000
    11 H2      -0.0077   2.6960  -1.1884   H         1 RES1   0.0000
    12 C4      -1.5604   3.1851  -2.3354   C.ar      1 RES1   0.0000
    13 H3      -1.2490   4.0303  -2.5636   H         1 RES1   0.0000
    14 C5      -2.7631   2.7303  -2.8267   C.ar      1 RES1   0.0000
    15 C6      -3.1928   1.4773  -2.4297   C.ar      1 RES1   0.0000
    16 H4      -4.0047   1.1403  -2.7341   H         1 RES1   0.0000
    17 C7      -2.4060   0.7326  -1.5790   C.ar      1 RES1   0.0000
    18 H5      -2.7140  -0.1038  -1.3112   H         1 RES1   0.0000
    19 C8      -3.6038   3.5354  -3.7703   C.2       1 RES1   0.0000
    20 O3      -3.2436   4.8031  -3.7731   O.3       1 RES1   0.0000
    21 C9      -3.9885   5.7222  -4.6270   C.3       1 RES1   0.0000
    22 H6      -4.6777   5.2314  -5.1021   H         1 RES1   0.0000
    23 H7      -4.4245   6.3894  -4.0741   H         1 RES1   0.0000
    24 C10     -3.1601   6.3580  -5.5483   C.3       1 RES1   0.0000
    25 H8      -3.6823   6.9537  -6.0899   H         1 RES1   0.0000
    26 H9      -2.7408   5.7017  -6.1087   H         1 RES1   0.0000
    27 H10     -2.4857   6.8577  -5.0820   H         1 RES1   0.0000
    28 O4      -4.4854   3.0734  -4.4248   O.2       1 RES1   0.0000
    29 C11     -0.5268  -2.9014  -2.9611   C.ar      1 RES1   0.0000
    30 C12     -0.6019  -4.2059  -2.5034   C.ar      1 RES1   0.0000
    31 H11     -0.3564  -4.4085  -1.6297   H         1 RES1   0.0000
    32 C13     -1.0461  -5.2142  -3.3533   C.ar      1 RES1   0.0000
    33 H12     -1.0911  -6.0916  -3.0475   H         1 RES1   0.0000
    34 C14     -1.4168  -4.9203  -4.6332   C.ar      1 RES1   0.0000
    35 H13     -1.7199  -5.5958  -5.1961   H         1 RES1   0.0000
    36 C15     -1.3426  -3.6385  -5.0895   C.ar      1 RES1   0.0000
    37 H14     -1.5897  -3.4445  -5.9658   H         1 RES1   0.0000
    38 C16     -0.9025  -2.6235  -4.2622   C.ar      1 RES1   0.0000
    39 H15     -0.8589  -1.7516  -4.5818   H         1 RES1   0.0000
    40 C17      1.8987  -1.0173  -3.5998   C.ar      1 RES1   0.0000
    41 C18      2.3824  -2.2483  -4.0202   C.ar      1 RES1   0.0000
    42 H16      2.1867  -3.0134  -3.5301   H         1 RES1   0.0000
    43 C19      3.1579  -2.3414  -5.1698   C.ar      1 RES1   0.0000
    44 H17      3.4863  -3.1682  -5.4418   H         1 RES1   0.0000
    45 C20      3.4405  -1.2246  -5.9019   C.ar      1 RES1   0.0000
    46 H18      3.9485  -1.2951  -6.6778   H         1 RES1   0.0000
    47 C21      2.9800  -0.0082  -5.4995   C.ar      1 RES1   0.0000
    48 H19      3.1833   0.7524  -5.9959   H         1 RES1   0.0000
    49 C22      2.2062   0.1021  -4.3487   C.ar      1 RES1   0.0000
    50 H20      1.8938   0.9366  -4.0817   H         1 RES1   0.0000
    51 N1B     -1.2304   0.0069   1.4530   N.2       1 RES1   0.0000
    52 C1B     -1.0651   0.9132   2.3814   C.2       1 RES1   0.0000
    53 C2B      0.0603   1.8147   2.0708   C.2       1 RES1   0.0000
    54 N2B      0.6443   1.5255   0.9369   N.2       1 RES1   0.0000
    55 O1B     -2.2583  -0.8925   1.5591   O.3       1 RES1   0.0000
    56 H1B     -2.1652  -1.4421   0.7170   H         1 RES1   0.0000
    57 O2B      1.7202   2.2180   0.5241   O.3       1 RES1   0.0000
    58 N3B      1.2127  -1.1531   1.1154   N.ar      1 RES1   0.0000
    59 C3B      0.8232  -2.3759   1.5017   C.ar      1 RES1   0.0000
    60 H2B      0.0077  -2.6960   1.1884   H         1 RES1   0.0000
    61 C4B      1.5604  -3.1851   2.3354   C.ar      1 RES1   0.0000
    62 H3B      1.2490  -4.0303   2.5636   H         1 RES1   0.0000
    63 C5B      2.7631  -2.7303   2.8267   C.ar      1 RES1   0.0000
    64 C6B      3.1928  -1.4773   2.4297   C.ar      1 RES1   0.0000
    65 H4B      4.0047  -1.1403   2.7341   H         1 RES1   0.0000
    66 C7B      2.4060  -0.7326   1.5790   C.ar      1 RES1   0.0000
    67 H5B      2.7140   0.1038   1.3112   H         1 RES1   0.0000
    68 C8B      3.6038  -3.5354   3.7703   C.2       1 RES1   0.0000
    69 O3B      3.2436  -4.8031   3.7731   O.3       1 RES1   0.0000
    70 C9B      3.9885  -5.7222   4.6270   C.3       1 RES1   0.0000
    71 H6B      4.6777  -5.2314   5.1021   H         1 RES1   0.0000
    72 H7B      4.4245  -6.3894   4.0741   H         1 RES1   0.0000
    73 C10B     3.1601  -6.3580   5.5483   C.3       1 RES1   0.0000
    74 H8B      3.6823  -6.9537   6.0899   H         1 RES1   0.0000
    75 H9B      2.7408  -5.7017   6.1087   H         1 RES1   0.0000
    76 H10B     2.4857  -6.8577   5.0820   H         1 RES1   0.0000
    77 O4B      4.4854  -3.0734   4.4248   O.2       1 RES1   0.0000
    78 C11B     0.5268   2.9014   2.9611   C.ar      1 RES1   0.0000
    79 C12B     0.6019   4.2059   2.5034   C.ar      1 RES1   0.0000
    80 H11B     0.3564   4.4085   1.6297   H         1 RES1   0.0000
    81 C13B     1.0461   5.2142   3.3533   C.ar      1 RES1   0.0000
    82 H12B     1.0911   6.0916   3.0475   H         1 RES1   0.0000
    83 C14B     1.4168   4.9203   4.6332   C.ar      1 RES1   0.0000
    84 H13B     1.7199   5.5958   5.1961   H         1 RES1   0.0000
    85 C15B     1.3426   3.6385   5.0895   C.ar      1 RES1   0.0000
    86 H14B     1.5897   3.4445   5.9658   H         1 RES1   0.0000
    87 C16B     0.9025   2.6235   4.2622   C.ar      1 RES1   0.0000
    88 H15B     0.8589   1.7516   4.5818   H         1 RES1   0.0000
    89 C17B    -1.8987   1.0173   3.5998   C.ar      1 RES1   0.0000
    90 C18B    -2.3824   2.2483   4.0202   C.ar      1 RES1   0.0000
    91 H16B    -2.1867   3.0134   3.5301   H         1 RES1   0.0000
    92 C19B    -3.1579   2.3414   5.1698   C.ar      1 RES1   0.0000
    93 H17B    -3.4863   3.1682   5.4418   H         1 RES1   0.0000
    94 C20B    -3.4405   1.2246   5.9019   C.ar      1 RES1   0.0000
    95 H18B    -3.9485   1.2951   6.6778   H         1 RES1   0.0000
    96 C21B    -2.9800   0.0082   5.4995   C.ar      1 RES1   0.0000
    97 H19B    -3.1833  -0.7524   5.9959   H         1 RES1   0.0000
    98 C22B    -2.2062  -0.1021   4.3487   C.ar      1 RES1   0.0000
    99 H20B    -1.8938  -0.9366   4.0817   H         1 RES1   0.0000
@<TRIPOS>BOND
     1     1     2    1
     2     2     3    2
     3     3     4    1
     4     4     5    2
     5     5     1    1
     6     6     2    1
     7     7     6    1
     8     8     5    1
     9     9     1    1
    10    10     9   ar
    11    11    10    1
    12    12    10   ar
    13    13    12    1
    14    14    12   ar
    15    15    14   ar
    16    16    15    1
    17    17     9   ar
    18    18    17    1
    19    19    14    1
    20    20    19    1
    21    21    20    1
    22    22    21    1
    23    23    21    1
    24    24    21    1
    25    25    24    1
    26    26    24    1
    27    27    24    1
    28    28    19    2
    29    29     4    1
    30    30    29   ar
    31    31    30    1
    32    32    30   ar
    33    33    32    1
    34    34    32   ar
    35    35    34    1
    36    36    34   ar
    37    37    36    1
    38    38    29   ar
    39    39    38    1
    40    40     3    1
    41    41    40   ar
    42    42    41    1
    43    43    41   ar
    44    44    43    1
    45    45    43   ar
    46    46    45    1
    47    47    45   ar
    48    48    47    1
    49    49    40   ar
    50    50    49    1
    51    51     1    1
    52    52    51    2
    53    53    52    1
    54    54     1    1
    55    55    51    1
    56    56    55    1
    57    57    54    1
    58    58     1    1
    59    59    58   ar
    60    60    59    1
    61    61    59   ar
    62    62    61    1
    63    63    61   ar
    64    64    63   ar
    65    65    64    1
    66    66    58   ar
    67    67    66    1
    68    68    63    1
    69    69    68    1
    70    70    69    1
    71    71    70    1
    72    72    70    1
    73    73    70    1
    74    74    73    1
    75    75    73    1
    76    76    73    1
    77    77    68    2
    78    78    53    1
    79    79    78   ar
    80    80    79    1
    81    81    79   ar
    82    82    81    1
    83    83    81   ar
    84    84    83    1
    85    85    83   ar
    86    86    85    1
    87    87    78   ar
    88    88    87    1
    89    89    52    1
    90    90    89   ar
    91    91    90    1
    92    92    90   ar
    93    93    92    1
    94    94    92   ar
    95    95    94    1
    96    96    94   ar
    97    97    96    1
    98    98    89   ar
    99    99    98    1
   100    15    17   ar
   101    36    38   ar
   102    47    49   ar
   103    53    54    2
   104    64    66   ar
   105    85    87   ar
   106    96    98   ar
@<TRIPOS>SUBSTRUCTURE
     1 RES1        1 GROUP             0 ****  ****    0  
@<TRIPOS>CRYSIN
    8.6543   19.5933   12.5869   90.0000   95.1650   90.0000    14     1
