@<TRIPOS>MOLECULE
EKACAV
    99   106     1     0     0
SMALL
NO_CHARGES
****
Generated from the CSD

@<TRIPOS>ATOM
     1 Fe1      4.3100   0.0000   0.0000   Fe        1 RES1   0.0000
     2 O1       2.5932  -2.2155  -0.5440   O.3       1 RES1   0.0000
     3 O2       6.5689   0.9158  -1.5580   O.3       1 RES1   0.0000
     4 H1       6.5400   1.4365  -0.9260   H         1 RES1   0.0000
     5 O3       8.7995  -3.1180   4.4048   O.2       1 RES1   0.0000
     6 O4       7.6165  -4.8764   3.6046   O.3       1 RES1   0.0000
     7 N1       3.6695  -1.5222  -0.9464   N.2       1 RES1   0.0000
     8 N2       5.5441   0.0119  -1.4523   N.2       1 RES1   0.0000
     9 N3       5.5253  -1.1568   1.1010   N.ar      1 RES1   0.0000
    10 C1       4.2644  -1.8060  -2.0872   C.2       1 RES1   0.0000
    11 C2       3.7981  -2.8855  -2.9831   C.ar      1 RES1   0.0000
    12 C3       3.4514  -2.5918  -4.3043   C.ar      1 RES1   0.0000
    13 H2       3.5326  -1.7215  -4.6225   H         1 RES1   0.0000
    14 C4       2.9853  -3.5952  -5.1421   C.ar      1 RES1   0.0000
    15 H3       2.7431  -3.3922  -6.0171   H         1 RES1   0.0000
    16 C5       2.8807  -4.8947  -4.6810   C.ar      1 RES1   0.0000
    17 H4       2.5726  -5.5646  -5.2465   H         1 RES1   0.0000
    18 C6       3.2338  -5.2000  -3.3746   C.ar      1 RES1   0.0000
    19 H5       3.1665  -6.0760  -3.0676   H         1 RES1   0.0000
    20 C7       3.6893  -4.1993  -2.5232   C.ar      1 RES1   0.0000
    21 H6       3.9211  -4.4052  -1.6469   H         1 RES1   0.0000
    22 C8       5.3869  -0.8943  -2.3847   C.2       1 RES1   0.0000
    23 C9       6.2286  -1.0075  -3.6010   C.ar      1 RES1   0.0000
    24 C10      6.7059  -2.2489  -4.0147   C.ar      1 RES1   0.0000
    25 H7       6.5062  -3.0097  -3.5200   H         1 RES1   0.0000
    26 C11      7.4793  -2.3552  -5.1669   C.ar      1 RES1   0.0000
    27 H8       7.8017  -3.1853  -5.4317   H         1 RES1   0.0000
    28 C12      7.7707  -1.2302  -5.9214   C.ar      1 RES1   0.0000
    29 H9       8.2786  -1.3058  -6.6970   H         1 RES1   0.0000
    30 C13      7.3008   0.0076  -5.5125   C.ar      1 RES1   0.0000
    31 H10      7.4978   0.7632  -6.0171   H         1 RES1   0.0000
    32 C14      6.5366   0.1314  -4.3569   C.ar      1 RES1   0.0000
    33 H11      6.2319   0.9681  -4.0868   H         1 RES1   0.0000
    34 C15      6.7138  -0.7224   1.5819   C.ar      1 RES1   0.0000
    35 H12      7.0086   0.1249   1.3374   H         1 RES1   0.0000
    36 C16      7.5129  -1.4851   2.4260   C.ar      1 RES1   0.0000
    37 H13      8.3155  -1.1457   2.7506   H         1 RES1   0.0000
    38 C17      7.0938  -2.7581   2.7743   C.ar      1 RES1   0.0000
    39 C18      5.8902  -3.2257   2.2674   C.ar      1 RES1   0.0000
    40 H14      5.5926  -4.0832   2.4735   H         1 RES1   0.0000
    41 C19      5.1396  -2.4009   1.4515   C.ar      1 RES1   0.0000
    42 H15      4.3283  -2.7189   1.1274   H         1 RES1   0.0000
    43 C20      7.9380  -3.5862   3.6962   C.2       1 RES1   0.0000
    44 C21      8.3756  -5.8376   4.4125   C.3       1 RES1   0.0000
    45 H16      9.1723  -5.4123   4.7667   H         1 RES1   0.0000
    46 H17      8.6516  -6.5854   3.8606   H         1 RES1   0.0000
    47 C22      7.5311  -6.3170   5.5187   C.3       1 RES1   0.0000
    48 H18      8.0259  -6.9465   6.0482   H         1 RES1   0.0000
    49 H19      6.7484  -6.7435   5.1620   H         1 RES1   0.0000
    50 H20      7.2693  -5.5743   6.0656   H         1 RES1   0.0000
    51 O1B      6.0268   2.2155   0.5440   O.3       1 RES1   0.0000
    52 O2B      2.0511  -0.9158   1.5580   O.3       1 RES1   0.0000
    53 H1B      2.0800  -1.4365   0.9260   H         1 RES1   0.0000
    54 O3B     -0.1795   3.1180  -4.4048   O.2       1 RES1   0.0000
    55 O4B      1.0035   4.8764  -3.6046   O.3       1 RES1   0.0000
    56 N1B      4.9505   1.5222   0.9464   N.2       1 RES1   0.0000
    57 N2B      3.0759  -0.0119   1.4523   N.2       1 RES1   0.0000
    58 N3B      3.0947   1.1568  -1.1010   N.ar      1 RES1   0.0000
    59 C1B      4.3556   1.8060   2.0872   C.2       1 RES1   0.0000
    60 C2B      4.8219   2.8855   2.9831   C.ar      1 RES1   0.0000
    61 C3B      5.1686   2.5918   4.3043   C.ar      1 RES1   0.0000
    62 H2B      5.0874   1.7215   4.6225   H         1 RES1   0.0000
    63 C4B      5.6347   3.5952   5.1421   C.ar      1 RES1   0.0000
    64 H3B      5.8769   3.3922   6.0171   H         1 RES1   0.0000
    65 C5B      5.7393   4.8947   4.6810   C.ar      1 RES1   0.0000
    66 H4B      6.0474   5.5646   5.2465   H         1 RES1   0.0000
    67 C6B      5.3862   5.2000   3.3746   C.ar      1 RES1   0.0000
    68 H5B      5.4535   6.0760   3.0676   H         1 RES1   0.0000
    69 C7B      4.9307   4.1993   2.5232   C.ar      1 RES1   0.0000
    70 H6B      4.6989   4.4052   1.6469   H         1 RES1   0.0000
    71 C8B      3.2331   0.8943   2.3847   C.2       1 RES1   0.0000
    72 C9B      2.3914   1.0075   3.6010   C.ar      1 RES1   0.0000
    73 C10B     1.9141   2.2489   4.0147   C.ar      1 RES1   0.0000
    74 H7B      2.1138   3.0097   3.5200   H         1 RES1   0.0000
    75 C11B     1.1407   2.3552   5.1669   C.ar      1 RES1   0.0000
    76 H8B      0.8183   3.1853   5.4317   H         1 RES1   0.0000
    77 C12B     0.8493   1.2302   5.9214   C.ar      1 RES1   0.0000
    78 H9B      0.3414   1.3058   6.6970   H         1 RES1   0.0000
    79 C13B     1.3192  -0.0076   5.5125   C.ar      1 RES1   0.0000
    80 H10B     1.1222  -0.7632   6.0171   H         1 RES1   0.0000
    81 C14B     2.0834  -0.1314   4.3569   C.ar      1 RES1   0.0000
    82 H11B     2.3881  -0.9681   4.0868   H         1 RES1   0.0000
    83 C15B     1.9062   0.7224  -1.5819   C.ar      1 RES1   0.0000
    84 H12B     1.6114  -0.1249  -1.3374   H         1 RES1   0.0000
    85 C16B     1.1071   1.4851  -2.4260   C.ar      1 RES1   0.0000
    86 H13B     0.3045   1.1457  -2.7506   H         1 RES1   0.0000
    87 C17B     1.5262   2.7581  -2.7743   C.ar      1 RES1   0.0000
    88 C18B     2.7298   3.2257  -2.2674   C.ar      1 RES1   0.0000
    89 H14B     3.0274   4.0832  -2.4735   H         1 RES1   0.0000
    90 C19B     3.4804   2.4009  -1.4515   C.ar      1 RES1   0.0000
    91 H15B     4.2917   2.7189  -1.1274   H         1 RES1   0.0000
    92 C20B     0.6820   3.5862  -3.6962   C.2       1 RES1   0.0000
    93 C21B     0.2444   5.8376  -4.4125   C.3       1 RES1   0.0000
    94 H16B    -0.5523   5.4123  -4.7667   H         1 RES1   0.0000
    95 H17B    -0.0316   6.5854  -3.8606   H         1 RES1   0.0000
    96 C22B     1.0889   6.3170  -5.5187   C.3       1 RES1   0.0000
    97 H18B     0.5941   6.9465  -6.0482   H         1 RES1   0.0000
    98 H19B     1.8716   6.7435  -5.1620   H         1 RES1   0.0000
    99 H20B     1.3507   5.5743  -6.0656   H         1 RES1   0.0000
@<TRIPOS>BOND
     1     1     7    1
     2     2     7    1
     3     3     4    1
     4     5    43    2
     5     6    43    1
     6     7    10    2
     7     8     1    1
     8     9     1    1
     9    10    11    1
    10    11    12   ar
    11    12    13    1
    12    14    12   ar
    13    15    14    1
    14    16    14   ar
    15    17    16    1
    16    18    16   ar
    17    19    18    1
    18    20    11   ar
    19    21    20    1
    20    22     8    2
    21    23    22    1
    22    24    23   ar
    23    25    24    1
    24    26    24   ar
    25    27    26    1
    26    28    26   ar
    27    29    28    1
    28    30    28   ar
    29    31    30    1
    30    32    23   ar
    31    33    32    1
    32    34     9   ar
    33    35    34    1
    34    36    34   ar
    35    37    36    1
    36    38    36   ar
    37    39    38   ar
    38    40    39    1
    39    41     9   ar
    40    42    41    1
    41    43    38    1
    42    44     6    1
    43    45    44    1
    44    46    44    1
    45    47    44    1
    46    48    47    1
    47    49    47    1
    48    50    47    1
    49    51    56    1
    50    52    53    1
    51    54    92    2
    52    55    92    1
    53    56     1    1
    54    57     1    1
    55    58     1    1
    56    59    56    2
    57    60    59    1
    58    61    60   ar
    59    62    61    1
    60    63    61   ar
    61    64    63    1
    62    65    63   ar
    63    66    65    1
    64    67    65   ar
    65    68    67    1
    66    69    60   ar
    67    70    69    1
    68    71    57    2
    69    72    71    1
    70    73    72   ar
    71    74    73    1
    72    75    73   ar
    73    76    75    1
    74    77    75   ar
    75    78    77    1
    76    79    77   ar
    77    80    79    1
    78    81    72   ar
    79    82    81    1
    80    83    58   ar
    81    84    83    1
    82    85    83   ar
    83    86    85    1
    84    87    85   ar
    85    88    87   ar
    86    89    88    1
    87    90    58   ar
    88    91    90    1
    89    92    87    1
    90    93    55    1
    91    94    93    1
    92    95    93    1
    93    96    93    1
    94    97    96    1
    95    98    96    1
    96    99    96    1
    97     3     8    1
    98    10    22    1
    99    18    20   ar
   100    30    32   ar
   101    39    41   ar
   102    52    57    1
   103    59    71    1
   104    67    69   ar
   105    79    81   ar
   106    88    90   ar
@<TRIPOS>SUBSTRUCTURE
     1 RES1        1 GROUP             0 ****  ****    0  
@<TRIPOS>CRYSIN
    8.6200   19.5180   12.4740   90.0000   94.8410   90.0000    14     1
