@<TRIPOS>MOLECULE
EKETOE
   115   127     4     0     0
SMALL
NO_CHARGES
****
Generated from the CSD

@<TRIPOS>ATOM
     1 Fe1     -7.7314  -3.6845  -3.8324   Fe        1 RES1   0.0000
     2 S1      -9.5387  -3.9242   0.2028   S.3       1 RES1   0.0000
     3 S2      -5.9760  -3.6631   0.2140   S.3       1 RES1   0.0000
     4 B1     -10.6889  -3.5591  -3.8527   B         1 RES1   0.0000
     5 B2      -4.7439  -3.8025  -3.7691   B         1 RES1   0.0000
     6 F1     -12.0451  -3.5038  -3.8457   F         1 RES1   0.0000
     7 F2      -3.4093  -3.8599  -3.7424   F         1 RES1   0.0000
     8 N1      -8.9353  -3.9868  -2.3621   N.2       1 RES1   0.0000
     9 N2      -6.5883  -3.4218  -2.3479   N.2       1 RES1   0.0000
    10 N3      -8.8247  -2.1821  -4.2671   N.2       1 RES1   0.0000
    11 N4      -6.4929  -2.6324  -4.8381   N.2       1 RES1   0.0000
    12 N5      -8.9329  -4.7467  -4.8647   N.2       1 RES1   0.0000
    13 N6      -6.6216  -5.1883  -4.2511   N.2       1 RES1   0.0000
    14 O1     -10.2652  -4.0670  -2.4918   O.3       1 RES1   0.0000
    15 O2      -5.2336  -3.3234  -2.4439   O.3       1 RES1   0.0000
    16 O3     -10.1501  -2.1894  -4.0839   O.3       1 RES1   0.0000
    17 O4      -5.1692  -2.8845  -4.8505   O.3       1 RES1   0.0000
    18 O5     -10.2659  -4.4820  -4.9074   O.3       1 RES1   0.0000
    19 O6      -5.2825  -5.1893  -4.0288   O.3       1 RES1   0.0000
    20 C1      -8.4497  -3.8617  -1.1437   C.2       1 RES1   0.0000
    21 C2      -7.0470  -3.6200  -1.1401   C.2       1 RES1   0.0000
    22 C3      -8.3089  -1.2345  -5.0408   C.2       1 RES1   0.0000
    23 C4      -6.8876  -1.4518  -5.2596   C.2       1 RES1   0.0000
    24 C5      -8.5209  -5.9429  -5.2578   C.2       1 RES1   0.0000
    25 C6      -7.1044  -6.1167  -5.0337   C.2       1 RES1   0.0000
    26 C7      -8.4460  -3.9103   1.6115   C.ar      1 RES1   0.0000
    27 C8      -9.1184  -4.0216   2.8139   C.ar      1 RES1   0.0000
    28 H1     -10.0489  -4.0529   2.8281   H         1 RES1   0.0000
    29 C9      -8.4128  -4.0894   3.9914   C.ar      1 RES1   0.0000
    30 H2      -8.8652  -4.2111   4.7936   H         1 RES1   0.0000
    31 C10     -7.0736  -3.9781   3.9896   C.ar      1 RES1   0.0000
    32 H3      -6.6048  -4.0025   4.7936   H         1 RES1   0.0000
    33 C11     -6.3935  -3.8321   2.7961   C.ar      1 RES1   0.0000
    34 H4      -5.4662  -3.7539   2.8032   H         1 RES1   0.0000
    35 C12     -7.0697  -3.7991   1.5937   C.ar      1 RES1   0.0000
    36 C13     -9.0596  -0.1088  -5.6186   C.ar      1 RES1   0.0000
    37 C14     -9.9547   0.6019  -4.8272   C.ar      1 RES1   0.0000
    38 H5     -10.1222   0.3286  -3.9540   H         1 RES1   0.0000
    39 C15    -10.5970   1.7220  -5.3397   C.ar      1 RES1   0.0000
    40 H6     -11.1964   2.1977  -4.8114   H         1 RES1   0.0000
    41 C16    -10.3457   2.1313  -6.6452   C.ar      1 RES1   0.0000
    42 H7     -10.7776   2.8810  -6.9885   H         1 RES1   0.0000
    43 C17     -9.4521   1.4205  -7.4362   C.ar      1 RES1   0.0000
    44 H8      -9.2831   1.6935  -8.3083   H         1 RES1   0.0000
    45 C18     -8.8083   0.3003  -6.9231   C.ar      1 RES1   0.0000
    46 H9      -8.2089  -0.1756  -7.4528   H         1 RES1   0.0000
    47 C19     -5.9584  -0.4792  -5.8953   C.ar      1 RES1   0.0000
    48 C20     -5.0880  -0.9125  -6.8889   C.ar      1 RES1   0.0000
    49 H10     -5.0708  -1.8100  -7.1326   H         1 RES1   0.0000
    50 C21     -4.2455  -0.0052  -7.5196   C.ar      1 RES1   0.0000
    51 H11     -3.6647  -0.2938  -8.1856   H         1 RES1   0.0000
    52 C22     -4.2735   1.3371  -7.1557   C.ar      1 RES1   0.0000
    53 H12     -3.7083   1.9439  -7.5773   H         1 RES1   0.0000
    54 C23     -5.1424   1.7702  -6.1614   C.ar      1 RES1   0.0000
    55 H13     -5.1611   2.6672  -5.9195   H         1 RES1   0.0000
    56 C24     -5.9849   0.8624  -5.5316   C.ar      1 RES1   0.0000
    57 H14     -6.5672   1.1528  -4.8665   H         1 RES1   0.0000
    58 C25     -9.4171  -6.9710  -5.8071   C.ar      1 RES1   0.0000
    59 C26    -10.3720  -6.6893  -6.7786   C.ar      1 RES1   0.0000
    60 H15    -10.4632  -5.8229  -7.1023   H         1 RES1   0.0000
    61 C27    -11.1862  -7.7042  -7.2669   C.ar      1 RES1   0.0000
    62 H16    -11.8238  -7.5147  -7.9170   H         1 RES1   0.0000
    63 C28    -11.0486  -8.9997  -6.7840   C.ar      1 RES1   0.0000
    64 H17    -11.5934  -9.6776  -7.1112   H         1 RES1   0.0000
    65 C29    -10.0952  -9.2814  -5.8128   C.ar      1 RES1   0.0000
    66 H18    -10.0025 -10.1488  -5.4891   H         1 RES1   0.0000
    67 C30     -9.2795  -8.2670  -5.3240   C.ar      1 RES1   0.0000
    68 H19     -8.6419  -8.4553  -4.6744   H         1 RES1   0.0000
    69 C31     -6.3068  -7.2201  -5.6456   C.ar      1 RES1   0.0000
    70 C32     -6.5866  -7.5875  -6.9563   C.ar      1 RES1   0.0000
    71 H20     -7.2243  -7.1182  -7.4439   H         1 RES1   0.0000
    72 C33     -5.9129  -8.6552  -7.5376   C.ar      1 RES1   0.0000
    73 H21     -6.0999  -8.9021  -8.4150   H         1 RES1   0.0000
    74 C34     -4.9595  -9.3561  -6.8071   C.ar      1 RES1   0.0000
    75 H22     -4.5088 -10.0706  -7.1966   H         1 RES1   0.0000
    76 C35     -4.6797  -8.9886  -5.4962   C.ar      1 RES1   0.0000
    77 H23     -4.0421  -9.4568  -5.0088   H         1 RES1   0.0000
    78 C36     -5.3534  -7.9198  -4.9154   C.ar      1 RES1   0.0000
    79 H24     -5.1664  -7.6746  -4.0376   H         1 RES1   0.0000
    80 C37     -0.4387  -0.0591  -6.9796   C.ar      2 RES2   0.0000
    81 H25     -1.3692  -0.0522  -6.9707   H         2 RES2   0.0000
    82 C38      0.2627   1.1180  -7.2144   C.ar      2 RES2   0.0000
    83 H26     -0.1986   1.9126  -7.3620   H         2 RES2   0.0000
    84 C39      1.6515   1.1093  -7.2269   C.ar      2 RES2   0.0000
    85 H27      2.1206   1.8969  -7.3834   H         2 RES2   0.0000
    86 C40      2.3419  -0.0782  -7.0063   C.ar      2 RES2   0.0000
    87 H28      3.2708  -0.0835  -7.0152   H         2 RES2   0.0000
    88 C41      1.6405  -1.2548  -6.7715   C.ar      2 RES2   0.0000
    89 H29      2.1018  -2.0482  -6.6239   H         2 RES2   0.0000
    90 C42      0.2502  -1.2449  -6.7591   C.ar      2 RES2   0.0000
    91 H30     -0.2174  -2.0325  -6.6025   H         2 RES2   0.0000
    92 C43     -9.0168   5.1726  -8.3528   C.ar      3 RES3   0.0000
    93 H31     -9.8358   5.5604  -8.1447   H         3 RES3   0.0000
    94 C44     -8.8971   4.3659  -9.4787   C.ar      3 RES3   0.0000
    95 H32     -9.6339   4.2146 -10.0230   H         3 RES3   0.0000
    96 C45     -7.6724   3.7851  -9.7882   C.ar      3 RES3   0.0000
    97 H33     -7.5916   3.2462 -10.5424   H         3 RES3   0.0000
    98 C46     -6.5688   4.0112  -8.9735   C.ar      3 RES3   0.0000
    99 H34     -5.7497   3.6217  -9.1816   H         3 RES3   0.0000
   100 C47     -6.6900   4.8162  -7.8476   C.ar      3 RES3   0.0000
   101 H35     -5.9517   4.9675  -7.3016   H         3 RES3   0.0000
   102 C48     -7.9147   5.3969  -7.5364   C.ar      3 RES3   0.0000
   103 H36     -7.9955   5.9359  -6.7840   H         3 RES3   0.0000
   104 C49     -1.3205   9.0517  -8.6569   C.ar      4 RES4   0.0000
   105 H37     -2.2000   9.3003  -8.4844   H         4 RES4   0.0000
   106 C50     -0.4787   8.6083  -7.5879   C.ar      4 RES4   0.0000
   107 H38     -0.8088   8.5405  -6.7199   H         4 RES4   0.0000
   108 C51      0.8405   8.2797  -7.8707   C.ar      4 RES4   0.0000
   109 H39      1.4022   8.0137  -7.1788   H         4 RES4   0.0000
   110 C49B     1.3271   8.3353  -9.1301   C.ar      4 RES4   0.0000
   111 H37B     2.2065   8.0867  -9.3026   H         4 RES4   0.0000
   112 C50B     0.4852   8.7787 -10.1991   C.ar      4 RES4   0.0000
   113 H38B     0.8153   8.8465 -11.0671   H         4 RES4   0.0000
   114 C51B    -0.8339   9.1073  -9.9163   C.ar      4 RES4   0.0000
   115 H39B    -1.3957   9.3733 -10.6082   H         4 RES4   0.0000
@<TRIPOS>BOND
     1     1     8    1
     2     2    20    1
     3     3    21    1
     4     4     6    1
     5     5     7    1
     6     8    14    1
     7     9     1    1
     8    10     1    1
     9    11     1    1
    10    12     1    1
    11    13     1    1
    12    14     4    1
    13    15     5    1
    14    16     4    1
    15    17     5    1
    16    18     4    1
    17    19     5    1
    18    20     8    2
    19    21     9    2
    20    22    10    2
    21    23    11    2
    22    24    12    2
    23    25    13    2
    24    26     2    1
    25    27    26   ar
    26    28    27    1
    27    29    27   ar
    28    30    29    1
    29    31    29   ar
    30    32    31    1
    31    33    31   ar
    32    34    33    1
    33    35     3    1
    34    36    22    1
    35    37    36   ar
    36    38    37    1
    37    39    37   ar
    38    40    39    1
    39    41    39   ar
    40    42    41    1
    41    43    41   ar
    42    44    43    1
    43    45    36   ar
    44    46    45    1
    45    47    23    1
    46    48    47   ar
    47    49    48    1
    48    50    48   ar
    49    51    50    1
    50    52    50   ar
    51    53    52    1
    52    54    52   ar
    53    55    54    1
    54    56    47   ar
    55    57    56    1
    56    58    24    1
    57    59    58   ar
    58    60    59    1
    59    61    59   ar
    60    62    61    1
    61    63    61   ar
    62    64    63    1
    63    65    63   ar
    64    66    65    1
    65    67    58   ar
    66    68    67    1
    67    69    25    1
    68    70    69   ar
    69    71    70    1
    70    72    70   ar
    71    73    72    1
    72    74    72   ar
    73    75    74    1
    74    76    74   ar
    75    77    76    1
    76    78    69   ar
    77    79    78    1
    78     9    15    1
    79    10    16    1
    80    11    17    1
    81    12    18    1
    82    13    19    1
    83    20    21    1
    84    22    23    1
    85    24    25    1
    86    26    35   ar
    87    33    35   ar
    88    43    45   ar
    89    54    56   ar
    90    65    67   ar
    91    76    78   ar
    92    80    81    1
    93    82    80   ar
    94    83    82    1
    95    84    82   ar
    96    85    84    1
    97    86    84   ar
    98    87    86    1
    99    88    86   ar
   100    89    88    1
   101    90    80   ar
   102    91    90    1
   103    88    90   ar
   104    92    93    1
   105    94    92   ar
   106    95    94    1
   107    96    94   ar
   108    97    96    1
   109    98    96   ar
   110    99    98    1
   111   100    98   ar
   112   101   100    1
   113   102    92   ar
   114   103   102    1
   115   100   102   ar
   116   104   105    1
   117   106   104   ar
   118   107   106    1
   119   108   106   ar
   120   109   108    1
   121   110   108   ar
   122   111   110    1
   123   112   110   ar
   124   113   112    1
   125   114   104   ar
   126   115   114    1
   127   112   114   ar
@<TRIPOS>SUBSTRUCTURE
     1 RES1        1 GROUP             0 ****  ****    0  
     2 RES2       80 GROUP             0 ****  ****    0  
     3 RES3       92 GROUP             0 ****  ****    0  
     4 RES4      104 GROUP             0 ****  ****    0  
@<TRIPOS>CRYSIN
   15.4820   17.3870   17.7870   90.0000   90.0210   90.0000   231     1
