@<TRIPOS>MOLECULE
EKETEU
    84    95     2     0     0
SMALL
NO_CHARGES
****
Generated from the CSD

@<TRIPOS>ATOM
     1 Fe1      4.3984   8.3275   3.9159   Fe        1 RES1   0.0000
     2 S1       2.0693   6.8915   7.4170   S.3       1 RES1   0.0000
     3 S2       3.2896   4.2802   5.3181   S.3       1 RES1   0.0000
     4 O1       2.8461   9.2956   6.1623   O.3       1 RES1   0.0000
     5 O2       4.8521   5.4943   3.3824   O.3       1 RES1   0.0000
     6 O3       5.1218  10.2147   5.9642   O.3       1 RES1   0.0000
     7 O4       6.2302   7.0576   2.0986   O.3       1 RES1   0.0000
     8 O5       3.3524  10.9675   4.4374   O.3       1 RES1   0.0000
     9 O6       3.8696   6.7724   1.5515   O.3       1 RES1   0.0000
    10 N1       3.2327   8.2114   5.4238   N.2       1 RES1   0.0000
    11 N2       4.3604   6.4401   4.2477   N.2       1 RES1   0.0000
    12 N3       5.5843   9.3124   5.0436   N.2       1 RES1   0.0000
    13 N4       6.0827   8.0102   3.0756   N.2       1 RES1   0.0000
    14 N5       3.5216   9.9715   3.5052   N.2       1 RES1   0.0000
    15 N6       3.5793   7.9169   2.2347   N.2       1 RES1   0.0000
    16 B1       3.6670  10.5005   5.8143   B         1 RES1   0.0000
    17 B2       5.1036   6.1059   2.0448   B         1 RES1   0.0000
    18 F1       3.3370  11.4934   6.6724   F         1 RES1   0.0000
    19 F2       5.4192   5.1202   1.1734   F         1 RES1   0.0000
    20 C1       2.9849   7.0401   5.9499   C.2       1 RES1   0.0000
    21 C2       3.5759   5.9830   5.1827   C.2       1 RES1   0.0000
    22 C3       6.8635   9.3313   4.7642   C.2       1 RES1   0.0000
    23 C4       7.1776   8.4242   3.6662   C.2       1 RES1   0.0000
    24 C5       2.7800  10.0516   2.4260   C.2       1 RES1   0.0000
    25 C6       2.9566   8.8711   1.5839   C.2       1 RES1   0.0000
    26 C7       1.9381   5.1411   7.6511   C.ar      1 RES1   0.0000
    27 C8       1.2796   4.8035   8.8455   C.ar      1 RES1   0.0000
    28 H1       0.9924   5.4766   9.4191   H         1 RES1   0.0000
    29 C9       1.0542   3.4743   9.1770   C.ar      1 RES1   0.0000
    30 H2       0.6079   3.2607   9.9652   H         1 RES1   0.0000
    31 C10      1.4911   2.4733   8.3398   C.ar      1 RES1   0.0000
    32 H3       1.3467   1.5831   8.5673   H         1 RES1   0.0000
    33 C11      2.1404   2.7833   7.1667   C.ar      1 RES1   0.0000
    34 H4       2.4234   2.1014   6.6015   H         1 RES1   0.0000
    35 C12      2.3762   4.1216   6.8192   C.ar      1 RES1   0.0000
    36 C13      7.8735  10.2198   5.4079   C.ar      1 RES1   0.0000
    37 C14      8.7277  10.9537   4.5859   C.ar      1 RES1   0.0000
    38 H5       8.6305  10.9094   3.6611   H         1 RES1   0.0000
    39 C15      9.7131  11.7431   5.1372   C.ar      1 RES1   0.0000
    40 H6      10.2656  12.2487   4.5852   H         1 RES1   0.0000
    41 C16      9.8801  11.7857   6.5059   C.ar      1 RES1   0.0000
    42 H7      10.5543  12.3098   6.8753   H         1 RES1   0.0000
    43 C17      9.0462  11.0495   7.3339   C.ar      1 RES1   0.0000
    44 H8       9.1617  11.0787   8.2565   H         1 RES1   0.0000
    45 C18      8.0385  10.2676   6.7848   C.ar      1 RES1   0.0000
    46 H9       7.4753   9.7771   7.3391   H         1 RES1   0.0000
    47 C19      8.5323   7.9397   3.3511   C.ar      1 RES1   0.0000
    48 C20      9.4273   7.6821   4.3929   C.ar      1 RES1   0.0000
    49 H10      9.1897   7.8858   5.2691   H         1 RES1   0.0000
    50 C21     10.6669   7.1271   4.1265   C.ar      1 RES1   0.0000
    51 H11     11.2638   6.9744   4.8221   H         1 RES1   0.0000
    52 C22     11.0257   6.7988   2.8345   C.ar      1 RES1   0.0000
    53 H12     11.8549   6.4142   2.6631   H         1 RES1   0.0000
    54 C23     10.1491   7.0444   1.7975   C.ar      1 RES1   0.0000
    55 H13     10.3908   6.8211   0.9275   H         1 RES1   0.0000
    56 C24      8.9156   7.6174   2.0396   C.ar      1 RES1   0.0000
    57 H14      8.3387   7.7909   1.3324   H         1 RES1   0.0000
    58 C25      1.7843  11.1016   2.1354   C.ar      1 RES1   0.0000
    59 C26      2.1214  12.4477   2.1268   C.ar      1 RES1   0.0000
    60 H15      2.9829  12.7184   2.3506   H         1 RES1   0.0000
    61 C27      1.1534  13.3911   1.7802   C.ar      1 RES1   0.0000
    62 H16      1.3719  14.2950   1.7625   H         1 RES1   0.0000
    63 C28     -0.1331  12.9835   1.4629   C.ar      1 RES1   0.0000
    64 H17     -0.7756  13.6203   1.2467   H         1 RES1   0.0000
    65 C29     -0.4713  11.6604   1.4624   C.ar      1 RES1   0.0000
    66 H18     -1.3358  11.3982   1.2450   H         1 RES1   0.0000
    67 C30      0.4954  10.7023   1.7914   C.ar      1 RES1   0.0000
    68 H19      0.2754   9.7993   1.7793   H         1 RES1   0.0000
    69 C31      2.5902   8.8237   0.1561   C.ar      1 RES1   0.0000
    70 C32      2.1491   7.6403  -0.4678   C.ar      1 RES1   0.0000
    71 H20      2.0648   6.8583   0.0269   H         1 RES1   0.0000
    72 C33      1.8411   7.6426  -1.8168   C.ar      1 RES1   0.0000
    73 H21      1.5427   6.8610  -2.2229   H         1 RES1   0.0000
    74 C34      1.9745   8.7986  -2.5668   C.ar      1 RES1   0.0000
    75 H22      1.7814   8.7884  -3.4763   H         1 RES1   0.0000
    76 C35      2.3949   9.9673  -1.9621   C.ar      1 RES1   0.0000
    77 H23      2.4767  10.7442  -2.4665   H         1 RES1   0.0000
    78 C36      2.6917   9.9912  -0.6198   C.ar      1 RES1   0.0000
    79 H24      2.9631  10.7860  -0.2218   H         1 RES1   0.0000
    80 C37      8.7108   3.4362   5.4925   C.3       2 RES2   0.0000
    81 H25      8.4971   2.4801   5.4455   H         2 RES2   0.0000
    82 Cl1      7.3812   4.3301   4.7603   Cl        2 RES2   0.0000
    83 Cl2     10.2189   3.7044   4.6183   Cl        2 RES2   0.0000
    84 Cl3      8.8781   3.8700   7.1759   Cl        2 RES2   0.0000
@<TRIPOS>BOND
     1     1    10    1
     2     2    20    1
     3     3    21    1
     4     4    10    1
     5     5    11    1
     6     6    12    1
     7     7    13    1
     8     8    14    1
     9     9    15    1
    10    10    20    2
    11    11     1    1
    12    12     1    1
    13    13     1    1
    14    14     1    1
    15    15     1    1
    16    16     4    1
    17    17     5    1
    18    18    16    1
    19    19    17    1
    20    20    21    1
    21    21    11    2
    22    22    12    2
    23    23    13    2
    24    24    14    2
    25    25    15    2
    26    26     2    1
    27    27    26   ar
    28    28    27    1
    29    29    27   ar
    30    30    29    1
    31    31    29   ar
    32    32    31    1
    33    33    31   ar
    34    34    33    1
    35    35     3    1
    36    36    22    1
    37    37    36   ar
    38    38    37    1
    39    39    37   ar
    40    40    39    1
    41    41    39   ar
    42    42    41    1
    43    43    41   ar
    44    44    43    1
    45    45    36   ar
    46    46    45    1
    47    47    23    1
    48    48    47   ar
    49    49    48    1
    50    50    48   ar
    51    51    50    1
    52    52    50   ar
    53    53    52    1
    54    54    52   ar
    55    55    54    1
    56    56    47   ar
    57    57    56    1
    58    58    24    1
    59    59    58   ar
    60    60    59    1
    61    61    59   ar
    62    62    61    1
    63    63    61   ar
    64    64    63    1
    65    65    63   ar
    66    66    65    1
    67    67    58   ar
    68    68    67    1
    69    69    25    1
    70    70    69   ar
    71    71    70    1
    72    72    70   ar
    73    73    72    1
    74    74    72   ar
    75    75    74    1
    76    76    74   ar
    77    77    76    1
    78    78    69   ar
    79    79    78    1
    80     6    16    1
    81     7    17    1
    82     8    16    1
    83     9    17    1
    84    22    23    1
    85    24    25    1
    86    26    35   ar
    87    33    35   ar
    88    43    45   ar
    89    54    56   ar
    90    65    67   ar
    91    76    78   ar
    92    80    81    1
    93    82    80    1
    94    83    80    1
    95    84    80    1
@<TRIPOS>SUBSTRUCTURE
     1 RES1        1 GROUP             0 ****  ****    0  
     2 RES2       80 GROUP             0 ****  ****    0  
@<TRIPOS>CRYSIN
   10.6490   11.6123   17.0210   88.2030   80.9380   68.6950     2     1
