@<TRIPOS>MOLECULE
EKETUK
    99   110     3     0     0
SMALL
NO_CHARGES
****
Generated from the CSD

@<TRIPOS>ATOM
     1 Fe1     18.1388  -3.1670  -2.9037   Fe        1 RES1   0.0000
     2 S1      16.0971  -5.0250   0.5435   S.3       1 RES1   0.0000
     3 S2      19.6749  -5.3174   0.6742   S.3       1 RES1   0.0000
     4 O1      15.7774  -1.5783  -2.3583   O.3       1 RES1   0.0000
     5 O2      20.7860  -2.1353  -3.3125   O.3       1 RES1   0.0000
     6 O3      15.6104  -3.0880  -4.2841   O.3       1 RES1   0.0000
     7 O4      20.5035  -4.5175  -3.8358   O.3       1 RES1   0.0000
     8 O5      15.4858  -3.9657  -1.9857   O.3       1 RES1   0.0000
     9 O6      20.6166  -3.7991  -1.5171   O.3       1 RES1   0.0000
    10 N1      17.1561  -1.5793  -2.5145   N.2       1 RES1   0.0000
    11 N2      19.4432  -1.8135  -3.1284   N.2       1 RES1   0.0000
    12 N3      16.9225  -3.4277  -4.3585   N.2       1 RES1   0.0000
    13 N4      19.1694  -4.2738  -4.0370   N.2       1 RES1   0.0000
    14 N5      16.8583  -4.0786  -1.8313   N.2       1 RES1   0.0000
    15 N6      19.2529  -3.8244  -1.4837   N.2       1 RES1   0.0000
    16 B1      15.1668  -2.8084  -2.8787   B         1 RES1   0.0000
    17 B2      21.0945  -3.5047  -2.8815   B         1 RES1   0.0000
    18 F1      13.8269  -2.6755  -2.8916   F         1 RES1   0.0000
    19 F2      22.4436  -3.6967  -2.9090   F         1 RES1   0.0000
    20 C1      17.7424  -0.4220  -2.6010   C.2       1 RES1   0.0000
    21 C2      19.1696  -0.5760  -2.8928   C.2       1 RES1   0.0000
    22 C3      17.3149  -4.1936  -5.3478   C.2       1 RES1   0.0000
    23 C4      18.6701  -4.6304  -5.1991   C.2       1 RES1   0.0000
    24 C5      17.2439  -4.5481  -0.6369   C.2       1 RES1   0.0000
    25 C6      18.7012  -4.4922  -0.5191   C.2       1 RES1   0.0000
    26 C7      17.0471   0.8883  -2.5120   C.ar      1 RES1   0.0000
    27 C8      17.2719   1.8779  -3.4618   C.ar      1 RES1   0.0000
    28 H1      17.8690   1.7270  -4.1582   H         1 RES1   0.0000
    29 C9      16.6042   3.0943  -3.3697   C.ar      1 RES1   0.0000
    30 H2      16.7546   3.7569  -4.0067   H         1 RES1   0.0000
    31 C10     15.7131   3.3201  -2.3280   C.ar      1 RES1   0.0000
    32 H3      15.2664   4.1335  -2.2671   H         1 RES1   0.0000
    33 C11     15.4882   2.3305  -1.3782   C.ar      1 RES1   0.0000
    34 H4      14.8912   2.4824  -0.6818   H         1 RES1   0.0000
    35 C12     16.1560   1.1151  -1.4702   C.ar      1 RES1   0.0000
    36 H5      16.0056   0.4526  -0.8361   H         1 RES1   0.0000
    37 C13     20.1487   0.5570  -2.8355   C.ar      1 RES1   0.0000
    38 C14     20.0707   1.4802  -1.7999   C.ar      1 RES1   0.0000
    39 H6      19.4434   1.3673  -1.1223   H         1 RES1   0.0000
    40 C15     20.9283   2.5731  -1.7763   C.ar      1 RES1   0.0000
    41 H7      20.8758   3.1914  -1.0830   H         1 RES1   0.0000
    42 C16     21.8669   2.7430  -2.7887   C.ar      1 RES1   0.0000
    43 H8      22.4401   3.4741  -2.7721   H         1 RES1   0.0000
    44 C17     21.9449   1.8188  -3.8246   C.ar      1 RES1   0.0000
    45 H9      22.5721   1.9317  -4.5005   H         1 RES1   0.0000
    46 C18     21.0858   0.7258  -3.8478   C.ar      1 RES1   0.0000
    47 H10     21.1384   0.1076  -4.5398   H         1 RES1   0.0000
    48 C19     16.4410  -4.5798  -6.5122   C.ar      1 RES1   0.0000
    49 C20     15.8202  -3.5585  -7.2226   C.ar      1 RES1   0.0000
    50 H11     15.8781  -2.6808  -6.9219   H         1 RES1   0.0000
    51 C21     15.1132  -3.8497  -8.3831   C.ar      1 RES1   0.0000
    52 H12     14.6979  -3.1671  -8.8579   H         1 RES1   0.0000
    53 C22     15.0256  -5.1621  -8.8334   C.ar      1 RES1   0.0000
    54 H13     14.5524  -5.3562  -9.6098   H         1 RES1   0.0000
    55 C23     15.6465  -6.1834  -8.1230   C.ar      1 RES1   0.0000
    56 H14     15.5886  -7.0611  -8.4258   H         1 RES1   0.0000
    57 C24     16.3534  -5.8922  -6.9625   C.ar      1 RES1   0.0000
    58 H15     16.7687  -6.5748  -6.4870   H         1 RES1   0.0000
    59 C25     19.3791  -5.4670  -6.2016   C.ar      1 RES1   0.0000
    60 C26     19.4238  -5.0598  -7.5299   C.ar      1 RES1   0.0000
    61 H16     19.0776  -4.2316  -7.7748   H         1 RES1   0.0000
    62 C27     19.9871  -5.8890  -8.4925   C.ar      1 RES1   0.0000
    63 H17     20.0179  -5.6168  -9.3825   H         1 RES1   0.0000
    64 C28     20.5057  -7.1265  -8.1272   C.ar      1 RES1   0.0000
    65 H18     20.8827  -7.6815  -8.7709   H         1 RES1   0.0000
    66 C29     20.4610  -7.5338  -6.7990   C.ar      1 RES1   0.0000
    67 H19     20.8072  -8.3609  -6.5543   H         1 RES1   0.0000
    68 C30     19.8977  -6.7045  -5.8363   C.ar      1 RES1   0.0000
    69 H20     19.8669  -6.9767  -4.9466   H         1 RES1   0.0000
    70 C31     17.2051  -5.3562   1.9416   C.3       1 RES1   0.0000
    71 H21     17.5425  -4.5165   2.2895   H         1 RES1   0.0000
    72 H22     16.7066  -5.7962   2.6487   H         1 RES1   0.0000
    73 C32     18.3727  -6.2329   1.5320   C.3       1 RES1   0.0000
    74 H23     18.0489  -6.9398   0.9540   H         1 RES1   0.0000
    75 H24     18.7484  -6.6476   2.3260   H         1 RES1   0.0000
    76 C33     17.8768  -0.5697  -6.4135   C.ar      2 RES2   0.0000
    77 H25     17.3892  -0.7965  -5.6537   H         2 RES2   0.0000
    78 C34     19.1372  -1.1194  -6.6191   C.ar      2 RES2   0.0000
    79 H26     19.4922  -1.7133  -5.9988   H         2 RES2   0.0000
    80 C35     19.8656  -0.7818  -7.7524   C.ar      2 RES2   0.0000
    81 H27     20.7083  -1.1489  -7.8899   H         2 RES2   0.0000
    82 C36     19.3337   0.1066  -8.6816   C.ar      2 RES2   0.0000
    83 H28     19.8228   0.3323  -9.4415   H         2 RES2   0.0000
    84 C37     18.0748   0.6562  -8.4760   C.ar      2 RES2   0.0000
    85 H29     17.7183   1.2502  -9.0963   H         2 RES2   0.0000
    86 C38     17.3449   0.3176  -7.3427   C.ar      2 RES2   0.0000
    87 H30     16.5023   0.6857  -7.2052   H         2 RES2   0.0000
    88 C39      9.9659   1.1943  -0.8187   C.ar      3 RES3   0.0000
    89 H31      9.5589   1.8536  -0.3058   H         3 RES3   0.0000
    90 C40     11.3206   1.2860  -1.1195   C.ar      3 RES3   0.0000
    91 H32     11.8182   2.0056  -0.8053   H         3 RES3   0.0000
    92 C41     11.9303   0.3007  -1.8855   C.ar      3 RES3   0.0000
    93 H33     12.8363   0.3608  -2.0875   H         3 RES3   0.0000
    94 C42     11.1853  -0.7765  -2.3541   C.ar      3 RES3   0.0000
    95 H34     11.5937  -1.4359  -2.8675   H         3 RES3   0.0000
    96 C43      9.8320  -0.8672  -2.0544   C.ar      3 RES3   0.0000
    97 H35      9.3330  -1.5878  -2.3681   H         3 RES3   0.0000
    98 C44      9.2223   0.1182  -1.2867   C.ar      3 RES3   0.0000
    99 H36      8.3163   0.0570  -1.0858   H         3 RES3   0.0000
@<TRIPOS>BOND
     1     1    10    1
     2     2    24    1
     3     3    25    1
     4     4    10    1
     5     5    11    1
     6     6    12    1
     7     7    13    1
     8     8    14    1
     9     9    15    1
    10    10    20    2
    11    11     1    1
    12    12     1    1
    13    13     1    1
    14    14     1    1
    15    15     1    1
    16    16     4    1
    17    17     5    1
    18    18    16    1
    19    19    17    1
    20    20    21    1
    21    21    11    2
    22    22    12    2
    23    23    13    2
    24    24    14    2
    25    25    15    2
    26    26    20    1
    27    27    26   ar
    28    28    27    1
    29    29    27   ar
    30    30    29    1
    31    31    29   ar
    32    32    31    1
    33    33    31   ar
    34    34    33    1
    35    35    26   ar
    36    36    35    1
    37    37    21    1
    38    38    37   ar
    39    39    38    1
    40    40    38   ar
    41    41    40    1
    42    42    40   ar
    43    43    42    1
    44    44    42   ar
    45    45    44    1
    46    46    37   ar
    47    47    46    1
    48    48    22    1
    49    49    48   ar
    50    50    49    1
    51    51    49   ar
    52    52    51    1
    53    53    51   ar
    54    54    53    1
    55    55    53   ar
    56    56    55    1
    57    57    48   ar
    58    58    57    1
    59    59    23    1
    60    60    59   ar
    61    61    60    1
    62    62    60   ar
    63    63    62    1
    64    64    62   ar
    65    65    64    1
    66    66    64   ar
    67    67    66    1
    68    68    59   ar
    69    69    68    1
    70    70     2    1
    71    71    70    1
    72    72    70    1
    73    73     3    1
    74    74    73    1
    75    75    73    1
    76     6    16    1
    77     7    17    1
    78     8    16    1
    79     9    17    1
    80    22    23    1
    81    24    25    1
    82    33    35   ar
    83    44    46   ar
    84    55    57   ar
    85    66    68   ar
    86    70    73    1
    87    76    77    1
    88    78    76   ar
    89    79    78    1
    90    80    78   ar
    91    81    80    1
    92    82    80   ar
    93    83    82    1
    94    84    82   ar
    95    85    84    1
    96    86    76   ar
    97    87    86    1
    98    84    86   ar
    99    88    89    1
   100    90    88   ar
   101    91    90    1
   102    92    90   ar
   103    93    92    1
   104    94    92   ar
   105    95    94    1
   106    96    94   ar
   107    97    96    1
   108    98    88   ar
   109    99    98    1
   110    96    98   ar
@<TRIPOS>SUBSTRUCTURE
     1 RES1        1 GROUP             0 ****  ****    0  
     2 RES2       76 GROUP             0 ****  ****    0  
     3 RES3       88 GROUP             0 ****  ****    0  
@<TRIPOS>CRYSIN
   14.5180   10.5500   28.0610   90.0000   90.8630   90.0000    14     1
