@<TRIPOS>MOLECULE
EKEVAS
    83    95     1     0     0
SMALL
NO_CHARGES
****
Generated from the CSD

@<TRIPOS>ATOM
     1 Fe1     -1.0359   8.8956   3.6472   Fe        1 RES1   0.0000
     2 S1      -2.4699   7.0593  -0.1485   S.3       1 RES1   0.0000
     3 S2      -4.7544   6.8181   2.4470   S.3       1 RES1   0.0000
     4 S3       0.2021  12.9247   2.3520   S.3       1 RES1   0.0000
     5 O1      -0.2231   8.5759   0.8526   O.3       1 RES1   0.0000
     6 O2       1.4143   7.8377   2.5236   O.3       1 RES1   0.0000
     7 O3       1.0404  10.2514   2.1252   O.3       1 RES1   0.0000
     8 N1      -1.2380   8.4425   1.7886   N.2       1 RES1   0.0000
     9 N2       0.5888   7.9282   3.6297   N.2       1 RES1   0.0000
    10 N3      -0.0007  10.3666   3.0255   N.2       1 RES1   0.0000
    11 B1       1.1169   8.8831   1.4881   B         1 RES1   0.0000
    12 C1      -2.2690   7.7687   1.4283   C.2       1 RES1   0.0000
    13 C2      -3.1864   7.5365   2.5297   C.2       1 RES1   0.0000
    14 C3      -4.2342   7.0817  -0.3151   C.ar      1 RES1   0.0000
    15 C4      -4.6979   7.1638  -1.6383   C.ar      1 RES1   0.0000
    16 H1      -4.0913   7.2722  -2.3357   H         1 RES1   0.0000
    17 C5      -6.0476   7.0817  -1.9082   C.ar      1 RES1   0.0000
    18 H2      -6.3419   7.1115  -2.7894   H         1 RES1   0.0000
    19 C6      -6.9639   6.9567  -0.8797   C.ar      1 RES1   0.0000
    20 H3      -7.8723   6.8888  -1.0665   H         1 RES1   0.0000
    21 C7      -6.5148   6.9329   0.4275   C.ar      1 RES1   0.0000
    22 H4      -7.1341   6.8900   1.1204   H         1 RES1   0.0000
    23 C8      -5.1613   6.9710   0.7294   C.ar      1 RES1   0.0000
    24 C9      -0.4564  11.5774   3.2096   C.2       1 RES1   0.0000
    25 C10     -0.5753  14.3146   3.1279   C.ar      1 RES1   0.0000
    26 C11     -0.1526  15.5326   2.5939   C.ar      1 RES1   0.0000
    27 H5       0.4390  15.5338   1.8761   H         1 RES1   0.0000
    28 C12     -0.5923  16.7327   3.1031   C.ar      1 RES1   0.0000
    29 H6      -0.3044  17.5352   2.7311   H         1 RES1   0.0000
    30 C13      2.2852   8.8462   0.4041   C.3       1 RES1   0.0000
    31 H7       2.0224   8.2568  -0.3210   H         1 RES1   0.0000
    32 H8       2.3993   9.7355   0.0336   H         1 RES1   0.0000
    33 C14      3.6418   8.3640   0.9731   C.3       1 RES1   0.0000
    34 H9       3.5120   7.5020   1.3962   H         1 RES1   0.0000
    35 H10      4.2603   8.2390   0.2363   H         1 RES1   0.0000
    36 C15      4.2647   9.2998   1.9681   C.3       1 RES1   0.0000
    37 H11      3.6203   9.4915   2.6669   H         1 RES1   0.0000
    38 H12      4.4788  10.1356   1.5245   H         1 RES1   0.0000
    39 C16      5.5450   8.7283   2.6085   C.3       1 RES1   0.0000
    40 H13      5.9018   9.3653   3.2329   H         1 RES1   0.0000
    41 H14      6.1943   8.5545   1.9228   H         1 RES1   0.0000
    42 H15      5.3374   7.9115   3.0666   H         1 RES1   0.0000
    43 S1A      0.3980   7.0593   7.4430   S.3       1 RES1   0.0000
    44 S2A      2.6825   6.8181   4.8475   S.3       1 RES1   0.0000
    45 S3A     -2.2739  12.9247   4.9424   S.3       1 RES1   0.0000
    46 O1A     -1.8487   8.5759   6.4419   O.3       1 RES1   0.0000
    47 O2A     -3.4861   7.8377   4.7709   O.3       1 RES1   0.0000
    48 O3A     -3.1123  10.2514   5.1693   O.3       1 RES1   0.0000
    49 N1A     -0.8339   8.4425   5.5059   N.2       1 RES1   0.0000
    50 N2A     -2.6606   7.9282   3.6647   N.2       1 RES1   0.0000
    51 N3A     -2.0711  10.3666   4.2690   N.2       1 RES1   0.0000
    52 B1A     -3.1887   8.8831   5.8064   B         1 RES1   0.0000
    53 C1A      0.1972   7.7687   5.8662   C.2       1 RES1   0.0000
    54 C2A      1.1145   7.5365   4.7648   C.2       1 RES1   0.0000
    55 C3A      2.1623   7.0817   7.6096   C.ar      1 RES1   0.0000
    56 C4A      2.6260   7.1638   8.9328   C.ar      1 RES1   0.0000
    57 H1A      2.0195   7.2722   9.6302   H         1 RES1   0.0000
    58 C5A      3.9758   7.0817   9.2027   C.ar      1 RES1   0.0000
    59 H2A      4.2701   7.1115  10.0839   H         1 RES1   0.0000
    60 C6A      4.8921   6.9567   8.1742   C.ar      1 RES1   0.0000
    61 H3A      5.8005   6.8888   8.3609   H         1 RES1   0.0000
    62 C7A      4.4429   6.9329   6.8670   C.ar      1 RES1   0.0000
    63 H4A      5.0622   6.8900   6.1740   H         1 RES1   0.0000
    64 C8A      3.0895   6.9710   6.5650   C.ar      1 RES1   0.0000
    65 C9A     -1.6154  11.5774   4.0849   C.2       1 RES1   0.0000
    66 C10A    -1.4966  14.3146   4.1666   C.ar      1 RES1   0.0000
    67 C11A    -1.9193  15.5326   4.7006   C.ar      1 RES1   0.0000
    68 H5A     -2.5109  15.5338   5.4183   H         1 RES1   0.0000
    69 C12A    -1.4795  16.7327   4.1914   C.ar      1 RES1   0.0000
    70 H6A     -1.7674  17.5352   4.5634   H         1 RES1   0.0000
    71 C13A    -4.3570   8.8462   6.8904   C.3       1 RES1   0.0000
    72 H7A     -4.0942   8.2568   7.6154   H         1 RES1   0.0000
    73 H8A     -4.4711   9.7355   7.2609   H         1 RES1   0.0000
    74 C14A    -5.7136   8.3640   6.3214   C.3       1 RES1   0.0000
    75 H9A     -5.5838   7.5020   5.8983   H         1 RES1   0.0000
    76 H10A    -6.3321   8.2390   7.0581   H         1 RES1   0.0000
    77 C15A    -6.3365   9.2998   5.3264   C.3       1 RES1   0.0000
    78 H11A    -5.6921   9.4915   4.6276   H         1 RES1   0.0000
    79 H12A    -6.5507  10.1356   5.7699   H         1 RES1   0.0000
    80 C16A    -7.6168   8.7283   4.6860   C.3       1 RES1   0.0000
    81 H13A    -7.9736   9.3653   4.0616   H         1 RES1   0.0000
    82 H14A    -8.2661   8.5545   5.3717   H         1 RES1   0.0000
    83 H15A    -7.4092   7.9115   4.2279   H         1 RES1   0.0000
@<TRIPOS>BOND
     1     1     8    1
     2     2    12    1
     3     3    13    1
     4     4    24    1
     5     5     8    1
     6     6     9    1
     7     7    10    1
     8     8    12    2
     9     9     1    1
    10    10     1    1
    11    11     5    1
    12    12    13    1
    13    13    50    2
    14    14     2    1
    15    15    14   ar
    16    16    15    1
    17    17    15   ar
    18    18    17    1
    19    19    17   ar
    20    20    19    1
    21    21    19   ar
    22    22    21    1
    23    23     3    1
    24    24    10    2
    25    25     4    1
    26    26    25   ar
    27    27    26    1
    28    28    26   ar
    29    29    28    1
    30    30    11    1
    31    31    30    1
    32    32    30    1
    33    33    30    1
    34    34    33    1
    35    35    33    1
    36    36    33    1
    37    37    36    1
    38    38    36    1
    39    39    36    1
    40    40    39    1
    41    41    39    1
    42    42    39    1
    43    43    53    1
    44    44    54    1
    45    45    65    1
    46    46    49    1
    47    47    50    1
    48    48    51    1
    49    49     1    1
    50    50     1    1
    51    51     1    1
    52    52    46    1
    53    53    49    2
    54    54     9    2
    55    55    43    1
    56    56    55   ar
    57    57    56    1
    58    58    56   ar
    59    59    58    1
    60    60    58   ar
    61    61    60    1
    62    62    60   ar
    63    63    62    1
    64    64    44    1
    65    65    24    1
    66    66    25   ar
    67    67    66   ar
    68    68    67    1
    69    69    28   ar
    70    70    69    1
    71    71    52    1
    72    72    71    1
    73    73    71    1
    74    74    71    1
    75    75    74    1
    76    76    74    1
    77    77    74    1
    78    78    77    1
    79    79    77    1
    80    80    77    1
    81    81    80    1
    82    82    80    1
    83    83    80    1
    84     6    11    1
    85     7    11    1
    86    14    23   ar
    87    21    23   ar
    88    45    66    1
    89    47    52    1
    90    48    52    1
    91    51    65    2
    92    53    54    1
    93    55    64   ar
    94    62    64   ar
    95    67    69   ar
@<TRIPOS>SUBSTRUCTURE
     1 RES1        1 GROUP             0 ****  ****    0  
@<TRIPOS>CRYSIN
   20.9460   11.9060   15.1660   90.0000  105.8560   90.0000    15     1
