@<TRIPOS>MOLECULE
EKEVEW
    83    93     2     0     0
SMALL
NO_CHARGES
****
Generated from the CSD

@<TRIPOS>ATOM
     1 Fe1     -4.0132   1.6483  -0.6901   Fe        1 RES1   0.0000
     2 F1      -0.1727   3.2305  -2.0022   F         1 RES1   0.0000
     3 F2      -7.8270   0.0220   0.6133   F         1 RES1   0.0000
     4 B1      -1.3811   2.7160  -1.5898   B         1 RES1   0.0000
     5 B2      -6.5985   0.4983   0.1985   B         1 RES1   0.0000
     6 O1      -1.8958   3.6091  -0.5087   O.3       1 RES1   0.0000
     7 O2      -5.9257   1.0617   1.3968   O.3       1 RES1   0.0000
     8 O3      -2.2915   2.7183  -2.7410   O.3       1 RES1   0.0000
     9 O4      -6.8820   1.5889  -0.7806   O.3       1 RES1   0.0000
    10 O5      -1.1129   1.3721  -1.0547   O.3       1 RES1   0.0000
    11 O6      -5.8574  -0.6209  -0.3903   O.3       1 RES1   0.0000
    12 N1      -3.0416   3.0988   0.0713   N.2       1 RES1   0.0000
    13 N2      -4.7733   1.7283   1.0756   N.2       1 RES1   0.0000
    14 N3      -3.5906   2.4449  -2.3529   N.2       1 RES1   0.0000
    15 N4      -5.7310   2.0759  -1.3519   N.2       1 RES1   0.0000
    16 N5      -2.3271   0.7480  -0.7576   N.2       1 RES1   0.0000
    17 N6      -4.5633  -0.1996  -0.6973   N.2       1 RES1   0.0000
    18 N7      -1.2459  -1.3580  -0.9594   N.pl3     1 RES1   0.0000
    19 H1      -0.5179  -1.1120  -1.4286   H         1 RES1   0.0000
    20 N8      -3.7740  -2.4499  -0.4747   N.pl3     1 RES1   0.0000
    21 H2      -4.5655  -2.8240  -0.2664   H         1 RES1   0.0000
    22 C1      -3.2598   3.4063   1.3267   C.2       1 RES1   0.0000
    23 C2      -4.4019   2.7010   1.8672   C.2       1 RES1   0.0000
    24 C3      -4.5397   3.0750  -3.0042   C.2       1 RES1   0.0000
    25 C4      -5.8460   2.7650  -2.4571   C.2       1 RES1   0.0000
    26 C5      -2.2996  -0.5472  -0.8037   C.2       1 RES1   0.0000
    27 C6      -3.6445  -1.1158  -0.6414   C.2       1 RES1   0.0000
    28 C7      -2.3670   4.2886   2.1457   C.ar      1 RES1   0.0000
    29 C8      -2.1442   5.6065   1.7707   C.ar      1 RES1   0.0000
    30 H3      -2.5117   5.9441   0.9857   H         1 RES1   0.0000
    31 C9      -1.3683   6.4060   2.5864   C.ar      1 RES1   0.0000
    32 H4      -1.2195   7.2946   2.3562   H         1 RES1   0.0000
    33 C10     -0.8073   5.8926   3.7464   C.ar      1 RES1   0.0000
    34 H5      -0.2857   6.4399   4.2881   H         1 RES1   0.0000
    35 C11     -1.0196   4.5710   4.1028   C.ar      1 RES1   0.0000
    36 H6      -0.6242   4.2196   4.8681   H         1 RES1   0.0000
    37 C12     -1.8284   3.7803   3.3046   C.ar      1 RES1   0.0000
    38 H7      -2.0059   2.9018   3.5513   H         1 RES1   0.0000
    39 C13     -5.0800   3.1327   3.1127   C.ar      1 RES1   0.0000
    40 C14     -5.5157   2.2303   4.0732   C.ar      1 RES1   0.0000
    41 H8      -5.4120   1.3166   3.9317   H         1 RES1   0.0000
    42 C15     -6.1023   2.6859   5.2386   C.ar      1 RES1   0.0000
    43 H9      -6.3836   2.0809   5.8866   H         1 RES1   0.0000
    44 C16     -6.2721   4.0477   5.4404   C.ar      1 RES1   0.0000
    45 H10     -6.6627   4.3514   6.2287   H         1 RES1   0.0000
    46 C17     -5.8681   4.9526   4.4876   C.ar      1 RES1   0.0000
    47 H11     -5.9975   5.8625   4.6247   H         1 RES1   0.0000
    48 C18     -5.2727   4.5058   3.3287   C.ar      1 RES1   0.0000
    49 H12     -4.9977   5.1170   2.6862   H         1 RES1   0.0000
    50 C19     -4.2978   4.0539  -4.0918   C.ar      1 RES1   0.0000
    51 C20     -4.4428   3.7188  -5.4130   C.ar      1 RES1   0.0000
    52 H13     -4.7089   2.8578  -5.6410   H         1 RES1   0.0000
    53 C21     -4.1982   4.6451  -6.4129   C.ar      1 RES1   0.0000
    54 H14     -4.2791   4.4041  -7.3076   H         1 RES1   0.0000
    55 C22     -3.8350   5.9190  -6.0675   C.ar      1 RES1   0.0000
    56 H15     -3.6772   6.5440  -6.7374   H         1 RES1   0.0000
    57 C23     -3.7012   6.2930  -4.7606   C.ar      1 RES1   0.0000
    58 H16     -3.4638   7.1641  -4.5380   H         1 RES1   0.0000
    59 C24     -3.9285   5.3429  -3.7662   C.ar      1 RES1   0.0000
    60 H17     -3.8307   5.5801  -2.8715   H         1 RES1   0.0000
    61 C25     -7.1374   3.2369  -3.0107   C.ar      1 RES1   0.0000
    62 C26     -8.0345   2.3784  -3.6423   C.ar      1 RES1   0.0000
    63 H18     -7.8273   1.4772  -3.7431   H         1 RES1   0.0000
    64 C27     -9.2368   2.8742  -4.1192   C.ar      1 RES1   0.0000
    65 H19     -9.8289   2.3018  -4.5523   H         1 RES1   0.0000
    66 C28     -9.5684   4.1970  -3.9624   C.ar      1 RES1   0.0000
    67 H20    -10.3833   4.5171  -4.2727   H         1 RES1   0.0000
    68 C29     -8.6861   5.0354  -3.3473   C.ar      1 RES1   0.0000
    69 H21     -8.9079   5.9316  -3.2388   H         1 RES1   0.0000
    70 C30     -7.4700   4.5773  -2.8814   C.ar      1 RES1   0.0000
    71 H22     -6.8748   5.1672  -2.4790   H         1 RES1   0.0000
    72 C31     -1.4148  -2.8202  -0.9703   C.3       1 RES1   0.0000
    73 H23     -0.6048  -3.2482  -0.6524   H         1 RES1   0.0000
    74 H24     -1.5847  -3.1252  -1.8760   H         1 RES1   0.0000
    75 C32     -2.5642  -3.1917  -0.0866   C.3       1 RES1   0.0000
    76 H25     -2.7321  -4.1443  -0.1535   H         1 RES1   0.0000
    77 H26     -2.3424  -2.9896   0.8366   H         1 RES1   0.0000
    78 N9       0.2616   1.1572   4.1357   N.1       2 RES2   0.0000
    79 C33      0.2795   0.6890   3.1193   C.1       2 RES2   0.0000
    80 C34      0.3078   0.0879   1.8025   C.3       2 RES2   0.0000
    81 H27      1.2330  -0.0163   1.5712   H         2 RES2   0.0000
    82 H28     -0.0906   0.6677   1.1710   H         2 RES2   0.0000
    83 H29     -0.0945  -0.7443   1.7619   H         2 RES2   0.0000
@<TRIPOS>BOND
     1     1    12    1
     2     2     4    1
     3     3     5    1
     4     4     6    1
     5     5     7    1
     6     6    12    1
     7     7    13    1
     8     8     4    1
     9     9     5    1
    10    10     4    1
    11    11     5    1
    12    12    22    2
    13    13     1    1
    14    14     1    1
    15    15     1    1
    16    16     1    1
    17    17     1    1
    18    18    19    1
    19    20    21    1
    20    22    23    1
    21    23    13    2
    22    24    14    2
    23    25    15    2
    24    26    16    2
    25    27    17    2
    26    28    22    1
    27    29    28   ar
    28    30    29    1
    29    31    29   ar
    30    32    31    1
    31    33    31   ar
    32    34    33    1
    33    35    33   ar
    34    36    35    1
    35    37    28   ar
    36    38    37    1
    37    39    23    1
    38    40    39   ar
    39    41    40    1
    40    42    40   ar
    41    43    42    1
    42    44    42   ar
    43    45    44    1
    44    46    44   ar
    45    47    46    1
    46    48    39   ar
    47    49    48    1
    48    50    24    1
    49    51    50   ar
    50    52    51    1
    51    53    51   ar
    52    54    53    1
    53    55    53   ar
    54    56    55    1
    55    57    55   ar
    56    58    57    1
    57    59    50   ar
    58    60    59    1
    59    61    25    1
    60    62    61   ar
    61    63    62    1
    62    64    62   ar
    63    65    64    1
    64    66    64   ar
    65    67    66    1
    66    68    66   ar
    67    69    68    1
    68    70    61   ar
    69    71    70    1
    70    72    18    1
    71    73    72    1
    72    74    72    1
    73    75    20    1
    74    76    75    1
    75    77    75    1
    76     8    14    1
    77     9    15    1
    78    10    16    1
    79    11    17    1
    80    18    26    1
    81    20    27    1
    82    24    25    1
    83    26    27    1
    84    35    37   ar
    85    46    48   ar
    86    57    59   ar
    87    68    70   ar
    88    72    75    1
    89    78    79    3
    90    79    80    1
    91    80    81    1
    92    82    80    1
    93    83    80    1
@<TRIPOS>SUBSTRUCTURE
     1 RES1        1 GROUP             0 ****  ****    0  
     2 RES2       78 GROUP             0 ****  ****    0  
@<TRIPOS>CRYSIN
   12.1029   12.5509   12.2287   90.0000  116.2870   90.0000     4     1
