@<TRIPOS>MOLECULE
EKOTOP
    82    84     4     0     0
SMALL
NO_CHARGES
****
Generated from the CSD

@<TRIPOS>ATOM
     1 Fe1      3.9565   6.8934  11.6518   Fe        1 RES1   0.0000
     2 O1       2.4094   6.3043  10.5183   O.3       1 RES1   0.0000
     3 O2       3.1538   5.4410  12.7860   O.2       1 RES1   0.0000
     4 O3      -0.0468   3.2630  11.2863   O.3       1 RES1   0.0000
     5 H1      -0.4328   2.5746  11.0025   H         1 RES1   0.0000
     6 N1       1.7242   5.2621  11.1014   N.am      1 RES1   0.0000
     7 H2       1.0351   4.8862  10.7037   H         1 RES1   0.0000
     8 C1       2.1472   4.8545  12.2734   C.2       1 RES1   0.0000
     9 C2       1.4519   3.7944  13.0414   C.ar      1 RES1   0.0000
    10 C3       0.3798   3.0509  12.5532   C.ar      1 RES1   0.0000
    11 C4      -0.2458   2.1120  13.3928   C.ar      1 RES1   0.0000
    12 H3      -0.9742   1.5957  13.0730   H         1 RES1   0.0000
    13 C5       0.2080   1.9454  14.6868   C.ar      1 RES1   0.0000
    14 H4      -0.2330   1.3258  15.2549   H         1 RES1   0.0000
    15 C6       1.2839   2.6531  15.1708   C.ar      1 RES1   0.0000
    16 H5       1.5922   2.5112  16.0587   H         1 RES1   0.0000
    17 C7       1.9128   3.5769  14.3481   C.ar      1 RES1   0.0000
    18 H6       2.6613   4.0643  14.6700   H         1 RES1   0.0000
    19 O4       5.2804   5.8651  10.5560   O.3       1 RES1   0.0000
    20 O5       5.5656   6.8839  12.8792   O.2       1 RES1   0.0000
    21 O6       9.0483   5.1739  11.4433   O.3       1 RES1   0.0000
    22 H7       9.8498   5.1175  11.1940   H         1 RES1   0.0000
    23 N2       6.4810   5.7591  11.2150   N.am      1 RES1   0.0000
    24 H8       7.1671   5.3502  10.8447   H         1 RES1   0.0000
    25 C8       6.5780   6.2878  12.4102   C.2       1 RES1   0.0000
    26 C9       7.8039   6.1473  13.2160   C.ar      1 RES1   0.0000
    27 C10      9.0028   5.6021  12.7279   C.ar      1 RES1   0.0000
    28 C11     10.1039   5.4989  13.5716   C.ar      1 RES1   0.0000
    29 H9      10.9219   5.1437  13.2413   H         1 RES1   0.0000
    30 C12     10.0114   5.9119  14.8951   C.ar      1 RES1   0.0000
    31 H10     10.7636   5.8183  15.4675   H         1 RES1   0.0000
    32 C13      8.8395   6.4599  15.3854   C.ar      1 RES1   0.0000
    33 H11      8.7830   6.7517  16.2881   H         1 RES1   0.0000
    34 C14      7.7524   6.5741  14.5416   C.ar      1 RES1   0.0000
    35 H12      6.9475   6.9527  14.8741   H         1 RES1   0.0000
    36 O7       4.2020   8.5319  10.5394   O.3       1 RES1   0.0000
    37 O8       3.1585   8.3130  12.8634   O.2       1 RES1   0.0000
    38 O9       2.9637  12.1776  11.3968   O.3       1 RES1   0.0000
    39 H13      2.5372  12.8509  11.1308   H         1 RES1   0.0000
    40 N3       3.7447   9.6554  11.1862   N.am      1 RES1   0.0000
    41 H14      3.7908  10.4525  10.8152   H         1 RES1   0.0000
    42 C15      3.2289   9.4805  12.3954   C.2       1 RES1   0.0000
    43 C16      2.7931  10.6398  13.2034   C.ar      1 RES1   0.0000
    44 C17      2.6665  11.9408  12.7047   C.ar      1 RES1   0.0000
    45 C18      2.2785  12.9706  13.5611   C.ar      1 RES1   0.0000
    46 H15      2.1771  13.8545  13.2266   H         1 RES1   0.0000
    47 C19      2.0377  12.7035  14.8972   C.ar      1 RES1   0.0000
    48 H16      1.7995  13.4140  15.4822   H         1 RES1   0.0000
    49 C20      2.1425  11.4231  15.3917   C.ar      1 RES1   0.0000
    50 H17      1.9562  11.2469  16.3070   H         1 RES1   0.0000
    51 C21      2.5169  10.4043  14.5543   C.ar      1 RES1   0.0000
    52 H18      2.5921   9.5218  14.8972   H         1 RES1   0.0000
    53 O10     11.3482   2.5429  12.1535   O.2       2 RES2   0.0000
    54 C22     11.3026   0.4777  13.1361   C.3       2 RES2   0.0000
    55 H19     12.2359   0.3304  12.8731   H         2 RES2   0.0000
    56 H20     10.7816  -0.3304  12.9509   H         2 RES2   0.0000
    57 H21     11.2614   0.6829  14.0935   H         2 RES2   0.0000
    58 C23     10.7735   1.5585  12.3996   C.2       2 RES2   0.0000
    59 C24      9.9005   1.4057  11.2929   C.3       2 RES2   0.0000
    60 H22     10.0142   0.5108  10.9078   H         2 RES2   0.0000
    61 H23     10.1136   2.0817  10.6153   H         2 RES2   0.0000
    62 H24      8.9738   1.5186  11.5895   H         2 RES2   0.0000
    63 O11      4.3162   1.4663  12.0840   O.2       3 RES3   0.0000
    64 C25      5.5747   0.5686  13.8094   C.3       3 RES3   0.0000
    65 H25      5.0378   0.5824  14.6279   H         3 RES3   0.0000
    66 H26      6.5184   0.7118  14.0324   H         3 RES3   0.0000
    67 H27      5.4720  -0.3015  13.3675   H         3 RES3   0.0000
    68 C26      5.1249   1.6136  12.9215   C.2       3 RES3   0.0000
    69 C27      5.6592   2.9243  13.0498   C.3       3 RES3   0.0000
    70 H28      5.7115   3.1638  13.9988   H         3 RES3   0.0000
    71 H29      5.0784   3.5604  12.5827   H         3 RES3   0.0000
    72 H30      6.5570   2.9518  12.6584   H         3 RES3   0.0000
    73 O12      7.6647   4.4677   8.9236   O.2       4 RES4   0.0000
    74 C28      7.4598   2.2855   8.5343   C.3       4 RES4   0.0000
    75 H31      7.4888   2.0404   9.4833   H         4 RES4   0.0000
    76 H32      7.9104   1.5971   8.0041   H         4 RES4   0.0000
    77 H33      6.5253   2.3598   8.2461   H         4 RES4   0.0000
    78 C29      8.1209   3.5480   8.3450   C.2       4 RES4   0.0000
    79 C30      9.0365   3.6953   7.2445   C.3       4 RES4   0.0000
    80 H34      9.4259   2.8238   7.0236   H         4 RES4   0.0000
    81 H35      9.7494   4.3176   7.4970   H         4 RES4   0.0000
    82 H36      8.5571   4.0464   6.4660   H         4 RES4   0.0000
@<TRIPOS>BOND
     1     1     2    1
     2     2     6    1
     3     3     1    1
     4     4     5    1
     5     6     7    1
     6     8     3    2
     7     9     8    1
     8    10     4    1
     9    11    10   ar
    10    12    11    1
    11    13    11   ar
    12    14    13    1
    13    15    13   ar
    14    16    15    1
    15    17     9   ar
    16    18    17    1
    17    19     1    1
    18    20     1    1
    19    21    22    1
    20    23    19    1
    21    24    23    1
    22    25    20    2
    23    26    25    1
    24    27    21    1
    25    28    27   ar
    26    29    28    1
    27    30    28   ar
    28    31    30    1
    29    32    30   ar
    30    33    32    1
    31    34    26   ar
    32    35    34    1
    33    36     1    1
    34    37     1    1
    35    38    39    1
    36    40    36    1
    37    41    40    1
    38    42    37    2
    39    43    42    1
    40    44    38    1
    41    45    44   ar
    42    46    45    1
    43    47    45   ar
    44    48    47    1
    45    49    47   ar
    46    50    49    1
    47    51    43   ar
    48    52    51    1
    49     6     8   am
    50     9    10   ar
    51    15    17   ar
    52    23    25   am
    53    26    27   ar
    54    32    34   ar
    55    40    42   am
    56    43    44   ar
    57    49    51   ar
    58    53    58    2
    59    54    55    1
    60    56    54    1
    61    57    54    1
    62    58    54    1
    63    59    58    1
    64    60    59    1
    65    61    59    1
    66    62    59    1
    67    63    68    2
    68    64    65    1
    69    66    64    1
    70    67    64    1
    71    68    64    1
    72    69    68    1
    73    70    69    1
    74    71    69    1
    75    72    69    1
    76    73    78    2
    77    74    75    1
    78    76    74    1
    79    77    74    1
    80    78    74    1
    81    79    78    1
    82    80    79    1
    83    81    79    1
    84    82    79    1
@<TRIPOS>SUBSTRUCTURE
     1 RES1        1 GROUP             0 ****  ****    0  
     2 RES2       53 GROUP             0 ****  ****    0  
     3 RES3       63 GROUP             0 ****  ****    0  
     4 RES4       73 GROUP             0 ****  ****    0  
@<TRIPOS>CRYSIN
   23.1974   13.7678   22.3320   90.0000  109.5750   90.0000    15     1
