@<TRIPOS>MOLECULE
ELANOV
    75    80     2     0     0
SMALL
USER_CHARGES
****
Generated from the CSD

@<TRIPOS>ATOM
     1 Fe1      3.0050   8.2124   8.4974   Fe        1 RES1   1.0000
     2 O1       2.8527   9.4077   7.0200   O.3       1 RES1   0.0000
     3 O2      -1.8076   9.8954   6.3028   O.3       1 RES1   0.0000
     4 C1      -0.5401  10.1626   5.8847   C.ar      1 RES1   0.0000
     5 N1       0.9666   8.2755   8.6515   N.2       1 RES1   0.0000
     6 O3       1.2682  11.9071   3.3287   O.3       1 RES1   0.0000
     7 C2      -0.2516  10.9052   4.7744   C.ar      1 RES1   0.0000
     8 H1      -0.9502  11.2614   4.2385   H         1 RES1   0.0000
     9 C3       2.1187  10.6166   5.1811   C.ar      1 RES1   0.0000
    10 H2       3.0198  10.7742   4.9240   H         1 RES1   0.0000
    11 C4       0.4871   9.6060   6.6959   C.ar      1 RES1   0.0000
    12 C5       1.0959  11.1347   4.4368   C.ar      1 RES1   0.0000
    13 C6       1.8403   9.8517   6.3209   C.ar      1 RES1   0.0000
    14 C7      -2.8852  10.4878   5.5754   C.3       1 RES1   0.0000
    15 H3      -2.9493  10.0732   4.6906   H         1 RES1   0.0000
    16 H4      -2.7212  11.4479   5.4746   H         1 RES1   0.0000
    17 H5      -3.7236  10.3491   6.0637   H         1 RES1   0.0000
    18 C8       2.6207  12.2213   2.9571   C.3       1 RES1   0.0000
    19 H6       2.6174  12.7505   2.1323   H         1 RES1   0.0000
    20 H7       3.1204  11.3907   2.8098   H         1 RES1   0.0000
    21 H8       3.0457  12.7356   3.6743   H         1 RES1   0.0000
    22 C9       0.1430   8.8757   7.8697   C.2       1 RES1   0.0000
    23 H9      -0.7795   8.8277   8.0940   H         1 RES1   0.0000
    24 C10      0.4578   7.6573   9.8819   C.3       1 RES1   0.0000
    25 H10     -0.5106   7.4728   9.7947   H         1 RES1   0.0000
    26 H11      0.5939   8.2659  10.6501   H         1 RES1   0.0000
    27 C11      1.2096   6.3835  10.0949   C.3       1 RES1   0.0000
    28 H12      1.0381   6.0384  11.0069   H         1 RES1   0.0000
    29 H13      0.9088   5.7028   9.4434   H         1 RES1   0.0000
    30 N2       2.6602   6.6445   9.9181   N.3       1 RES1   0.0000
    31 H14      2.9447   6.9905  10.7339   H         1 RES1   0.0000
    32 C12      3.4283   5.3941   9.7403   C.3       1 RES1   0.0000
    33 H15      3.3058   4.8228  10.5402   H         1 RES1   0.0000
    34 H16      4.3906   5.6133   9.6700   H         1 RES1   0.0000
    35 C13      3.0050   4.6065   8.4974   C.3       1 RES1   0.0000
    36 H17      2.2507   4.0198   8.7534   H         1 RES1   0.0000
    37 H18      3.7587   4.0198   8.2402   H         1 RES1   0.0000
    38 O1B      3.1574   9.4077   9.9748   O.3       1 RES1   0.0000
    39 O2B      7.8177   9.8954  10.6920   O.3       1 RES1   0.0000
    40 C1B      6.5502  10.1626  11.1100   C.ar      1 RES1   0.0000
    41 N1B      5.0434   8.2755   8.3433   N.2       1 RES1   0.0000
    42 O3B      4.7419  11.9071  13.6661   O.3       1 RES1   0.0000
    43 C2B      6.2617  10.9052  12.2204   C.ar      1 RES1   0.0000
    44 H1B      6.9602  11.2614  12.7563   H         1 RES1   0.0000
    45 C3B      3.8914  10.6166  11.8136   C.ar      1 RES1   0.0000
    46 H2B      2.9902  10.7742  12.0708   H         1 RES1   0.0000
    47 C4B      5.5230   9.6060  10.2988   C.ar      1 RES1   0.0000
    48 C5B      4.9142  11.1347  12.5580   C.ar      1 RES1   0.0000
    49 C6B      4.1698   9.8517  10.6738   C.ar      1 RES1   0.0000
    50 C7B      8.8953  10.4878  11.4194   C.3       1 RES1   0.0000
    51 H3B      8.9594  10.0732  12.3042   H         1 RES1   0.0000
    52 H4B      8.7313  11.4479  11.5202   H         1 RES1   0.0000
    53 H5B      9.7337  10.3491  10.9310   H         1 RES1   0.0000
    54 C8B      3.3894  12.2213  14.0377   C.3       1 RES1   0.0000
    55 H6B      3.3927  12.7505  14.8625   H         1 RES1   0.0000
    56 H7B      2.8896  11.3907  14.1850   H         1 RES1   0.0000
    57 H8B      2.9644  12.7356  13.3205   H         1 RES1   0.0000
    58 C9B      5.8671   8.8757   9.1251   C.2       1 RES1   0.0000
    59 H9B      6.7895   8.8277   8.9007   H         1 RES1   0.0000
    60 C10B     5.5522   7.6573   7.1129   C.3       1 RES1   0.0000
    61 H10B     6.5207   7.4728   7.2001   H         1 RES1   0.0000
    62 H11B     5.4161   8.2659   6.3447   H         1 RES1   0.0000
    63 C11B     4.8004   6.3835   6.8999   C.3       1 RES1   0.0000
    64 H12B     4.9720   6.0384   5.9878   H         1 RES1   0.0000
    65 H13B     5.1013   5.7028   7.5513   H         1 RES1   0.0000
    66 N2B      3.3499   6.6445   7.0766   N.3       1 RES1   0.0000
    67 H14B     3.0654   6.9905   6.2609   H         1 RES1   0.0000
    68 C12B     2.5818   5.3941   7.2545   C.3       1 RES1   0.0000
    69 H15B     2.7043   4.8228   6.4546   H         1 RES1   0.0000
    70 H16B     1.6195   5.6133   7.3247   H         1 RES1   0.0000
    71 Cl1     -1.9788   4.6783   8.4974   Cl        2 RES2   0.0000
    72 O4      -1.0574   3.8928   9.2191   O.3       2 RES2  -1.0000
    73 O5      -1.2744   5.5151   7.5785   O.2       2 RES2   0.0000
    74 O4B     -2.9002   3.8928   7.7757   O.2       2 RES2   0.0000
    75 O5B     -2.6832   5.5151   9.4162   O.2       2 RES2   0.0000
@<TRIPOS>BOND
     1     1     2    1
     2     2    13    1
     3     3     4    1
     4     4     7   ar
     5     5     1    1
     6     6    12    1
     7     7     8    1
     8     9    10    1
     9    11     4   ar
    10    12     7   ar
    11    13     9   ar
    12    14     3    1
    13    15    14    1
    14    16    14    1
    15    17    14    1
    16    18     6    1
    17    19    18    1
    18    20    18    1
    19    21    18    1
    20    22     5    2
    21    23    22    1
    22    24     5    1
    23    25    24    1
    24    26    24    1
    25    27    24    1
    26    28    27    1
    27    29    27    1
    28    30     1    1
    29    31    30    1
    30    32    30    1
    31    33    32    1
    32    34    32    1
    33    35    32    1
    34    36    35    1
    35    37    35    1
    36    38     1    1
    37    39    40    1
    38    40    43   ar
    39    41     1    1
    40    42    48    1
    41    43    44    1
    42    45    46    1
    43    47    40   ar
    44    48    43   ar
    45    49    38    1
    46    50    39    1
    47    51    50    1
    48    52    50    1
    49    53    50    1
    50    54    42    1
    51    55    54    1
    52    56    54    1
    53    57    54    1
    54    58    41    2
    55    59    58    1
    56    60    41    1
    57    61    60    1
    58    62    60    1
    59    63    60    1
    60    64    63    1
    61    65    63    1
    62    66     1    1
    63    67    66    1
    64    68    35    1
    65    69    68    1
    66    70    68    1
    67     9    12   ar
    68    11    13   ar
    69    11    22    1
    70    27    30    1
    71    45    48   ar
    72    45    49   ar
    73    47    49   ar
    74    47    58    1
    75    63    66    1
    76    66    68    1
    77    71    72    1
    78    73    71    2
    79    74    71    2
    80    75    71    2
@<TRIPOS>SUBSTRUCTURE
     1 RES1        1 GROUP             0 ****  ****    0  
     2 RES2       71 GROUP             0 ****  ****    0  
@<TRIPOS>CRYSIN
    9.9677   24.8597   11.6330   90.0000  103.1090   90.0000    15     1
