@<TRIPOS>MOLECULE
ELILIX
    97   106     1     0     0
SMALL
NO_CHARGES
****
Generated from the CSD

@<TRIPOS>ATOM
     1 Fe1      3.4375   3.9707  11.1848   Fe        1 RES1   0.0000
     2 C1       3.6500   2.1393  10.1633   C.ar      1 RES1   0.0000
     3 C2       2.4326   2.1976  10.9790   C.ar      1 RES1   0.0000
     4 C3       3.9505   1.8522   8.7853   C.ar      1 RES1   0.0000
     5 C4       5.2449   1.6255   8.3141   C.ar      1 RES1   0.0000
     6 H1       5.9744   1.7160   8.9162   H         1 RES1   0.0000
     7 N1       5.3481   5.9748  12.5419   N.pl3     1 RES1   0.0000
     8 C5       4.7064   6.0743  13.8140   C.ar      1 RES1   0.0000
     9 C6       0.9848   1.9106  10.7151   C.3       1 RES1   0.0000
    10 H2       0.4287   2.4644  11.3032   H         1 RES1   0.0000
    11 H3       0.8009   0.9638  10.8901   H         1 RES1   0.0000
    12 H4       0.7747   2.1162   9.7800   H         1 RES1   0.0000
    13 C7       5.5030   1.2734   7.0032   C.ar      1 RES1   0.0000
    14 H5       6.4037   1.1405   6.7282   H         1 RES1   0.0000
    15 C8       4.9499   5.2343  11.4652   C.3       1 RES1   0.0000
    16 C9       5.1288   5.2697  14.8355   C.ar      1 RES1   0.0000
    17 N2       5.9311   5.4840  10.5525   N.pl3     1 RES1   0.0000
    18 C10      4.5116   5.3979  16.0763   C.ar      1 RES1   0.0000
    19 H6       4.7602   4.8121  16.7822   H         1 RES1   0.0000
    20 C11      4.5012   1.1117   6.0935   C.ar      1 RES1   0.0000
    21 H7       4.6829   0.8430   5.2003   H         1 RES1   0.0000
    22 C12      5.9549   4.9636   9.1820   C.3       1 RES1   0.0000
    23 H8       6.8119   4.5167   9.0163   H         1 RES1   0.0000
    24 H9       5.8460   5.7039   8.5486   H         1 RES1   0.0000
    25 H10      5.2241   4.3220   9.0629   H         1 RES1   0.0000
    26 C13      3.6943   7.0033  14.0287   C.ar      1 RES1   0.0000
    27 C14      2.9662   1.7097   7.8219   C.ar      1 RES1   0.0000
    28 H11      2.0646   1.8687   8.0760   H         1 RES1   0.0000
    29 C15      6.5329   6.6379  12.2973   C.2       1 RES1   0.0000
    30 H12      7.0008   7.2043  12.8999   H         1 RES1   0.0000
    31 C16      3.1443   7.0914  15.2949   C.ar      1 RES1   0.0000
    32 H13      2.4402   7.7127  15.4453   H         1 RES1   0.0000
    33 C17      3.1794   7.8931  12.9595   C.3       1 RES1   0.0000
    34 H14      3.9126   8.4403  12.6085   H         1 RES1   0.0000
    35 H15      2.4842   8.4771  13.3290   H         1 RES1   0.0000
    36 H16      2.8009   7.3506  12.2373   H         1 RES1   0.0000
    37 C18      6.2971   4.3417  14.6283   C.3       1 RES1   0.0000
    38 H17      6.2843   4.0000  13.7093   H         1 RES1   0.0000
    39 H18      6.2344   3.5918  15.2559   H         1 RES1   0.0000
    40 H19      7.1335   4.8285  14.7834   H         1 RES1   0.0000
    41 C19      6.8983   6.3307  11.0566   C.2       1 RES1   0.0000
    42 H20      7.6767   6.6353  10.6030   H         1 RES1   0.0000
    43 C20      3.5560   6.3470  16.3015   C.ar      1 RES1   0.0000
    44 C21      3.2154   1.3538   6.5245   C.ar      1 RES1   0.0000
    45 H21      2.4943   1.2723   5.9129   H         1 RES1   0.0000
    46 C22      2.9510   6.5393  17.6675   C.3       1 RES1   0.0000
    47 H22      2.4287   5.7460  17.9080   H         1 RES1   0.0000
    48 H23      2.3669   7.3256  17.6586   H         1 RES1   0.0000
    49 H24      3.6660   6.6711  18.3257   H         1 RES1   0.0000
    50 C1A      3.2251   2.1393  12.2064   C.ar      1 RES1   0.0000
    51 C2A      4.4425   2.1976  11.3906   C.ar      1 RES1   0.0000
    52 C3A      2.9246   1.8522  13.5843   C.ar      1 RES1   0.0000
    53 C4A      1.6302   1.6255  14.0556   C.ar      1 RES1   0.0000
    54 H1A      0.9006   1.7160  13.4535   H         1 RES1   0.0000
    55 C6A      5.8903   1.9106  11.6546   C.3       1 RES1   0.0000
    56 H2A      6.4464   2.4644  11.0665   H         1 RES1   0.0000
    57 H3A      6.0742   0.9638  11.4795   H         1 RES1   0.0000
    58 H4A      6.1004   2.1162  12.5897   H         1 RES1   0.0000
    59 C7A      1.3721   1.2734  15.3665   C.ar      1 RES1   0.0000
    60 H5A      0.4714   1.1405  15.6414   H         1 RES1   0.0000
    61 C11A     2.3739   1.1117  16.2762   C.ar      1 RES1   0.0000
    62 H7A      2.1922   0.8430  17.1694   H         1 RES1   0.0000
    63 C14A     3.9089   1.7097  14.5477   C.ar      1 RES1   0.0000
    64 H11A     4.8104   1.8687  14.2937   H         1 RES1   0.0000
    65 C21A     3.6597   1.3538  15.8452   C.ar      1 RES1   0.0000
    66 H21A     4.3808   1.2723  16.4568   H         1 RES1   0.0000
    67 N1A      1.5270   5.9748   9.8277   N.pl3     1 RES1   0.0000
    68 C5A      2.1687   6.0743   8.5556   C.ar      1 RES1   0.0000
    69 C8A      1.9252   5.2343  10.9045   C.3       1 RES1   0.0000
    70 C9A      1.7463   5.2697   7.5341   C.ar      1 RES1   0.0000
    71 N2A      0.9440   5.4840  11.8171   N.pl3     1 RES1   0.0000
    72 C10A     2.3635   5.3979   6.2933   C.ar      1 RES1   0.0000
    73 H6A      2.1149   4.8121   5.5874   H         1 RES1   0.0000
    74 C12A     0.9201   4.9636  13.1877   C.3       1 RES1   0.0000
    75 H8A      0.0632   4.5167  13.3533   H         1 RES1   0.0000
    76 H9A      1.0291   5.7039  13.8210   H         1 RES1   0.0000
    77 H10A     1.6510   4.3220  13.3067   H         1 RES1   0.0000
    78 C13A     3.1808   7.0033   8.3409   C.ar      1 RES1   0.0000
    79 C15A     0.3422   6.6379  10.0723   C.2       1 RES1   0.0000
    80 H12A    -0.1257   7.2043   9.4697   H         1 RES1   0.0000
    81 C16A     3.7308   7.0914   7.0748   C.ar      1 RES1   0.0000
    82 H13A     4.4349   7.7127   6.9244   H         1 RES1   0.0000
    83 C17A     3.6957   7.8931   9.4102   C.3       1 RES1   0.0000
    84 H14A     2.9625   8.4403   9.7612   H         1 RES1   0.0000
    85 H15A     4.3909   8.4771   9.0406   H         1 RES1   0.0000
    86 H16A     4.0742   7.3506  10.1323   H         1 RES1   0.0000
    87 C18A     0.5780   4.3417   7.7414   C.3       1 RES1   0.0000
    88 H17A     0.5908   4.0000   8.6603   H         1 RES1   0.0000
    89 H18A     0.6407   3.5918   7.1138   H         1 RES1   0.0000
    90 H19A    -0.2584   4.8285   7.5863   H         1 RES1   0.0000
    91 C19A    -0.0232   6.3307  11.3131   C.2       1 RES1   0.0000
    92 H20A    -0.8016   6.6353  11.7667   H         1 RES1   0.0000
    93 C20A     3.3191   6.3470   6.0681   C.ar      1 RES1   0.0000
    94 C22A     3.9241   6.5393   4.7021   C.3       1 RES1   0.0000
    95 H22A     4.4464   5.7460   4.4617   H         1 RES1   0.0000
    96 H23A     4.5082   7.3256   4.7111   H         1 RES1   0.0000
    97 H24A     3.2091   6.6711   4.0439   H         1 RES1   0.0000
@<TRIPOS>BOND
     1     1     2   un
     2     2     3   ar
     3     3     1   un
     4     4     2    1
     5     5     4   ar
     6     6     5    1
     7     7     8    1
     8     8    16   ar
     9     9     3    1
    10    10     9    1
    11    11     9    1
    12    12     9    1
    13    13     5   ar
    14    14    13    1
    15    15     1    1
    16    16    18   ar
    17    17    15    1
    18    18    19    1
    19    20    13   ar
    20    21    20    1
    21    22    17    1
    22    23    22    1
    23    24    22    1
    24    25    22    1
    25    26     8   ar
    26    27     4   ar
    27    28    27    1
    28    29     7    1
    29    30    29    1
    30    31    26   ar
    31    32    31    1
    32    33    26    1
    33    34    33    1
    34    35    33    1
    35    36    33    1
    36    37    16    1
    37    38    37    1
    38    39    37    1
    39    40    37    1
    40    41    17    1
    41    42    41    1
    42    43    18   ar
    43    44    20   ar
    44    45    44    1
    45    46    43    1
    46    47    46    1
    47    48    46    1
    48    49    46    1
    49    50     1   un
    50    51     1   un
    51    52    50    1
    52    53    52   ar
    53    54    53    1
    54    55    51    1
    55    56    55    1
    56    57    55    1
    57    58    55    1
    58    59    53   ar
    59    60    59    1
    60    61    59   ar
    61    62    61    1
    62    63    52   ar
    63    64    63    1
    64    65    61   ar
    65    66    65    1
    66    67    68    1
    67    68    70   ar
    68    69     1    1
    69    70    72   ar
    70    71    69    1
    71    72    73    1
    72    74    71    1
    73    75    74    1
    74    76    74    1
    75    77    74    1
    76    78    68   ar
    77    79    67    1
    78    80    79    1
    79    81    78   ar
    80    82    81    1
    81    83    78    1
    82    84    83    1
    83    85    83    1
    84    86    83    1
    85    87    70    1
    86    88    87    1
    87    89    87    1
    88    90    87    1
    89    91    71    1
    90    92    91    1
    91    93    72   ar
    92    94    93    1
    93    95    94    1
    94    96    94    1
    95    97    94    1
    96     2    51   ar
    97     3    50   ar
    98     7    15    1
    99    27    44   ar
   100    29    41    2
   101    31    43   ar
   102    50    51   ar
   103    63    65   ar
   104    67    69    1
   105    79    91    2
   106    81    93   ar
@<TRIPOS>SUBSTRUCTURE
     1 RES1        1 GROUP             0 ****  ****    0  
@<TRIPOS>CRYSIN
   26.2318    9.5674   19.7212   90.0000  130.8700   90.0000    15     1
