@<TRIPOS>MOLECULE
EMOKUP01
    80    86     3     0     0
SMALL
USER_CHARGES
****
Generated from the CSD

@<TRIPOS>ATOM
     1 Fe1      4.3035   3.1029   2.8179   Fe        1 RES1   2.0000
     2 N1       5.5403   2.9270   1.2911   N.2       1 RES1   0.0000
     3 N2       3.1401   3.3314   4.3829   N.2       1 RES1   0.0000
     4 N3       5.5095   4.1701   4.0593   N.2       1 RES1   0.0000
     5 N4       3.7950   4.7270   1.7236   N.2       1 RES1   0.0000
     6 N5       6.7513   4.6193   4.0570   N.2       1 RES1   0.0000
     7 N6       5.3263   1.3906   3.4288   N.3       1 RES1   0.0000
     8 H1       5.4935   1.5198   4.3859   H         1 RES1   0.0000
     9 N7       6.9516   5.1248   5.2940   N.pl3     1 RES1   0.0000
    10 C1       4.9450   4.3922   5.2783   C.2       1 RES1   0.0000
    11 N8       2.9809   5.7297   1.8287   N.2       1 RES1   0.0000
    12 N9       3.1722   6.4872   0.7142   N.pl3     1 RES1   0.0000
    13 C2       6.6407   1.4436   2.8033   C.3       1 RES1   0.0000
    14 H2       7.0665   0.5742   2.8660   H         1 RES1   0.0000
    15 H3       7.1978   2.0865   3.2690   H         1 RES1   0.0000
    16 C3       2.4540   7.7054   0.5433   C.ar      1 RES1   0.0000
    17 C4       5.4997   3.7988   0.3763   C.2       1 RES1   0.0000
    18 H4       6.0560   3.7699  -0.3674   H         1 RES1   0.0000
    19 N10      2.6249   2.1066   2.1048   N.3       1 RES1   0.0000
    20 H5       2.5446   2.3498   1.1580   H         1 RES1   0.0000
    21 C5       3.5929   3.9248   5.4020   C.2       1 RES1   0.0000
    22 H6       3.0891   4.0484   6.1730   H         1 RES1   0.0000
    23 C6       8.2311   5.6270   5.6771   C.ar      1 RES1   0.0000
    24 C7       4.5321   4.8347   0.5734   C.2       1 RES1   0.0000
    25 C8       6.5170   1.8381   1.3617   C.3       1 RES1   0.0000
    26 H7       7.3753   2.1345   1.0192   H         1 RES1   0.0000
    27 H8       6.2177   1.0836   0.8308   H         1 RES1   0.0000
    28 C9       5.8751   5.0038   6.0604   C.2       1 RES1   0.0000
    29 H9       5.7773   5.2771   6.9428   H         1 RES1   0.0000
    30 C10      1.4967   2.7082   2.7704   C.3       1 RES1   0.0000
    31 H10      0.7015   2.1762   2.6133   H         1 RES1   0.0000
    32 H11      1.3424   3.5973   2.4156   H         1 RES1   0.0000
    33 C11      4.1179   5.9651  -0.0588   C.2       1 RES1   0.0000
    34 H12      4.4328   6.3035  -0.8649   H         1 RES1   0.0000
    35 C12      1.7666   2.7928   4.2543   C.3       1 RES1   0.0000
    36 H13      1.1270   3.3822   4.6835   H         1 RES1   0.0000
    37 H14      1.7047   1.9153   4.6623   H         1 RES1   0.0000
    38 C13      2.5261   0.6132   2.1613   C.3       1 RES1   0.0000
    39 H15      2.0652   0.3675   2.9786   H         1 RES1   0.0000
    40 H16      1.9809   0.3131   1.4173   H         1 RES1   0.0000
    41 C14     10.6587   6.5585   6.4838   C.ar      1 RES1   0.0000
    42 H17     11.4859   6.8853   6.7558   H         1 RES1   0.0000
    43 C15     10.1405   6.9645   5.2985   C.ar      1 RES1   0.0000
    44 H18     10.6136   7.5622   4.7654   H         1 RES1   0.0000
    45 C16      4.6520   0.0762   3.3277   C.3       1 RES1   0.0000
    46 H19      4.0987  -0.0486   4.1138   H         1 RES1   0.0000
    47 H20      5.3280  -0.6191   3.3310   H         1 RES1   0.0000
    48 C17      3.8015  -0.0961   2.1166   C.3       1 RES1   0.0000
    49 H21      4.2993   0.2109   1.3430   H         1 RES1   0.0000
    50 H22      3.6250  -1.0418   1.9953   H         1 RES1   0.0000
    51 C18      8.8975   6.4888   4.8799   C.ar      1 RES1   0.0000
    52 H23      8.5360   6.7592   4.0668   H         1 RES1   0.0000
    53 C19      2.0753   8.4496   1.6321   C.ar      1 RES1   0.0000
    54 H24      2.2858   8.1695   2.4922   H         1 RES1   0.0000
    55 C20      2.1660   8.1430  -0.6985   C.ar      1 RES1   0.0000
    56 H25      2.4171   7.6414  -1.4413   H         1 RES1   0.0000
    57 C21      8.7543   5.2093   6.8765   C.ar      1 RES1   0.0000
    58 H26      8.2881   4.6148   7.4174   H         1 RES1   0.0000
    59 C22      1.0854  10.0490   0.1881   C.ar      1 RES1   0.0000
    60 H27      0.6006  10.8329   0.0694   H         1 RES1   0.0000
    61 C23      1.3818   9.6131   1.4275   C.ar      1 RES1   0.0000
    62 H28      1.1090  10.1146   2.1631   H         1 RES1   0.0000
    63 C24      1.4922   9.3479  -0.8631   C.ar      1 RES1   0.0000
    64 H29      1.3246   9.6669  -1.7206   H         1 RES1   0.0000
    65 C25     10.0103   5.7016   7.2622   C.ar      1 RES1   0.0000
    66 H30     10.3889   5.4263   8.0670   H         1 RES1   0.0000
    67 As1      0.9801   2.7911  -1.6182   As        2 RES2  -1.0000
    68 F1       0.9202   1.8630  -3.0055   F         2 RES2   0.0000
    69 F2       1.1261   1.4453  -0.7384   F         2 RES2   0.0000
    70 F3       0.8198   4.0823  -2.5658   F         2 RES2   0.0000
    71 F4       1.1335   3.7325  -0.2587   F         2 RES2   0.0000
    72 F5      -0.6794   2.9154  -1.5216   F         2 RES2   0.0000
    73 F6       2.5270   2.6055  -1.6744   F         2 RES2   0.0000
    74 As2      7.3230   0.9046   6.9844   As        3 RES3  -1.0000
    75 F7       7.3277   2.2011   5.9193   F         3 RES3   0.0000
    76 F8       7.1292  -0.1094   5.6748   F         3 RES3   0.0000
    77 F9       7.4033   1.9342   8.2617   F         3 RES3   0.0000
    78 F10      8.9581   0.9812   6.9494   F         3 RES3   0.0000
    79 F11      5.7568   0.9480   6.9612   F         3 RES3   0.0000
    80 F12      7.3828  -0.3862   7.9701   F         3 RES3   0.0000
@<TRIPOS>BOND
     1     1     2    1
     2     2    17    2
     3     3     1    1
     4     4     1    1
     5     5     1    1
     6     6     4    2
     7     7     1    1
     8     8     7    1
     9     9     6    1
    10    10     4    1
    11    11     5    2
    12    12    11    1
    13    13     7    1
    14    14    13    1
    15    15    13    1
    16    16    12    1
    17    17    18    1
    18    19     1    1
    19    20    19    1
    20    21     3    2
    21    22    21    1
    22    23     9    1
    23    24     5    1
    24    25     2    1
    25    26    25    1
    26    27    25    1
    27    28     9    1
    28    29    28    1
    29    30    19    1
    30    31    30    1
    31    32    30    1
    32    33    12    1
    33    34    33    1
    34    35     3    1
    35    36    35    1
    36    37    35    1
    37    38    19    1
    38    39    38    1
    39    40    38    1
    40    41    42    1
    41    43    41   ar
    42    44    43    1
    43    45     7    1
    44    46    45    1
    45    47    45    1
    46    48    38    1
    47    49    48    1
    48    50    48    1
    49    51    23   ar
    50    52    51    1
    51    53    16   ar
    52    54    53    1
    53    55    16   ar
    54    56    55    1
    55    57    23   ar
    56    58    57    1
    57    59    60    1
    58    61    53   ar
    59    62    61    1
    60    63    55   ar
    61    64    63    1
    62    65    41   ar
    63    66    65    1
    64    10    21    1
    65    10    28    2
    66    13    25    1
    67    17    24    1
    68    24    33    2
    69    30    35    1
    70    43    51   ar
    71    45    48    1
    72    57    65   ar
    73    59    61   ar
    74    59    63   ar
    75    67    68    1
    76    69    67    1
    77    70    67    1
    78    71    67    1
    79    72    67    1
    80    73    67    1
    81    74    75    1
    82    76    74    1
    83    77    74    1
    84    78    74    1
    85    79    74    1
    86    80    74    1
@<TRIPOS>SUBSTRUCTURE
     1 RES1        1 GROUP             0 ****  ****    0  
     2 RES2       67 GROUP             0 ****  ****    0  
     3 RES3       74 GROUP             0 ****  ****    0  
@<TRIPOS>CRYSIN
    8.9968   16.5743   23.6197   90.0000   95.3330   90.0000   231     1
