@<TRIPOS>MOLECULE
EMOKUP
    80    86     3     0     0
SMALL
USER_CHARGES
****
Generated from the CSD

@<TRIPOS>ATOM
     1 Fe1      4.2684   2.9569   2.8007   Fe        1 RES1   2.0000
     2 N1       5.4999   2.7817   1.3254   N.2       1 RES1   0.0000
     3 N2       3.0753   3.1679   4.3031   N.2       1 RES1   0.0000
     4 N3       5.4317   4.0048   4.0136   N.2       1 RES1   0.0000
     5 N4       3.7692   4.5588   1.7379   N.2       1 RES1   0.0000
     6 N5       6.6667   4.4530   4.0136   N.2       1 RES1   0.0000
     7 N6       5.2402   1.2963   3.4800   N.3       1 RES1   0.0000
     8 H1       5.3864   1.4441   4.4378   H         1 RES1   0.0000
     9 N7       6.8599   4.9690   5.2561   N.pl3     1 RES1   0.0000
    10 C1       4.8493   4.2325   5.2374   C.2       1 RES1   0.0000
    11 N8       2.9397   5.5682   1.8522   N.2       1 RES1   0.0000
    12 N9       3.1436   6.3372   0.7599   N.pl3     1 RES1   0.0000
    13 C2       6.6027   1.3266   2.8471   C.3       1 RES1   0.0000
    14 H2       7.0202   0.4544   2.9281   H         1 RES1   0.0000
    15 H3       7.1619   1.9732   3.3050   H         1 RES1   0.0000
    16 C3       2.4208   7.5621   0.5784   C.ar      1 RES1   0.0000
    17 C4       5.4966   3.6588   0.3944   C.2       1 RES1   0.0000
    18 H4       6.0774   3.6393  -0.3313   H         1 RES1   0.0000
    19 N10      2.6331   1.9764   2.0146   N.3       1 RES1   0.0000
    20 H5       2.5904   2.2197   1.0662   H         1 RES1   0.0000
    21 C5       3.4976   3.7501   5.3566   C.2       1 RES1   0.0000
    22 H6       2.9832   3.8531   6.1246   H         1 RES1   0.0000
    23 C6       8.1493   5.4564   5.6494   C.ar      1 RES1   0.0000
    24 C7       4.4998   4.6790   0.5866   C.2       1 RES1   0.0000
    25 C8       6.4832   1.6998   1.3842   C.3       1 RES1   0.0000
    26 H7       7.3385   1.9992   1.0381   H         1 RES1   0.0000
    27 H8       6.1844   0.9399   0.8616   H         1 RES1   0.0000
    28 C9       5.7770   4.8453   6.0233   C.2       1 RES1   0.0000
    29 H9       5.6759   5.1194   6.9062   H         1 RES1   0.0000
    30 C10      1.4540   2.6125   2.6706   C.3       1 RES1   0.0000
    31 H10      0.6510   2.1006   2.4831   H         1 RES1   0.0000
    32 H11      1.3297   3.5133   2.3347   H         1 RES1   0.0000
    33 C11      4.1004   5.8248  -0.0475   C.2       1 RES1   0.0000
    34 H12      4.4153   6.1721  -0.8508   H         1 RES1   0.0000
    35 C12      1.7174   2.6418   4.1627   C.3       1 RES1   0.0000
    36 H13      1.0791   3.2172   4.6122   H         1 RES1   0.0000
    37 H14      1.6547   1.7504   4.5399   H         1 RES1   0.0000
    38 C13      2.4891   0.4922   2.0804   C.3       1 RES1   0.0000
    39 H15      1.9671   0.1945   1.3189   H         1 RES1   0.0000
    40 H16      1.9963   0.2612   2.8835   H         1 RES1   0.0000
    41 C14     10.5833   6.4082   6.4797   C.ar      1 RES1   0.0000
    42 H17     11.4090   6.7336   6.7573   H         1 RES1   0.0000
    43 C15     10.0519   6.8140   5.2812   C.ar      1 RES1   0.0000
    44 H18     10.5250   7.4135   4.7509   H         1 RES1   0.0000
    45 C16      4.5878  -0.0375   3.3686   C.3       1 RES1   0.0000
    46 H19      3.9868  -0.1532   4.1210   H         1 RES1   0.0000
    47 H20      5.2713  -0.7235   3.4315   H         1 RES1   0.0000
    48 C17      3.8069  -0.2494   2.0874   C.3       1 RES1   0.0000
    49 H21      4.3425   0.0507   1.3365   H         1 RES1   0.0000
    50 H22      3.6375  -1.1970   1.9719   H         1 RES1   0.0000
    51 C18      8.8181   6.3447   4.8493   C.ar      1 RES1   0.0000
    52 H23      8.4569   6.6246   4.0394   H         1 RES1   0.0000
    53 C19      2.0571   8.2955   1.6836   C.ar      1 RES1   0.0000
    54 H24      2.2748   8.0097   2.5411   H         1 RES1   0.0000
    55 C20      2.1317   7.9940  -0.6843   C.ar      1 RES1   0.0000
    56 H25      2.3760   7.4862  -1.4241   H         1 RES1   0.0000
    57 C21      8.6684   5.0213   6.8587   C.ar      1 RES1   0.0000
    58 H26      8.2070   4.4095   7.3851   H         1 RES1   0.0000
    59 C22      1.0600   9.9187   0.2224   C.ar      1 RES1   0.0000
    60 H27      0.5840  10.7083   0.0976   H         1 RES1   0.0000
    61 C23      1.3520   9.4803   1.4818   C.ar      1 RES1   0.0000
    62 H28      1.0765   9.9792   2.2156   H         1 RES1   0.0000
    63 C24      1.4711   9.1935  -0.8451   C.ar      1 RES1   0.0000
    64 H29      1.3043   9.5095  -1.7045   H         1 RES1   0.0000
    65 C25      9.9010   5.5281   7.2621   C.ar      1 RES1   0.0000
    66 H30     10.2622   5.2617   8.0764   H         1 RES1   0.0000
    67 As1      0.9848   2.7905  -1.6576   As        2 RES2  -1.0000
    68 F1       0.7973   1.8188  -3.0299   F         2 RES2   0.0000
    69 F2       1.2020   1.4440  -0.7477   F         2 RES2   0.0000
    70 F3       0.7337   4.1217  -2.6265   F         2 RES2   0.0000
    71 F4       1.2257   3.7647  -0.2968   F         2 RES2   0.0000
    72 F5      -0.6695   2.8456  -1.4327   F         2 RES2   0.0000
    73 F6       2.6021   2.7298  -1.9055   F         2 RES2   0.0000
    74 As2      7.2176   0.8023   6.9943   As        3 RES3  -1.0000
    75 F7       7.1932   2.1187   5.9277   F         3 RES3   0.0000
    76 F8       7.0500  -0.2347   5.6712   F         3 RES3   0.0000
    77 F9       7.3092   1.8514   8.3071   F         3 RES3   0.0000
    78 F10      8.8867   0.8719   6.9105   F         3 RES3   0.0000
    79 F11      5.5924   0.8491   7.0135   F         3 RES3   0.0000
    80 F12      7.3464  -0.5101   7.9943   F         3 RES3   0.0000
@<TRIPOS>BOND
     1     1     2    1
     2     2    17    2
     3     3     1    1
     4     4     1    1
     5     5     1    1
     6     6     4    2
     7     7     1    1
     8     8     7    1
     9     9     6    1
    10    10     4    1
    11    11     5    2
    12    12    11    1
    13    13     7    1
    14    14    13    1
    15    15    13    1
    16    16    12    1
    17    17    18    1
    18    19     1    1
    19    20    19    1
    20    21     3    2
    21    22    21    1
    22    23     9    1
    23    24     5    1
    24    25     2    1
    25    26    25    1
    26    27    25    1
    27    28     9    1
    28    29    28    1
    29    30    19    1
    30    31    30    1
    31    32    30    1
    32    33    12    1
    33    34    33    1
    34    35     3    1
    35    36    35    1
    36    37    35    1
    37    38    19    1
    38    39    38    1
    39    40    38    1
    40    41    42    1
    41    43    41   ar
    42    44    43    1
    43    45     7    1
    44    46    45    1
    45    47    45    1
    46    48    38    1
    47    49    48    1
    48    50    48    1
    49    51    23   ar
    50    52    51    1
    51    53    16   ar
    52    54    53    1
    53    55    16   ar
    54    56    55    1
    55    57    23   ar
    56    58    57    1
    57    59    60    1
    58    61    53   ar
    59    62    61    1
    60    63    55   ar
    61    64    63    1
    62    65    41   ar
    63    66    65    1
    64    10    21    1
    65    10    28    2
    66    13    25    1
    67    17    24    1
    68    24    33    2
    69    30    35    1
    70    43    51   ar
    71    45    48    1
    72    57    65   ar
    73    59    61   ar
    74    59    63   ar
    75    67    68    1
    76    69    67    1
    77    70    67    1
    78    71    67    1
    79    72    67    1
    80    73    67    1
    81    74    75    1
    82    76    74    1
    83    77    74    1
    84    78    74    1
    85    79    74    1
    86    80    74    1
@<TRIPOS>SUBSTRUCTURE
     1 RES1        1 GROUP             0 ****  ****    0  
     2 RES2       67 GROUP             0 ****  ****    0  
     3 RES3       74 GROUP             0 ****  ****    0  
@<TRIPOS>CRYSIN
    8.8724   16.2976   23.4941   90.0000   94.8650   90.0000   231     1
