@<TRIPOS>MOLECULE
EMUNOS
    93    98     3     0     0
SMALL
USER_CHARGES
****
Generated from the CSD

@<TRIPOS>ATOM
     1 Fe1      4.5945   9.6496   0.2530   Fe        1 RES1   1.0000
     2 O1       3.2040  11.0793  -0.0323   O.2       1 RES1   0.0000
     3 N1       3.1433   8.1162   0.0544   N.2       1 RES1   0.0000
     4 O2       4.0022   9.2146   2.1370   O.2       1 RES1   0.0000
     5 N2       5.4717  11.4008   1.0163   N.2       1 RES1   0.0000
     6 O3       4.8297   9.3829  -1.6662   O.3       1 RES1   0.0000
     7 O4       6.3568   8.8977   0.4935   O.3       1 RES1   0.0000
     8 O5       8.3531   7.2004   0.5187   O.3       1 RES1   0.0000
     9 C1       2.9710   8.0344  -2.3515   C.ar      1 RES1   0.0000
    10 C2       6.6356  11.5873   1.5100   C.2       1 RES1   0.0000
    11 H1       6.8283  12.4281   1.8588   H         1 RES1   0.0000
    12 N3       4.6215  12.4925   1.0296   N.am      1 RES1   0.0000
    13 H2       4.8174  13.2512   1.3830   H         1 RES1   0.0000
    14 C3       7.6587  10.6019   1.5646   C.ar      1 RES1   0.0000
    15 C4       3.1598   8.2748   2.2682   C.2       1 RES1   0.0000
    16 C5       7.4767   9.3028   1.0453   C.ar      1 RES1   0.0000
    17 C6       8.5836   8.4181   1.0862   C.ar      1 RES1   0.0000
    18 C7       3.4888  12.2304   0.4425   C.2       1 RES1   0.0000
    19 O6       4.0331  14.9383   1.3401   O.3       1 RES1  -1.0000
    20 O7       5.4085  10.0441  -4.1157   O.3       1 RES1   0.0000
    21 C8       9.7812   8.8136   1.6140   C.ar      1 RES1   0.0000
    22 H3      10.4968   8.2191   1.6370   H         1 RES1   0.0000
    23 N4       2.6419   7.6388   1.2544   N.am      1 RES1   0.0000
    24 H4       2.0641   7.0040   1.3225   H         1 RES1   0.0000
    25 C9       8.9078  10.9738   2.0898   C.ar      1 RES1   0.0000
    26 H5       9.0271  11.8336   2.4233   H         1 RES1   0.0000
    27 C10      2.6085   7.6601  -1.0131   C.2       1 RES1   0.0000
    28 H6       1.9267   7.0348  -0.9153   H         1 RES1   0.0000
    29 C11      2.8757  14.6487   0.7244   C.ar      1 RES1   0.0000
    30 C12      2.5439  13.3424   0.3042   C.ar      1 RES1   0.0000
    31 O8       1.2214   6.1762   2.8365   O.3       1 RES1  -1.0000
    32 C13      1.8766   6.7802   3.8478   C.ar      1 RES1   0.0000
    33 C14      2.7681   7.8342   3.6238   C.ar      1 RES1   0.0000
    34 C15      4.3424   9.1938  -3.9546   C.ar      1 RES1   0.0000
    35 C16      5.6265  10.6351  -5.3499   C.3       1 RES1   0.0000
    36 H7       5.9497   9.9766  -5.9674   H         1 RES1   0.0000
    37 H8       6.2775  11.3350  -5.2578   H         1 RES1   0.0000
    38 H9       4.8037  11.0058  -5.6771   H         1 RES1   0.0000
    39 C17      3.3744   8.4287   4.7163   C.ar      1 RES1   0.0000
    40 H10      3.9589   9.1393   4.5824   H         1 RES1   0.0000
    41 C18      9.3792   6.2200   0.6302   C.3       1 RES1   0.0000
    42 H11     10.1533   6.5113   0.1452   H         1 RES1   0.0000
    43 H12      9.0679   5.3886   0.2661   H         1 RES1   0.0000
    44 H13      9.6071   6.0992   1.5544   H         1 RES1   0.0000
    45 C19      1.3217  13.1162  -0.2951   C.ar      1 RES1   0.0000
    46 H14      1.0946  12.2541  -0.5605   H         1 RES1   0.0000
    47 C20      3.1283   7.9905   5.9981   C.ar      1 RES1   0.0000
    48 H15      3.5414   8.4015   6.7234   H         1 RES1   0.0000
    49 C21      2.2231   7.5204  -3.4135   C.ar      1 RES1   0.0000
    50 H16      1.5032   6.9578  -3.2398   H         1 RES1   0.0000
    51 C22      3.6029   8.6739  -4.9848   C.ar      1 RES1   0.0000
    52 H17      3.8143   8.8823  -5.8666   H         1 RES1   0.0000
    53 C23      9.9333  10.1010   2.1162   C.ar      1 RES1   0.0000
    54 H18     10.7514  10.3615   2.4737   H         1 RES1   0.0000
    55 C24      4.0553   8.8871  -2.6071   C.ar      1 RES1   0.0000
    56 C25      2.2739   6.9472   6.1892   C.ar      1 RES1   0.0000
    57 H19      2.1127   6.6440   7.0541   H         1 RES1   0.0000
    58 C26      2.5364   7.8330  -4.6990   C.ar      1 RES1   0.0000
    59 H20      2.0317   7.4801  -5.3949   H         1 RES1   0.0000
    60 C27      1.9788  15.6732   0.4677   C.ar      1 RES1   0.0000
    61 H21      2.1936  16.5436   0.7096   H         1 RES1   0.0000
    62 C28      1.6520   6.3396   5.1429   C.ar      1 RES1   0.0000
    63 H22      1.0745   5.6278   5.2981   H         1 RES1   0.0000
    64 C29      0.4296  14.1466  -0.5080   C.ar      1 RES1   0.0000
    65 H23     -0.4005  13.9820  -0.8951   H         1 RES1   0.0000
    66 C30      0.7869  15.4197  -0.1371   C.ar      1 RES1   0.0000
    67 H24      0.2017  16.1232  -0.3024   H         1 RES1   0.0000
    68 N5       5.9719   4.3476   4.3050   N.4       2 RES2   1.0000
    69 C31      5.1698   5.3720   3.5758   C.3       2 RES2   0.0000
    70 H25      4.5614   5.7996   4.1974   H         2 RES2   0.0000
    71 H26      4.6380   4.9315   2.8950   H         2 RES2   0.0000
    72 C32      6.9148   4.9327   5.2852   C.3       2 RES2   0.0000
    73 H27      7.5462   5.4952   4.8102   H         2 RES2   0.0000
    74 H28      7.4167   4.2138   5.6993   H         2 RES2   0.0000
    75 C33      5.8692   2.1318   5.4332   C.3       2 RES2   0.0000
    76 H29      6.4094   1.7433   4.7397   H         2 RES2   0.0000
    77 H30      5.2589   1.4733   5.7699   H         2 RES2   0.0000
    78 H31      6.4352   2.4385   6.1448   H         2 RES2   0.0000
    79 C34      6.0265   6.4225   2.9281   C.3       2 RES2   0.0000
    80 H32      5.4971   6.9306   2.3083   H         2 RES2   0.0000
    81 H33      6.7506   5.9997   2.4596   H         2 RES2   0.0000
    82 H34      6.3800   7.0076   3.6026   H         2 RES2   0.0000
    83 C35      5.0940   3.2959   4.8707   C.3       2 RES2   0.0000
    84 H35      4.4985   2.9738   4.1772   H         2 RES2   0.0000
    85 H36      4.5493   3.6820   5.5743   H         2 RES2   0.0000
    86 C36      6.2514   5.7581   6.3787   C.3       2 RES2   0.0000
    87 H37      5.8167   6.5184   5.9856   H         2 RES2   0.0000
    88 H38      6.9180   6.0566   7.0017   H         2 RES2   0.0000
    89 H39      5.6027   5.2193   6.8363   H         2 RES2   0.0000
    90 H40      6.5053   3.9082   3.6994   H         2 RES2   0.0000
    91 O9       7.5108   3.2640   2.2715   O.3       3 RES3   0.0000
    92 H41      7.4747   3.7199   1.5564   H         3 RES3   0.0000
    93 H42      8.2871   2.9193   2.2680   H         3 RES3   0.0000
@<TRIPOS>BOND
     1     1     2    1
     2     2    18    2
     3     3     1    1
     4     4     1    1
     5     5     1    1
     6     6     1    1
     7     7     1    1
     8     8    17    1
     9     9    27    1
    10    10     5    2
    11    11    10    1
    12    12     5    1
    13    13    12    1
    14    14    10    1
    15    15     4    2
    16    16     7    1
    17    17    16   ar
    18    18    12   am
    19    19    29    1
    20    20    34    1
    21    21    17   ar
    22    22    21    1
    23    23     3    1
    24    24    23    1
    25    25    14   ar
    26    26    25    1
    27    27     3    2
    28    28    27    1
    29    29    30   ar
    30    30    18    1
    31    31    32    1
    32    32    33   ar
    33    33    15    1
    34    34    51   ar
    35    35    20    1
    36    36    35    1
    37    37    35    1
    38    38    35    1
    39    39    33   ar
    40    40    39    1
    41    41     8    1
    42    42    41    1
    43    43    41    1
    44    44    41    1
    45    45    30   ar
    46    46    45    1
    47    47    39   ar
    48    48    47    1
    49    49     9   ar
    50    50    49    1
    51    51    52    1
    52    53    21   ar
    53    54    53    1
    54    55     6    1
    55    56    47   ar
    56    57    56    1
    57    58    49   ar
    58    59    58    1
    59    60    29   ar
    60    61    60    1
    61    62    32   ar
    62    63    62    1
    63    64    45   ar
    64    65    64    1
    65    66    60   ar
    66    67    66    1
    67     9    55   ar
    68    14    16   ar
    69    15    23   am
    70    25    53   ar
    71    34    55   ar
    72    51    58   ar
    73    56    62   ar
    74    64    66   ar
    75    68    69    1
    76    69    70    1
    77    71    69    1
    78    72    68    1
    79    73    72    1
    80    74    72    1
    81    75    76    1
    82    77    75    1
    83    78    75    1
    84    79    69    1
    85    80    79    1
    86    81    79    1
    87    82    79    1
    88    83    68    1
    89    84    83    1
    90    85    83    1
    91    86    72    1
    92    87    86    1
    93    88    86    1
    94    89    86    1
    95    90    68    1
    96    75    83    1
    97    91    92    1
    98    93    91    1
@<TRIPOS>SUBSTRUCTURE
     1 RES1        1 GROUP             0 ****  ****    0  
     2 RES2       68 GROUP             0 ****  ****    0  
     3 RES3       91 GROUP             0 ****  ****    0  
@<TRIPOS>CRYSIN
   15.0229   11.8431   21.0740   90.0000  106.9340   90.0000   231     1
