@<TRIPOS>MOLECULE
ENEKOZ
    75    82     1     0     0
SMALL
NO_CHARGES
****
Generated from the CSD

@<TRIPOS>ATOM
     1 Fe1      3.3616   4.2085   8.9203   Fe        1 RES1   0.0000
     2 O1       2.6427   4.9050  10.6353   O.3       1 RES1   0.0000
     3 O2       1.4336   3.6504   8.5221   O.2       1 RES1   0.0000
     4 O3       0.4130   2.2970   6.6315   O.3       1 RES1   0.0000
     5 H1       1.0167   2.8449   7.0845   H         1 RES1   0.0000
     6 O4      -2.8807   2.7380  11.6235   O.2       1 RES1   0.0000
     7 O5       3.2066   6.1797   7.9937   O.2       1 RES1   0.0000
     8 N1       2.6064   7.5845   6.3340   N.am      1 RES1   0.0000
     9 C1       1.3496   5.1688  12.5498   C.ar      1 RES1   0.0000
    10 H2       2.0450   5.6435  12.9434   H         1 RES1   0.0000
    11 C2       1.5260   4.6630  11.2296   C.ar      1 RES1   0.0000
    12 C3       0.4288   3.9231  10.6580   C.ar      1 RES1   0.0000
    13 C4       0.4626   3.4206   9.3105   C.2       1 RES1   0.0000
    14 C5      -0.6505   2.6286   8.7826   C.ar      1 RES1   0.0000
    15 C6      -0.6151   2.0840   7.4786   C.ar      1 RES1   0.0000
    16 C7      -1.6693   1.3097   7.0110   C.ar      1 RES1   0.0000
    17 H3      -1.6323   0.9511   6.1532   H         1 RES1   0.0000
    18 C8      -2.7610   1.0698   7.7999   C.ar      1 RES1   0.0000
    19 H4      -3.4598   0.5505   7.4734   H         1 RES1   0.0000
    20 C9      -2.8357   1.5916   9.0789   C.ar      1 RES1   0.0000
    21 H5      -3.5819   1.4267   9.6072   H         1 RES1   0.0000
    22 C10     -1.7912   2.3643   9.5692   C.ar      1 RES1   0.0000
    23 C11     -1.8892   2.9333  10.9345   C.2       1 RES1   0.0000
    24 C12     -0.7448   3.7236  11.4455   C.ar      1 RES1   0.0000
    25 C13     -0.8598   4.2556  12.7100   C.ar      1 RES1   0.0000
    26 H6      -1.6401   4.1302  13.2003   H         1 RES1   0.0000
    27 C14      0.2003   4.9828  13.2549   C.ar      1 RES1   0.0000
    28 H7       0.1200   5.3430  14.1084   H         1 RES1   0.0000
    29 C15      2.6763   6.3935   6.8974   C.2       1 RES1   0.0000
    30 H8       2.3046   5.6721   6.4422   H         1 RES1   0.0000
    31 C16      3.1789   8.7325   7.0010   C.3       1 RES1   0.0000
    32 H9       2.5518   9.0751   7.6429   H         1 RES1   0.0000
    33 H10      3.3774   9.4126   6.3530   H         1 RES1   0.0000
    34 H11      3.9862   8.4725   7.4502   H         1 RES1   0.0000
    35 C17      1.8529   7.8058   5.1072   C.3       1 RES1   0.0000
    36 H12      2.4148   8.2393   4.4602   H         1 RES1   0.0000
    37 H13      1.0933   8.3622   5.2951   H         1 RES1   0.0000
    38 H14      1.5548   6.9633   4.7581   H         1 RES1   0.0000
    39 O1B      4.0806   3.5119   7.2053   O.3       1 RES1   0.0000
    40 O2B      5.2897   4.7665   9.3185   O.2       1 RES1   0.0000
    41 O3B      6.3103   6.1199  11.2091   O.3       1 RES1   0.0000
    42 H1B      5.7066   5.5720  10.7561   H         1 RES1   0.0000
    43 O4B      9.6040   5.6789   6.2171   O.2       1 RES1   0.0000
    44 O5B      3.5167   2.2372   9.8469   O.2       1 RES1   0.0000
    45 N1B      4.1169   0.8324  11.5067   N.am      1 RES1   0.0000
    46 C1B      5.3737   3.2481   5.2908   C.ar      1 RES1   0.0000
    47 H2B      4.6782   2.7734   4.8972   H         1 RES1   0.0000
    48 C2B      5.1973   3.7539   6.6110   C.ar      1 RES1   0.0000
    49 C3B      6.2945   4.4938   7.1826   C.ar      1 RES1   0.0000
    50 C4B      6.2607   4.9963   8.5301   C.2       1 RES1   0.0000
    51 C5B      7.3738   5.7883   9.0580   C.ar      1 RES1   0.0000
    52 C6B      7.3383   6.3329  10.3620   C.ar      1 RES1   0.0000
    53 C7B      8.3926   7.1072  10.8296   C.ar      1 RES1   0.0000
    54 H3B      8.3556   7.4658  11.6874   H         1 RES1   0.0000
    55 C8B      9.4843   7.3471  10.0407   C.ar      1 RES1   0.0000
    56 H4B     10.1831   7.8664  10.3672   H         1 RES1   0.0000
    57 C9B      9.5590   6.8253   8.7617   C.ar      1 RES1   0.0000
    58 H5B     10.3052   6.9902   8.2334   H         1 RES1   0.0000
    59 C10B     8.5145   6.0526   8.2714   C.ar      1 RES1   0.0000
    60 C11B     8.6124   5.4836   6.9061   C.2       1 RES1   0.0000
    61 C12B     7.4680   4.6933   6.3951   C.ar      1 RES1   0.0000
    62 C13B     7.5831   4.1613   5.1306   C.ar      1 RES1   0.0000
    63 H6B      8.3634   4.2867   4.6403   H         1 RES1   0.0000
    64 C14B     6.5230   3.4341   4.5858   C.ar      1 RES1   0.0000
    65 H7B      6.6033   3.0739   3.7323   H         1 RES1   0.0000
    66 C15B     4.0470   2.0234  10.9433   C.2       1 RES1   0.0000
    67 H8B      4.4187   2.7448  11.3984   H         1 RES1   0.0000
    68 C16B     3.5444  -0.3156  10.8396   C.3       1 RES1   0.0000
    69 H9B      4.1715  -0.6582  10.1977   H         1 RES1   0.0000
    70 H10B     3.3458  -0.9957  11.4876   H         1 RES1   0.0000
    71 H11B     2.7371  -0.0556  10.3904   H         1 RES1   0.0000
    72 C17B     4.8704   0.6111  12.7334   C.3       1 RES1   0.0000
    73 H12B     4.3085   0.1776  13.3805   H         1 RES1   0.0000
    74 H13B     5.6300   0.0547  12.5455   H         1 RES1   0.0000
    75 H14B     5.1685   1.4536  13.0825   H         1 RES1   0.0000
@<TRIPOS>BOND
     1     1     2    1
     2     2    11    1
     3     3     1    1
     4     4     5    1
     5     6    23    2
     6     7     1    1
     7     8    29   am
     8     9    10    1
     9    11     9   ar
    10    12    11   ar
    11    13     3    2
    12    14    13    1
    13    15     4    1
    14    16    15   ar
    15    17    16    1
    16    18    16   ar
    17    19    18    1
    18    20    18   ar
    19    21    20    1
    20    22    14   ar
    21    23    22    1
    22    24    12   ar
    23    25    24   ar
    24    26    25    1
    25    27     9   ar
    26    28    27    1
    27    29     7    2
    28    30    29    1
    29    31     8    1
    30    32    31    1
    31    33    31    1
    32    34    31    1
    33    35     8    1
    34    36    35    1
    35    37    35    1
    36    38    35    1
    37    39     1    1
    38    40     1    1
    39    41    42    1
    40    43    60    2
    41    44     1    1
    42    45    66   am
    43    46    47    1
    44    48    39    1
    45    49    48   ar
    46    50    40    2
    47    51    50    1
    48    52    41    1
    49    53    52   ar
    50    54    53    1
    51    55    53   ar
    52    56    55    1
    53    57    55   ar
    54    58    57    1
    55    59    51   ar
    56    60    59    1
    57    61    49   ar
    58    62    61   ar
    59    63    62    1
    60    64    46   ar
    61    65    64    1
    62    66    44    2
    63    67    66    1
    64    68    45    1
    65    69    68    1
    66    70    68    1
    67    71    68    1
    68    72    45    1
    69    73    72    1
    70    74    72    1
    71    75    72    1
    72    12    13    1
    73    14    15   ar
    74    20    22   ar
    75    23    24    1
    76    25    27   ar
    77    46    48   ar
    78    49    50    1
    79    51    52   ar
    80    57    59   ar
    81    60    61    1
    82    62    64   ar
@<TRIPOS>SUBSTRUCTURE
     1 RES1        1 GROUP             0 ****  ****    0  
@<TRIPOS>CRYSIN
   10.0131    8.4169   18.1414   90.0000  100.4480   90.0000   231     1
