@<TRIPOS>MOLECULE
ENUHED
    88    98     2     0     0
SMALL
NO_CHARGES
****
Generated from the CSD

@<TRIPOS>ATOM
     1 C1       9.3822   5.1726   7.5355   C.2       1 RES1   0.0000
     2 C2      10.3621   4.1225   7.7424   C.2       1 RES1   0.0000
     3 C3      10.6303   3.5826   6.4819   C.2       1 RES1   0.0000
     4 C4      11.5207   2.5237   6.3322   C.2       1 RES1   0.0000
     5 H1      11.7039   2.1551   5.4760   H         1 RES1   0.0000
     6 C5      12.1288   2.0266   7.4687   C.2       1 RES1   0.0000
     7 H2      12.7273   1.2921   7.3931   H         1 RES1   0.0000
     8 C6      11.8811   2.5827   8.7270   C.2       1 RES1   0.0000
     9 H3      12.3238   2.2290   9.4892   H         1 RES1   0.0000
    10 C7      10.9986   3.6414   8.8800   C.2       1 RES1   0.0000
    11 H4      10.8351   4.0243   9.7338   H         1 RES1   0.0000
    12 C8       8.0415   6.8874   8.3297   C.2       1 RES1   0.0000
    13 C9       7.5149   7.7042   9.4089   C.2       1 RES1   0.0000
    14 C10      7.7722   7.7295  10.7770   C.2       1 RES1   0.0000
    15 H5       8.3797   7.1181  11.1754   H         1 RES1   0.0000
    16 C11      7.1082   8.6811  11.5354   C.2       1 RES1   0.0000
    17 H6       7.2755   8.7322  12.4697   H         1 RES1   0.0000
    18 C12      6.1962   9.5675  10.9505   C.2       1 RES1   0.0000
    19 H7       5.7459  10.2005  11.4973   H         1 RES1   0.0000
    20 C13      5.9388   9.5401   9.5910   C.2       1 RES1   0.0000
    21 H8       5.3183  10.1407   9.1949   H         1 RES1   0.0000
    22 C14      6.6223   8.5980   8.8246   C.2       1 RES1   0.0000
    23 C15      6.6404   8.3360   7.3998   C.2       1 RES1   0.0000
    24 C16      5.9136   8.7697   5.2355   C.2       1 RES1   0.0000
    25 C17      9.1858   9.7822   5.1828   C.3       1 RES1   0.0000
    26 H9       9.9969  10.3222   5.0768   H         1 RES1   0.0000
    27 H10      8.7580  10.0004   6.0374   H         1 RES1   0.0000
    28 H11      8.5664   9.9752   4.4487   H         1 RES1   0.0000
    29 C18     10.5700   7.8241   3.6218   C.3       1 RES1   0.0000
    30 H12      9.9740   7.9507   2.8537   H         1 RES1   0.0000
    31 H13     10.9587   6.9256   3.5889   H         1 RES1   0.0000
    32 H14     11.2864   8.4921   3.5923   H         1 RES1   0.0000
    33 C19     10.9136   7.9141   6.4378   C.3       1 RES1   0.0000
    34 H15     11.3025   7.0143   6.4377   H         1 RES1   0.0000
    35 H16     10.5189   8.0987   7.3158   H         1 RES1   0.0000
    36 H17     11.6151   8.5726   6.2505   H         1 RES1   0.0000
    37 Fe1      7.8707   6.5507   5.3864   Fe        1 RES1   0.0000
    38 N1       9.0821   5.2771   6.2013   N.2       1 RES1   0.0000
    39 N2       8.9003   5.8992   8.5379   N.2       1 RES1   0.0000
    40 N3       7.5114   7.3083   7.1285   N.2       1 RES1   0.0000
    41 N4       5.8925   9.0151   6.5389   N.2       1 RES1   0.0000
    42 P1       9.6248   8.0188   5.1582   P.3       1 RES1   0.0000
    43 C1A      6.3592   7.9288   3.2372   C.2       1 RES1   0.0000
    44 C2A      5.3793   8.9789   3.0304   C.2       1 RES1   0.0000
    45 C3A      5.1110   9.5188   4.2908   C.2       1 RES1   0.0000
    46 C4A      4.2207  10.5777   4.4405   C.2       1 RES1   0.0000
    47 H1A      4.0375  10.9463   5.2967   H         1 RES1   0.0000
    48 C5A      3.6125  11.0747   3.3040   C.2       1 RES1   0.0000
    49 H2A      3.0141  11.8093   3.3797   H         1 RES1   0.0000
    50 C6A      3.8603  10.5186   2.0457   C.2       1 RES1   0.0000
    51 H3A      3.4176  10.8724   1.2835   H         1 RES1   0.0000
    52 C7A      4.7428   9.4600   1.8928   C.2       1 RES1   0.0000
    53 H4A      4.9063   9.0771   1.0390   H         1 RES1   0.0000
    54 C8A      7.6999   6.2140   2.4430   C.2       1 RES1   0.0000
    55 C9A      8.2265   5.3972   1.3638   C.2       1 RES1   0.0000
    56 C10A     7.9692   5.3719  -0.0043   C.2       1 RES1   0.0000
    57 H5A      7.3617   5.9833  -0.4027   H         1 RES1   0.0000
    58 C11A     8.6332   4.4203  -0.7627   C.2       1 RES1   0.0000
    59 H6A      8.4658   4.3691  -1.6970   H         1 RES1   0.0000
    60 C12A     9.5452   3.5339  -0.1777   C.2       1 RES1   0.0000
    61 H7A      9.9955   2.9009  -0.7246   H         1 RES1   0.0000
    62 C13A     9.8026   3.5613   1.1818   C.2       1 RES1   0.0000
    63 H8A     10.4231   2.9607   1.5778   H         1 RES1   0.0000
    64 C14A     9.1191   4.5034   1.9481   C.2       1 RES1   0.0000
    65 C15A     9.1010   4.7654   3.3729   C.2       1 RES1   0.0000
    66 C16A     9.8278   4.3317   5.5372   C.2       1 RES1   0.0000
    67 N1A      6.6593   7.8243   4.5714   N.2       1 RES1   0.0000
    68 N2A      6.8411   7.2022   2.2348   N.2       1 RES1   0.0000
    69 N3A      8.2300   5.7931   3.6442   N.2       1 RES1   0.0000
    70 N4A      9.8489   4.0863   4.2338   N.2       1 RES1   0.0000
    71 C17A     6.5556   3.3192   5.5900   C.3       1 RES1   0.0000
    72 H9A      5.7445   2.7792   5.6959   H         1 RES1   0.0000
    73 H10A     6.9833   3.1010   4.7354   H         1 RES1   0.0000
    74 H11A     7.1750   3.1262   6.3240   H         1 RES1   0.0000
    75 C18A     5.1714   5.2772   7.1509   C.3       1 RES1   0.0000
    76 H12A     5.7674   5.1507   7.9190   H         1 RES1   0.0000
    77 H13A     4.7827   6.1758   7.1838   H         1 RES1   0.0000
    78 H14A     4.4550   4.6093   7.1804   H         1 RES1   0.0000
    79 C19A     4.8278   5.1872   4.3349   C.3       1 RES1   0.0000
    80 H15A     4.4389   6.0871   4.3350   H         1 RES1   0.0000
    81 H16A     5.2225   5.0027   3.4569   H         1 RES1   0.0000
    82 H17A     4.1263   4.5288   4.5222   H         1 RES1   0.0000
    83 P1A      6.1166   5.0826   5.6145   P.3       1 RES1   0.0000
    84 C20     10.5734  11.6062   9.4014   C.3       2 RES2   0.0000
    85 H18     10.9470  11.3710  10.2989   H         2 RES2   0.0000
    86 Cl1      9.1820  10.5835   9.0915   Cl        2 RES2   0.0000
    87 Cl2     10.0934  13.3026   9.4201   Cl        2 RES2   0.0000
    88 Cl3     11.8145  11.3344   8.1902   Cl        2 RES2   0.0000
@<TRIPOS>BOND
     1     1     2    2
     2     2     3    1
     3     3     4    1
     4     4     5    1
     5     6     4    2
     6     7     6    1
     7     8     6    1
     8     9     8    1
     9    10     2    1
    10    11    10    1
    11    12    13    1
    12    13    14    1
    13    14    15    1
    14    16    14    2
    15    17    16    1
    16    18    16    1
    17    19    18    1
    18    20    18    2
    19    21    20    1
    20    22    13    2
    21    23    22    1
    22    24    41    2
    23    25    26    1
    24    27    25    1
    25    28    25    1
    26    29    30    1
    27    31    29    1
    28    32    29    1
    29    33    34    1
    30    35    33    1
    31    36    33    1
    32    37    38    1
    33    38     1    1
    34    39     1    1
    35    40    12    1
    36    41    23    1
    37    42    25    1
    38    43    44    1
    39    44    45    2
    40    45    24    1
    41    46    45    1
    42    47    46    1
    43    48    46    2
    44    49    48    1
    45    50    48    1
    46    51    50    1
    47    52    44    1
    48    53    52    1
    49    54    55    1
    50    55    56    1
    51    56    57    1
    52    58    56    2
    53    59    58    1
    54    60    58    1
    55    61    60    1
    56    62    60    2
    57    63    62    1
    58    64    55    2
    59    65    64    1
    60    66     3    2
    61    67    24    1
    62    68    43    2
    63    69    37    1
    64    70    65    2
    65    71    72    1
    66    73    71    1
    67    74    71    1
    68    75    76    1
    69    77    75    1
    70    78    75    1
    71    79    80    1
    72    81    79    1
    73    82    79    1
    74    83    37    1
    75     8    10    2
    76    12    39    2
    77    20    22    1
    78    23    40    2
    79    29    42    1
    80    33    42    1
    81    37    40    1
    82    37    42    1
    83    37    67    1
    84    38    66    1
    85    43    67    1
    86    50    52    2
    87    54    68    1
    88    54    69    2
    89    62    64    1
    90    65    69    1
    91    66    70    1
    92    71    83    1
    93    75    83    1
    94    79    83    1
    95    84    85    1
    96    86    84    1
    97    87    84    1
    98    88    84    1
@<TRIPOS>SUBSTRUCTURE
     1 RES1        1 GROUP             0 ****  ****    0  
     2 RES2       84 GROUP             0 ****  ****    0  
@<TRIPOS>CRYSIN
    8.8972   10.9478   11.6680   72.0950   71.9060   72.8930     2     1
