@<TRIPOS>MOLECULE
EQICOZ
   273   304     3     0     0
SMALL
USER_CHARGES
****
Generated from the CSD

@<TRIPOS>ATOM
     1 Dy1     11.3308  -4.3302   6.0146   Dy        1 RES1   0.0000
     2 Dy2     13.0567  -1.0625   6.7636   Dy        1 RES1   0.0000
     3 Dy3     12.3217  -3.4555   9.5611   Dy        1 RES1   0.0000
     4 Fe1     14.6435  -4.1636   7.0692   Fe        1 RES1   1.0000
     5 O1      13.4314  -3.2546   5.7521   O.3       1 RES1   0.0000
     6 H1      13.7562  -3.2612   4.9442   H         1 RES1   0.0000
     7 O2      15.2829  -0.8393   5.8974   O.co2     1 RES1   0.0000
     8 O3      15.1422  -5.7252   5.9379   O.3       1 RES1   0.0000
     9 H2      14.4108  -6.0240   5.5564   H         1 RES1   0.0000
    10 O4      16.3720  -3.4153   6.3786   O.3       1 RES1   0.0000
    11 H3      16.2827  -2.5520   6.2775   H         1 RES1   0.0000
    12 O5      11.4153  -2.5495   7.5665   O.3       1 RES1   0.0000
    13 H4      10.6423  -2.1559   7.6206   H         1 RES1   0.0000
    14 O6      13.1766   0.0238   8.8119   O.co2     1 RES1   0.0000
    15 O7      12.5065  -4.1077  11.8523   O.co2     1 RES1   0.0000
    16 O8      12.2400  -0.9390   4.6155   O.co2     1 RES1   0.0000
    17 O9      11.1443   0.3669   6.9038   O.3       1 RES1   0.0000
    18 H5      11.0819   0.9946   7.5075   H         1 RES1   0.0000
    19 O10     14.1174   1.0021   6.1075   O.co2     1 RES1   0.0000
    20 O11     14.2177  -4.4918  10.5457   O.co2     1 RES1   0.0000
    21 O12     13.0008  -1.4606  10.4572   O.co2     1 RES1   0.0000
    22 O13     10.2105  -5.7639   7.4340   O.co2     1 RES1   0.0000
    23 O14     12.5452  -6.1937   5.0785   O.co2     1 RES1   0.0000
    24 O15     10.6376  -5.0171   9.4742   O.co2     1 RES1   0.0000
    25 O16     10.3764  -2.3637  10.4469   O.3       1 RES1   0.0000
    26 H6       9.6139  -2.3088  10.0383   H         1 RES1   0.0000
    27 O17     11.0210  -2.7732   4.3363   O.co2     1 RES1   0.0000
    28 C1      15.1838   0.4213   5.7515   C.2       1 RES1   0.0000
    29 C2      16.3112   1.2209   5.2072   C.ar      1 RES1   0.0000
    30 C3      11.5088  -1.6985   3.9248   C.2       1 RES1   0.0000
    31 C4      11.1815  -1.2786   2.5195   C.ar      1 RES1   0.0000
    32 C5      16.9272  -0.5167   3.4385   C.3       1 RES1   0.0000
    33 H7      15.9876  -0.6977   3.3734   H         1 RES1   0.0000
    34 H8      17.3583  -1.2270   3.9164   H         1 RES1   0.0000
    35 H9      17.3015  -0.4497   2.5562   H         1 RES1   0.0000
    36 C6      12.0678  -0.5656   1.7192   C.ar      1 RES1   0.0000
    37 C7       9.9230  -1.6329   2.0303   C.ar      1 RES1   0.0000
    38 H10      9.3417  -2.1268   2.5605   H         1 RES1   0.0000
    39 C8      17.1361   0.7718   4.1652   C.ar      1 RES1   0.0000
    40 C9      16.5192   2.4722   5.7812   C.ar      1 RES1   0.0000
    41 H11     15.9445   2.7720   6.4486   H         1 RES1   0.0000
    42 C10     11.6547  -0.2440   0.4213   C.ar      1 RES1   0.0000
    43 H12     12.2458   0.2039  -0.1400   H         1 RES1   0.0000
    44 C11      9.5390  -1.2503   0.7522   C.ar      1 RES1   0.0000
    45 H13      8.6875  -1.4559   0.4397   H         1 RES1   0.0000
    46 C12     17.5688   3.2746   5.3698   C.ar      1 RES1   0.0000
    47 H14     17.7123   4.1018   5.7699   H         1 RES1   0.0000
    48 C13     10.4155  -0.5681  -0.0481   C.ar      1 RES1   0.0000
    49 H15     10.1681  -0.3255  -0.9105   H         1 RES1   0.0000
    50 C14     18.3911   2.8371   4.3674   C.ar      1 RES1   0.0000
    51 H16     19.1011   3.3679   4.0874   H         1 RES1   0.0000
    52 C15     18.1795   1.6209   3.7764   C.ar      1 RES1   0.0000
    53 H17     18.7468   1.3507   3.0921   H         1 RES1   0.0000
    54 C16     13.4553  -0.1998   2.1533   C.3       1 RES1   0.0000
    55 H18     13.8876  -0.9721   2.5280   H         1 RES1   0.0000
    56 H19     13.4118   0.4943   2.8150   H         1 RES1   0.0000
    57 H20     13.9554   0.1111   1.3955   H         1 RES1   0.0000
    58 C17     12.1820  -8.8204   3.6265   C.ar      1 RES1   0.0000
    59 C18     11.7869  -7.5491   3.2561   C.ar      1 RES1   0.0000
    60 C19     12.5413  -9.1780   5.0234   C.3       1 RES1   0.0000
    61 H21     11.8788  -8.8294   5.6243   H         1 RES1   0.0000
    62 H22     13.3982  -8.8026   5.2397   H         1 RES1   0.0000
    63 H23     12.5798 -10.1338   5.1096   H         1 RES1   0.0000
    64 C20     11.8694  -9.5220   1.3389   C.ar      1 RES1   0.0000
    65 H24     11.8942 -10.1981   0.7013   H         1 RES1   0.0000
    66 C21     11.6768  -6.4296   4.2246   C.2       1 RES1   0.0000
    67 C22     12.1955  -9.8071   2.6269   C.ar      1 RES1   0.0000
    68 H25     12.4340 -10.6778   2.8531   H         1 RES1   0.0000
    69 C23     11.4320  -7.2742   1.9214   C.ar      1 RES1   0.0000
    70 H26     11.1453  -6.4215   1.6853   H         1 RES1   0.0000
    71 C24     11.5056  -8.2569   0.9671   C.ar      1 RES1   0.0000
    72 H27     11.3093  -8.0663   0.0792   H         1 RES1   0.0000
    73 C25     13.2141  -0.3080  10.0369   C.2       1 RES1   0.0000
    74 C26     13.5158   0.7604  11.0450   C.ar      1 RES1   0.0000
    75 C27     13.8684   0.4676  12.3768   C.ar      1 RES1   0.0000
    76 C28     13.3762   2.0882  10.6448   C.ar      1 RES1   0.0000
    77 H28     13.1643   2.2785   9.7598   H         1 RES1   0.0000
    78 C29     14.0443   1.5432  13.2491   C.ar      1 RES1   0.0000
    79 H29     14.2868   1.3714  14.1314   H         1 RES1   0.0000
    80 C30     13.8716   2.8373  12.8519   C.ar      1 RES1   0.0000
    81 H30     13.9681   3.5273  13.4683   H         1 RES1   0.0000
    82 C31     13.5522   3.1271  11.5441   C.ar      1 RES1   0.0000
    83 H31     13.4541   4.0101  11.2684   H         1 RES1   0.0000
    84 C32     14.1217  -0.9079  12.9028   C.3       1 RES1   0.0000
    85 H32     13.2903  -1.3870  12.9621   H         1 RES1   0.0000
    86 H33     14.5187  -0.8490  13.7751   H         1 RES1   0.0000
    87 H34     14.7162  -1.3740  12.3118   H         1 RES1   0.0000
    88 C33     13.7279  -4.3961  11.7208   C.2       1 RES1   0.0000
    89 C34     14.6226  -4.5655  12.8858   C.ar      1 RES1   0.0000
    90 C35     15.9925  -4.4306  12.6709   C.ar      1 RES1   0.0000
    91 H35     16.3011  -4.2718  11.8084   H         1 RES1   0.0000
    92 C36     14.1420  -4.8428  14.1724   C.ar      1 RES1   0.0000
    93 C37     16.9022  -4.5247  13.7058   C.ar      1 RES1   0.0000
    94 H36     17.8106  -4.3971  13.5531   H         1 RES1   0.0000
    95 C38     16.4395  -4.8109  14.9528   C.ar      1 RES1   0.0000
    96 H37     17.0392  -4.8898  15.6583   H         1 RES1   0.0000
    97 C39     10.0755  -5.8092   8.6824   C.2       1 RES1   0.0000
    98 C40      9.1698  -6.8636   9.2466   C.ar      1 RES1   0.0000
    99 C41      7.7425  -7.8607  10.8993   C.ar      1 RES1   0.0000
   100 H38      7.3550  -7.8559  11.7448   H         1 RES1   0.0000
   101 C42      8.6491  -6.8093  10.5204   C.ar      1 RES1   0.0000
   102 C43      7.4495  -8.8623  10.0270   C.ar      1 RES1   0.0000
   103 H39      6.8473  -9.5200  10.2900   H         1 RES1   0.0000
   104 C44      8.9139  -5.7543  11.4776   C.3       1 RES1   0.0000
   105 H40      8.7304  -4.9033  11.0761   H         1 RES1   0.0000
   106 H41      9.8358  -5.7910  11.7462   H         1 RES1   0.0000
   107 H42      8.3535  -5.8730  12.2481   H         1 RES1   0.0000
   108 C45      8.8487  -7.9461   8.3954   C.ar      1 RES1   0.0000
   109 H43      9.2206  -7.9853   7.5443   H         1 RES1   0.0000
   110 C46     10.1947  -1.8412  11.7533   C.3       1 RES1   0.0000
   111 H44     10.7393  -1.0584  11.8636   H         1 RES1   0.0000
   112 H45     10.4481  -2.5019  12.4008   H         1 RES1   0.0000
   113 H46      9.2711  -1.6072  11.8777   H         1 RES1   0.0000
   114 C47     10.0020   0.5284   6.0795   C.3       1 RES1   0.0000
   115 H47      9.6650  -0.3354   5.8293   H         1 RES1   0.0000
   116 H48     10.2446   1.0182   5.2906   H         1 RES1   0.0000
   117 H49      9.3267   1.0084   6.5617   H         1 RES1   0.0000
   118 C48     15.1084  -4.9798  15.1805   C.ar      1 RES1   0.0000
   119 H50     14.8291  -5.1970  16.0401   H         1 RES1   0.0000
   120 C49     12.6795  -4.9858  14.4933   C.3       1 RES1   0.0000
   121 H51     12.2657  -5.5642  13.8486   H         1 RES1   0.0000
   122 H52     12.2608  -4.1236  14.4665   H         1 RES1   0.0000
   123 H53     12.5814  -5.3618  15.3713   H         1 RES1   0.0000
   124 C50      7.9913  -8.9407   8.8083   C.ar      1 RES1   0.0000
   125 H54      7.7918  -9.6556   8.2484   H         1 RES1   0.0000
   126 O18     10.6192  -5.7416   4.2161   O.co2     1 RES1   0.0000
   127 O19      9.0381  -3.7821   5.9947   O.3       1 RES1   0.0000
   128 H55      8.8345  -3.8389   6.8501   H         1 RES1   0.0000
   129 C51      8.0999  -3.1161   5.3359   C.3       1 RES1   0.0000
   130 H56      8.4026  -2.2209   5.1676   H         1 RES1   0.0000
   131 H57      7.2973  -3.0898   5.8604   H         1 RES1   0.0000
   132 H58      7.9222  -3.5564   4.5017   H         1 RES1   0.0000
   133 Dy1A    17.9562  -3.9969   8.1238   Dy        1 RES1   0.0000
   134 Dy2A    16.2303  -7.2646   7.3749   Dy        1 RES1   0.0000
   135 Dy3A    16.9653  -4.8716   4.5773   Dy        1 RES1   0.0000
   136 O1A     15.8555  -5.0726   8.3864   O.3       1 RES1   0.0000
   137 H1A     15.5307  -5.0660   9.1942   H         1 RES1   0.0000
   138 O2A     14.0041  -7.4878   8.2410   O.co2     1 RES1   0.0000
   139 O3A     14.1447  -2.6019   8.2006   O.3       1 RES1   0.0000
   140 H2A     14.8761  -2.3031   8.5820   H         1 RES1   0.0000
   141 O4A     12.9150  -4.9118   7.7599   O.3       1 RES1   0.0000
   142 H3A     13.0042  -5.7751   7.8610   H         1 RES1   0.0000
   143 O5A     17.8716  -5.7776   6.5720   O.3       1 RES1   0.0000
   144 H4A     18.6446  -6.1712   6.5178   H         1 RES1   0.0000
   145 O6A     16.1104  -8.3509   5.3265   O.co2     1 RES1   0.0000
   146 O7A     16.7805  -4.2195   2.2862   O.co2     1 RES1   0.0000
   147 O8A     17.0469  -7.3881   9.5230   O.co2     1 RES1   0.0000
   148 O9A     18.1426  -8.6940   7.2346   O.3       1 RES1   0.0000
   149 H5A     18.2051  -9.3217   6.6309   H         1 RES1   0.0000
   150 O10A    15.1695  -9.3292   8.0309   O.co2     1 RES1   0.0000
   151 O11A    15.0692  -3.8353   3.5927   O.co2     1 RES1   0.0000
   152 O12A    16.2861  -6.8665   3.6812   O.co2     1 RES1   0.0000
   153 O13A    19.0764  -2.5632   6.7045   O.co2     1 RES1   0.0000
   154 O14A    16.7418  -2.1334   9.0599   O.co2     1 RES1   0.0000
   155 O15A    18.6494  -3.3100   4.6643   O.co2     1 RES1   0.0000
   156 O16A    18.9105  -5.9634   3.6916   O.3       1 RES1   0.0000
   157 H6A     19.6730  -6.0183   4.1002   H         1 RES1   0.0000
   158 O17A    18.2660  -5.5539   9.8022   O.co2     1 RES1   0.0000
   159 C1A     14.1031  -8.7484   8.3869   C.2       1 RES1   0.0000
   160 C2A     12.9757  -9.5480   8.9313   C.ar      1 RES1   0.0000
   161 C3A     17.7782  -6.6286  10.2136   C.2       1 RES1   0.0000
   162 C4A     18.1054  -7.0485  11.6190   C.ar      1 RES1   0.0000
   163 C5A     12.3598  -7.8104  10.7000   C.3       1 RES1   0.0000
   164 H7A     13.2993  -7.6294  10.7650   H         1 RES1   0.0000
   165 H8A     11.9287  -7.1001  10.2221   H         1 RES1   0.0000
   166 H9A     11.9854  -7.8775  11.5822   H         1 RES1   0.0000
   167 C6A     17.2192  -7.7615  12.4192   C.ar      1 RES1   0.0000
   168 C7A     19.3640  -6.6942  12.1082   C.ar      1 RES1   0.0000
   169 H10A    19.9452  -6.2003  11.5780   H         1 RES1   0.0000
   170 C8A     12.1508  -9.0989   9.9733   C.ar      1 RES1   0.0000
   171 C9A     12.7678 -10.7994   8.3572   C.ar      1 RES1   0.0000
   172 H11A    13.3424 -11.0991   7.6899   H         1 RES1   0.0000
   173 C10A    17.6322  -8.0832  13.7171   C.ar      1 RES1   0.0000
   174 H12A    17.0411  -8.5311  14.2784   H         1 RES1   0.0000
   175 C11A    19.7479  -7.0768  13.3863   C.ar      1 RES1   0.0000
   176 H13A    20.5994  -6.8712  13.6988   H         1 RES1   0.0000
   177 C12A    11.7182 -11.6017   8.7687   C.ar      1 RES1   0.0000
   178 H14A    11.5746 -12.4290   8.3686   H         1 RES1   0.0000
   179 C13A    18.8715  -7.7590  14.1865   C.ar      1 RES1   0.0000
   180 H15A    19.1189  -8.0016  15.0490   H         1 RES1   0.0000
   181 C14A    10.8958 -11.1642   9.7711   C.ar      1 RES1   0.0000
   182 H16A    10.1858 -11.6950  10.0510   H         1 RES1   0.0000
   183 C15A    11.1074  -9.9480  10.3621   C.ar      1 RES1   0.0000
   184 H17A    10.5401  -9.6778  11.0464   H         1 RES1   0.0000
   185 C16A    15.8316  -8.1273  11.9852   C.3       1 RES1   0.0000
   186 H18A    15.3994  -7.3550  11.6105   H         1 RES1   0.0000
   187 H19A    15.8751  -8.8215  11.3235   H         1 RES1   0.0000
   188 H20A    15.3315  -8.4382  12.7430   H         1 RES1   0.0000
   189 C17A    17.1049   0.4933  10.5119   C.ar      1 RES1   0.0000
   190 C18A    17.5001  -0.7780  10.8824   C.ar      1 RES1   0.0000
   191 C19A    16.7456   0.8509   9.1151   C.3       1 RES1   0.0000
   192 H21A    17.4082   0.5023   8.5142   H         1 RES1   0.0000
   193 H22A    15.8887   0.4755   8.8987   H         1 RES1   0.0000
   194 H23A    16.7072   1.8067   9.0288   H         1 RES1   0.0000
   195 C20A    17.4175   1.1949  12.7995   C.ar      1 RES1   0.0000
   196 H24A    17.3928   1.8710  13.4372   H         1 RES1   0.0000
   197 C21A    17.6101  -1.8976   9.9139   C.2       1 RES1   0.0000
   198 C22A    17.0914   1.4800  11.5115   C.ar      1 RES1   0.0000
   199 H25A    16.8529   2.3507  11.2853   H         1 RES1   0.0000
   200 C23A    17.8550  -1.0529  12.2170   C.ar      1 RES1   0.0000
   201 H26A    18.1416  -1.9056  12.4532   H         1 RES1   0.0000
   202 C24A    17.7814  -0.0702  13.1714   C.ar      1 RES1   0.0000
   203 H27A    17.9777  -0.2608  14.0593   H         1 RES1   0.0000
   204 C25A    16.0729  -8.0191   4.1016   C.2       1 RES1   0.0000
   205 C26A    15.7712  -9.0875   3.0935   C.ar      1 RES1   0.0000
   206 C27A    15.4186  -8.7947   1.7617   C.ar      1 RES1   0.0000
   207 C28A    15.9107 -10.4153   3.4936   C.ar      1 RES1   0.0000
   208 H28A    16.1227 -10.6056   4.3787   H         1 RES1   0.0000
   209 C29A    15.2426  -9.8703   0.8893   C.ar      1 RES1   0.0000
   210 H29A    15.0001  -9.6985   0.0071   H         1 RES1   0.0000
   211 C30A    15.4154 -11.1644   1.2866   C.ar      1 RES1   0.0000
   212 H30A    15.3188 -11.8544   0.6702   H         1 RES1   0.0000
   213 C31A    15.7348 -11.4542   2.5944   C.ar      1 RES1   0.0000
   214 H31A    15.8328 -12.3372   2.8701   H         1 RES1   0.0000
   215 C32A    15.1652  -7.4193   1.2357   C.3       1 RES1   0.0000
   216 H32A    15.9966  -6.9401   1.1763   H         1 RES1   0.0000
   217 H33A    14.7683  -7.4781   0.3634   H         1 RES1   0.0000
   218 H34A    14.5707  -6.9531   1.8267   H         1 RES1   0.0000
   219 C33A    15.5590  -3.9310   2.4177   C.2       1 RES1   0.0000
   220 C34A    14.6643  -3.7616   1.2527   C.ar      1 RES1   0.0000
   221 C35A    13.2945  -3.8965   1.4676   C.ar      1 RES1   0.0000
   222 H35A    12.9859  -4.0553   2.3300   H         1 RES1   0.0000
   223 C36A    15.1449  -3.4843  -0.0339   C.ar      1 RES1   0.0000
   224 C37A    12.3847  -3.8024   0.4326   C.ar      1 RES1   0.0000
   225 H36A    11.4763  -3.9300   0.5853   H         1 RES1   0.0000
   226 C38A    12.8475  -3.5162  -0.8144   C.ar      1 RES1   0.0000
   227 H37A    12.2477  -3.4373  -1.5199   H         1 RES1   0.0000
   228 C39A    19.2114  -2.5179   5.4560   C.2       1 RES1   0.0000
   229 C40A    20.1172  -1.4636   4.8919   C.ar      1 RES1   0.0000
   230 C41A    21.5444  -0.4664   3.2391   C.ar      1 RES1   0.0000
   231 H38A    21.9319  -0.4712   2.3936   H         1 RES1   0.0000
   232 C42A    20.6379  -1.5178   3.6180   C.ar      1 RES1   0.0000
   233 C43A    21.8375   0.5352   4.1115   C.ar      1 RES1   0.0000
   234 H39A    22.4396   1.1929   3.8485   H         1 RES1   0.0000
   235 C44A    20.3730  -2.5728   2.6609   C.3       1 RES1   0.0000
   236 H40A    20.5566  -3.4238   3.0624   H         1 RES1   0.0000
   237 H41A    19.4512  -2.5361   2.3922   H         1 RES1   0.0000
   238 H42A    20.9334  -2.4541   1.8903   H         1 RES1   0.0000
   239 C45A    20.4382  -0.3810   5.7430   C.ar      1 RES1   0.0000
   240 H43A    20.0664  -0.3418   6.5942   H         1 RES1   0.0000
   241 C46A    19.0922  -6.4859   2.3852   C.3       1 RES1   0.0000
   242 H44A    18.5476  -7.2687   2.2749   H         1 RES1   0.0000
   243 H45A    18.8388  -5.8252   1.7376   H         1 RES1   0.0000
   244 H46A    20.0158  -6.7199   2.2607   H         1 RES1   0.0000
   245 C47A    19.2849  -8.8555   8.0589   C.3       1 RES1   0.0000
   246 H47A    19.6219  -7.9917   8.3092   H         1 RES1   0.0000
   247 H48A    19.0423  -9.3453   8.8478   H         1 RES1   0.0000
   248 H49A    19.9603  -9.3355   7.5768   H         1 RES1   0.0000
   249 C48A    14.1785  -3.3473  -1.0420   C.ar      1 RES1   0.0000
   250 H50A    14.4578  -3.1301  -1.9016   H         1 RES1   0.0000
   251 C49A    16.6074  -3.3413  -0.3549   C.3       1 RES1   0.0000
   252 H51A    17.0213  -2.7629   0.2898   H         1 RES1   0.0000
   253 H52A    17.0262  -4.2035  -0.3280   H         1 RES1   0.0000
   254 H53A    16.7055  -2.9653  -1.2329   H         1 RES1   0.0000
   255 C50A    21.2956   0.6135   5.3302   C.ar      1 RES1   0.0000
   256 H54A    21.4951   1.3285   5.8901   H         1 RES1   0.0000
   257 O18A    18.6677  -2.5855   9.9224   O.co2     1 RES1   0.0000
   258 O19A    20.2489  -4.5450   8.1438   O.3       1 RES1   0.0000
   259 H55A    20.4524  -4.4882   7.2884   H         1 RES1   0.0000
   260 C51A    21.1871  -5.2110   8.8026   C.3       1 RES1   0.0000
   261 H56A    20.8844  -6.1062   8.9709   H         1 RES1   0.0000
   262 H57A    21.9896  -5.2373   8.2781   H         1 RES1   0.0000
   263 H58A    21.3648  -4.7707   9.6368   H         1 RES1   0.0000
   264 N1       6.4438  -1.4479  10.8555   N.pl3     2 RES2   0.0000
   265 O20      6.2879  -0.4303  11.5441   O.3       2 RES2  -1.0000
   266 O21      6.0625  -2.3876  11.5426   O.2       2 RES2   0.0000
   267 O22      6.2369  -1.1289   9.6665   O.2       2 RES2   0.0000
   268 O23     -2.0217   3.3706   5.4984   O.3       3 RES3   0.0000
   269 H59     -1.6077   2.7177   5.7699   H         3 RES3   0.0000
   270 C52     -1.4445   3.8242   4.2896   C.3       3 RES3   0.0000
   271 H60     -1.7141   4.7301   4.1270   H         3 RES3   0.0000
   272 H61     -1.7401   3.2673   3.5657   H         3 RES3   0.0000
   273 H62     -0.4884   3.7815   4.3575   H         3 RES3   0.0000
@<TRIPOS>BOND
     1     1     5    1
     2     2     5    1
     3     3    12    1
     4     4     5    1
     5     5     6    1
     6     7     2    1
     7     8     4    1
     8     9     8    1
     9    10     4    1
    10    11    10    1
    11    12     1    1
    12    13    12    1
    13    14     2    1
    14    15     3    1
    15    16     2    1
    16    17     2    1
    17    18    17    1
    18    19     2    1
    19    20     3    1
    20    21     3    1
    21    22     1    1
    22    23     1    1
    23    24     3    1
    24    25     3    1
    25    26    25    1
    26    27     1    1
    27    28     7   un
    28    29    28    1
    29    30    16   un
    30    31    30    1
    31    32    33    1
    32    34    32    1
    33    35    32    1
    34    36    31   ar
    35    37    31   ar
    36    38    37    1
    37    39    29   ar
    38    40    29   ar
    39    41    40    1
    40    42    36   ar
    41    43    42    1
    42    44    37   ar
    43    45    44    1
    44    46    40   ar
    45    47    46    1
    46    48    42   ar
    47    49    48    1
    48    50    46   ar
    49    51    50    1
    50    52    39   ar
    51    53    52    1
    52    54    36    1
    53    55    54    1
    54    56    54    1
    55    57    54    1
    56    58    59   ar
    57    59    66    1
    58    60    58    1
    59    61    60    1
    60    62    60    1
    61    63    60    1
    62    64    65    1
    63    66    23   un
    64    67    58   ar
    65    68    67    1
    66    69    59   ar
    67    70    69    1
    68    71    64   ar
    69    72    71    1
    70    73    14   un
    71    74    73    1
    72    75    74   ar
    73    76    74   ar
    74    77    76    1
    75    78    75   ar
    76    79    78    1
    77    80    78   ar
    78    81    80    1
    79    82    76   ar
    80    83    82    1
    81    84    75    1
    82    85    84    1
    83    86    84    1
    84    87    84    1
    85    88    15   un
    86    89    88    1
    87    90    89   ar
    88    91    90    1
    89    92    89   ar
    90    93    90   ar
    91    94    93    1
    92    95    93   ar
    93    96    95    1
    94    97    22   un
    95    98    97    1
    96    99   100    1
    97   101    98   ar
    98   102    99   ar
    99   103   102    1
   100   104   101    1
   101   105   104    1
   102   106   104    1
   103   107   104    1
   104   108    98   ar
   105   109   108    1
   106   110    25    1
   107   111   110    1
   108   112   110    1
   109   113   110    1
   110   114    17    1
   111   115   114    1
   112   116   114    1
   113   117   114    1
   114   118    92   ar
   115   119   118    1
   116   120    92    1
   117   121   120    1
   118   122   120    1
   119   123   120    1
   120   124   102   ar
   121   125   124    1
   122   126     1    1
   123   127     1    1
   124   128   127    1
   125   129   127    1
   126   130   129    1
   127   131   129    1
   128   132   129    1
   129   133    10    1
   130   134     8    1
   131   135     8    1
   132   136     4    1
   133   137   136    1
   134   138   134    1
   135   139     2    1
   136   140   139    1
   137   141     1    1
   138   142   141    1
   139   143   133    1
   140   144   143    1
   141   145   134    1
   142   146   135    1
   143   147   134    1
   144   148   134    1
   145   149   148    1
   146   150   134    1
   147   151   135    1
   148   152   135    1
   149   153   133    1
   150   154   133    1
   151   155   135    1
   152   156   135    1
   153   157   156    1
   154   158   133    1
   155   159   138   un
   156   160   159    1
   157   161   147   un
   158   162   161    1
   159   163   164    1
   160   165   163    1
   161   166   163    1
   162   167   162   ar
   163   168   162   ar
   164   169   168    1
   165   170   160   ar
   166   171   160   ar
   167   172   171    1
   168   173   167   ar
   169   174   173    1
   170   175   168   ar
   171   176   175    1
   172   177   171   ar
   173   178   177    1
   174   179   173   ar
   175   180   179    1
   176   181   177   ar
   177   182   181    1
   178   183   170   ar
   179   184   183    1
   180   185   167    1
   181   186   185    1
   182   187   185    1
   183   188   185    1
   184   189   190   ar
   185   190   197    1
   186   191   189    1
   187   192   191    1
   188   193   191    1
   189   194   191    1
   190   195   196    1
   191   197   154   un
   192   198   189   ar
   193   199   198    1
   194   200   190   ar
   195   201   200    1
   196   202   195   ar
   197   203   202    1
   198   204   145   un
   199   205   204    1
   200   206   205   ar
   201   207   205   ar
   202   208   207    1
   203   209   206   ar
   204   210   209    1
   205   211   209   ar
   206   212   211    1
   207   213   207   ar
   208   214   213    1
   209   215   206    1
   210   216   215    1
   211   217   215    1
   212   218   215    1
   213   219   146   un
   214   220   219    1
   215   221   220   ar
   216   222   221    1
   217   223   220   ar
   218   224   221   ar
   219   225   224    1
   220   226   224   ar
   221   227   226    1
   222   228   153   un
   223   229   228    1
   224   230   231    1
   225   232   229   ar
   226   233   230   ar
   227   234   233    1
   228   235   232    1
   229   236   235    1
   230   237   235    1
   231   238   235    1
   232   239   229   ar
   233   240   239    1
   234   241   156    1
   235   242   241    1
   236   243   241    1
   237   244   241    1
   238   245   148    1
   239   246   245    1
   240   247   245    1
   241   248   245    1
   242   249   223   ar
   243   250   249    1
   244   251   223    1
   245   252   251    1
   246   253   251    1
   247   254   251    1
   248   255   233   ar
   249   256   255    1
   250   257   133    1
   251   258   133    1
   252   259   258    1
   253   260   258    1
   254   261   260    1
   255   262   260    1
   256   263   260    1
   257     2    12    1
   258     3   139    1
   259     3   141    1
   260     4   139    1
   261     4   141    1
   262    10   135    1
   263    19    28   un
   264    20    88   un
   265    21    73   un
   266    24    97   un
   267    27    30   un
   268    32    39    1
   269    44    48   ar
   270    50    52   ar
   271    64    67   ar
   272    66   126   un
   273    69    71   ar
   274    80    82   ar
   275    95   118   ar
   276    99   101   ar
   277   108   124   ar
   278   133   136    1
   279   134   136    1
   280   134   143    1
   281   135   143    1
   282   150   159   un
   283   151   219   un
   284   152   204   un
   285   155   228   un
   286   158   161   un
   287   163   170    1
   288   175   179   ar
   289   181   183   ar
   290   195   198   ar
   291   197   257   un
   292   200   202   ar
   293   211   213   ar
   294   226   249   ar
   295   230   232   ar
   296   239   255   ar
   297   264   265    1
   298   266   264    2
   299   267   264    2
   300   268   269    1
   301   270   268    1
   302   271   270    1
   303   272   270    1
   304   273   270    1
@<TRIPOS>SUBSTRUCTURE
     1 RES1        1 GROUP             0 ****  ****    0  
     2 RES2      264 GROUP             0 ****  ****    0  
     3 RES3      268 GROUP             0 ****  ****    0  
@<TRIPOS>CRYSIN
   14.9421   15.1024   16.4193  117.0764   92.0846  112.3614     2     1
