@<TRIPOS>MOLECULE
EQOGEZ
    90    95     2     0     0
SMALL
NO_CHARGES
****
Generated from the CSD

@<TRIPOS>ATOM
     1 Fe1      7.0440   5.2719   5.8340   Fe        1 RES1   0.0000
     2 S1       4.3117   6.3568   7.6188   S.o2      1 RES1   0.0000
     3 S2       8.5743   7.9793   4.4627   S.o2      1 RES1   0.0000
     4 F1       8.7980   9.7348   2.5183   F         1 RES1   0.0000
     5 F2       6.8743   9.7821   3.5224   F         1 RES1   0.0000
     6 F3       3.1332   7.2984   9.7718   F         1 RES1   0.0000
     7 F4       7.3363   8.1760   2.1481   F         1 RES1   0.0000
     8 O1       7.4254   7.1411   4.8401   O.3       1 RES1   0.0000
     9 F5       5.1771   6.6676  10.0943   F         1 RES1   0.0000
    10 O2       3.7971   5.0670   8.0224   O.2       1 RES1   0.0000
    11 O3       5.7255   6.3451   7.2141   O.3       1 RES1   0.0000
    12 F6       4.7724   8.5271   9.0622   F         1 RES1   0.0000
    13 O4       8.9473   8.9327   5.4687   O.2       1 RES1   0.0000
    14 O5       3.4568   7.1602   6.7900   O.2       1 RES1   0.0000
    15 O6       9.6421   7.2558   3.8142   O.2       1 RES1   0.0000
    16 N1       9.0642   5.5861   6.6897   N.ar      1 RES1   0.0000
    17 N2       6.9017   3.2870   6.9245   N.3       1 RES1   0.0000
    18 N3       5.1368   4.4705   5.0190   N.ar      1 RES1   0.0000
    19 N4       8.2905   3.9938   4.4224   N.3       1 RES1   0.0000
    20 C1       7.0847   2.2207   9.2763   C.ar      1 RES1   0.0000
    21 C2       4.7482   3.2806   5.5485   C.ar      1 RES1   0.0000
    22 C3       8.8472   3.6188   1.9407   C.ar      1 RES1   0.0000
    23 C4      10.0414   4.8997   6.0350   C.ar      1 RES1   0.0000
    24 C5       9.4177   6.3197   7.7923   C.ar      1 RES1   0.0000
    25 C6       9.7310   4.2643   4.6995   C.3       1 RES1   0.0000
    26 H1      10.0718   4.8430   4.0002   H         1 RES1   0.0000
    27 H2      10.2140   3.4248   4.6424   H         1 RES1   0.0000
    28 C7       7.9338   2.4008   6.2769   C.3       1 RES1   0.0000
    29 H3       7.7441   1.4741   6.4903   H         1 RES1   0.0000
    30 H4       8.8120   2.6169   6.6278   H         1 RES1   0.0000
    31 C8       4.3254   5.0519   4.0834   C.ar      1 RES1   0.0000
    32 C9       7.9321   2.5838   4.7685   C.3       1 RES1   0.0000
    33 H5       8.5718   1.9769   4.3654   H         1 RES1   0.0000
    34 H6       7.0529   2.3752   4.4157   H         1 RES1   0.0000
    35 C10      3.5999   2.6218   5.1290   C.ar      1 RES1   0.0000
    36 H7       3.3812   1.7903   5.4830   H         1 RES1   0.0000
    37 C11     10.7234   6.3138   8.2748   C.ar      1 RES1   0.0000
    38 H8      10.9432   6.8282   9.0170   H         1 RES1   0.0000
    39 C12      9.9486   4.2995   1.4056   C.ar      1 RES1   0.0000
    40 H9      10.1178   5.1716   1.6806   H         1 RES1   0.0000
    41 C13      7.9574   4.2965   2.9832   C.3       1 RES1   0.0000
    42 H10      8.0113   5.2563   2.8527   H         1 RES1   0.0000
    43 H11      7.0389   4.0320   2.8196   H         1 RES1   0.0000
    44 C14      7.1902   3.4651   8.3884   C.3       1 RES1   0.0000
    45 H12      6.5806   4.1340   8.7355   H         1 RES1   0.0000
    46 H13      8.0888   3.8206   8.4763   H         1 RES1   0.0000
    47 C15      5.5292   2.7287   6.7282   C.3       1 RES1   0.0000
    48 H14      5.0160   2.8912   7.5351   H         1 RES1   0.0000
    49 H15      5.6037   1.7676   6.6206   H         1 RES1   0.0000
    50 C16      5.9532   2.0260  10.0865   C.ar      1 RES1   0.0000
    51 H16      5.2571   2.6419  10.0601   H         1 RES1   0.0000
    52 C17      4.7307   6.3972   3.5278   C.3       1 RES1   0.0000
    53 H17      4.9409   6.9920   4.2512   H         1 RES1   0.0000
    54 H18      4.0074   6.7620   3.0129   H         1 RES1   0.0000
    55 H19      5.5020   6.2914   2.9659   H         1 RES1   0.0000
    56 C18      8.1321   1.2882   9.3215   C.ar      1 RES1   0.0000
    57 H20      8.8914   1.4113   8.7991   H         1 RES1   0.0000
    58 C19     11.3649   4.8411   6.5059   C.ar      1 RES1   0.0000
    59 H21     12.0088   4.3414   6.0590   H         1 RES1   0.0000
    60 C20      3.1481   4.4444   3.6628   C.ar      1 RES1   0.0000
    61 H22      2.6065   4.8627   3.0335   H         1 RES1   0.0000
    62 C21     10.5251   2.4125   0.0308   C.ar      1 RES1   0.0000
    63 H23     11.0812   2.0061  -0.5947   H         1 RES1   0.0000
    64 C22      6.9031  -0.0059  10.9660   C.ar      1 RES1   0.0000
    65 H24      6.8507  -0.7455  11.5279   H         1 RES1   0.0000
    66 C23      7.8567   8.9737   3.0999   C.3       1 RES1   0.0000
    67 C24      4.3518   7.2683   9.2009   C.3       1 RES1   0.0000
    68 C25      2.7835   3.2103   4.1837   C.ar      1 RES1   0.0000
    69 H25      2.0051   2.7875   3.9011   H         1 RES1   0.0000
    70 C26     11.6895   5.5555   7.6658   C.ar      1 RES1   0.0000
    71 H26     12.5491   5.5167   8.0169   H         1 RES1   0.0000
    72 C27     10.7977   3.7051   0.4700   C.ar      1 RES1   0.0000
    73 H27     11.5361   4.1672   0.1453   H         1 RES1   0.0000
    74 C28      8.3547   7.1585   8.4632   C.3       1 RES1   0.0000
    75 H28      7.8842   7.6698   7.8002   H         1 RES1   0.0000
    76 H29      8.7670   7.7549   9.0928   H         1 RES1   0.0000
    77 H30      7.7368   6.5856   8.9228   H         1 RES1   0.0000
    78 C29      9.4198   1.7289   0.5290   C.ar      1 RES1   0.0000
    79 H31      9.2350   0.8666   0.2324   H         1 RES1   0.0000
    80 C30      8.5899   2.3305   1.4704   C.ar      1 RES1   0.0000
    81 H32      7.8502   1.8672   1.7914   H         1 RES1   0.0000
    82 C31      8.0243   0.1771  10.1571   C.ar      1 RES1   0.0000
    83 H33      8.7096  -0.4506  10.1731   H         1 RES1   0.0000
    84 C32      5.8649   0.9164  10.9327   C.ar      1 RES1   0.0000
    85 H34      5.1151   0.7961  11.4698   H         1 RES1   0.0000
    86 Cl1      2.9405   2.9271  12.0600   Cl        2 RES2   0.0000
    87 Cl2      0.9471   4.9591  11.3999   Cl        2 RES2   0.0000
    88 C33      2.6222   4.4298  11.1966   C.3       2 RES2   0.0000
    89 H35      2.8048   4.3011  10.2524   H         2 RES2   0.0000
    90 H36      3.2186   5.1202  11.5249   H         2 RES2   0.0000
@<TRIPOS>BOND
     1     1     8    1
     2     2    10    2
     3     3     8    1
     4     4    66    1
     5     5    66    1
     6     6    67    1
     7     7    66    1
     8     9    67    1
     9    11     1    1
    10    12    67    1
    11    13     3    2
    12    14     2    2
    13    15     3    2
    14    16     1    1
    15    17     1    1
    16    18     1    1
    17    19     1    1
    18    20    44    1
    19    21    18   ar
    20    22    39   ar
    21    23    16   ar
    22    24    16   ar
    23    25    19    1
    24    26    25    1
    25    27    25    1
    26    28    17    1
    27    29    28    1
    28    30    28    1
    29    31    18   ar
    30    32    19    1
    31    33    32    1
    32    34    32    1
    33    35    21   ar
    34    36    35    1
    35    37    24   ar
    36    38    37    1
    37    39    40    1
    38    41    19    1
    39    42    41    1
    40    43    41    1
    41    44    17    1
    42    45    44    1
    43    46    44    1
    44    47    17    1
    45    48    47    1
    46    49    47    1
    47    50    20   ar
    48    51    50    1
    49    52    31    1
    50    53    52    1
    51    54    52    1
    52    55    52    1
    53    56    20   ar
    54    57    56    1
    55    58    23   ar
    56    59    58    1
    57    60    31   ar
    58    61    60    1
    59    62    63    1
    60    64    65    1
    61    66     3    1
    62    67     2    1
    63    68    35   ar
    64    69    68    1
    65    70    37   ar
    66    71    70    1
    67    72    39   ar
    68    73    72    1
    69    74    24    1
    70    75    74    1
    71    76    74    1
    72    77    74    1
    73    78    62   ar
    74    79    78    1
    75    80    22   ar
    76    81    80    1
    77    82    56   ar
    78    83    82    1
    79    84    50   ar
    80    85    84    1
    81     2    11    1
    82    21    47    1
    83    22    41    1
    84    23    25    1
    85    28    32    1
    86    58    70   ar
    87    60    68   ar
    88    62    72   ar
    89    64    82   ar
    90    64    84   ar
    91    78    80   ar
    92    86    88    1
    93    87    88    1
    94    88    89    1
    95    90    88    1
@<TRIPOS>SUBSTRUCTURE
     1 RES1        1 GROUP             0 ****  ****    0  
     2 RES2       86 GROUP             0 ****  ****    0  
@<TRIPOS>CRYSIN
   11.2120   14.6390   23.4870   90.0000   99.6790   90.0000    14     1
