@<TRIPOS>MOLECULE
ERIFOC
    98   106     4     0     0
SMALL
USER_CHARGES
****
Generated from the CSD

@<TRIPOS>ATOM
     1 Fe1      7.2888   9.6072  15.6402   Fe        1 RES1   2.0000
     2 C1       6.6096  11.8104  13.5170   C.2       1 RES1   0.0000
     3 H1       5.6582  11.7796  13.5063   H         1 RES1   0.0000
     4 C2       8.6860  12.3913  13.0326   C.2       1 RES1   0.0000
     5 H2       9.4406  12.8164  12.6468   H         1 RES1   0.0000
     6 C3       8.6879  11.4103  13.9800   C.2       1 RES1   0.0000
     7 C4       9.7042  10.6832  14.6638   C.2       1 RES1   0.0000
     8 H3      10.6408  10.8044  14.5009   H         1 RES1   0.0000
     9 C5      10.8710   8.0922  15.4226   C.2       1 RES1   0.0000
    10 C6      11.5717   7.0401  16.1621   C.ar      1 RES1   0.0000
    11 C7      12.2289   6.0341  15.4784   C.ar      1 RES1   0.0000
    12 H4      12.1649   5.9918  14.5374   H         1 RES1   0.0000
    13 C8      12.9770   5.1012  16.1407   C.ar      1 RES1   0.0000
    14 H5      13.3975   4.3875  15.6691   H         1 RES1   0.0000
    15 C9      13.1181   5.2127  17.5361   C.ar      1 RES1   0.0000
    16 H6      13.6695   4.5953  18.0077   H         1 RES1   0.0000
    17 C10     12.4693   6.2034  18.2349   C.ar      1 RES1   0.0000
    18 H7      12.5593   6.2553  19.1781   H         1 RES1   0.0000
    19 C11     11.6664   7.1324  17.5769   C.ar      1 RES1   0.0000
    20 C12      9.8648   8.7328  17.5876   C.3       1 RES1   0.0000
    21 H8       9.6782   9.6003  18.0506   H         1 RES1   0.0000
    22 C13      8.6461   7.8941  17.7076   C.2       1 RES1   0.0000
    23 C14      8.4075   6.8516  18.5479   C.2       1 RES1   0.0000
    24 H9       9.0211   6.4707  19.1695   H         1 RES1   0.0000
    25 C15      6.6031   7.2459  17.3625   C.2       1 RES1   0.0000
    26 H10      5.7279   7.1651  17.0131   H         1 RES1   0.0000
    27 C16      7.9193  11.9008  17.4675   C.2       1 RES1   0.0000
    28 H11      8.7835  12.0374  17.1010   H         1 RES1   0.0000
    29 C17      6.0908  12.1778  18.7001   C.2       1 RES1   0.0000
    30 H12      5.4698  12.5106  19.3346   H         1 RES1   0.0000
    31 C18      5.9274  11.1353  17.8405   C.2       1 RES1   0.0000
    32 C19      4.7041  10.2581  17.6647   C.3       1 RES1   0.0000
    33 H13      4.9064   9.3483  18.0249   H         1 RES1   0.0000
    34 C20      2.8802  11.8277  17.8298   C.ar      1 RES1   0.0000
    35 C21      2.0819  12.6856  18.6208   C.ar      1 RES1   0.0000
    36 H14      2.0077  12.5356  19.5553   H         1 RES1   0.0000
    37 C22      1.4480  13.7185  18.0377   C.ar      1 RES1   0.0000
    38 H15      0.9087  14.2821  18.5779   H         1 RES1   0.0000
    39 C23      1.5417  13.9994  16.6530   C.ar      1 RES1   0.0000
    40 H16      1.1083  14.7496  16.2522   H         1 RES1   0.0000
    41 C24      2.2936  13.1396  15.8749   C.ar      1 RES1   0.0000
    42 H17      2.3474  13.2723  14.9425   H         1 RES1   0.0000
    43 C25      2.9674  12.0682  16.4579   C.ar      1 RES1   0.0000
    44 C26      3.7007  11.1430  15.5705   C.2       1 RES1   0.0000
    45 C27      4.8897   8.6712  14.5309   C.2       1 RES1   0.0000
    46 H18      3.9671   8.5770  14.3423   H         1 RES1   0.0000
    47 C28      5.9172   7.1747  12.6789   C.2       1 RES1   0.0000
    48 H19      5.1672   6.8189  12.2181   H         1 RES1   0.0000
    49 C29      7.9926   7.6402  13.2855   C.2       1 RES1   0.0000
    50 H20      8.9403   7.6441  13.2920   H         1 RES1   0.0000
    51 C30      5.9089   8.0057  13.7593   C.2       1 RES1   0.0000
    52 O1       3.6673  11.2007  14.3419   O.2       1 RES1   0.0000
    53 N1       7.4812   8.1365  16.9788   N.2       1 RES1   0.0000
    54 O2      10.9396   8.2019  14.1959   O.2       1 RES1   0.0000
    55 N2       7.1192   6.4476  18.3228   N.pl3     1 RES1   0.0000
    56 H21      6.7052   5.7936  18.7322   H         1 RES1   0.0000
    57 N3      11.0111   8.1346  18.2199   N.pl3     1 RES1   0.0000
    58 H22     11.2905   8.4154  19.0109   H         1 RES1   0.0000
    59 N4      10.1980   9.0290  16.1879   N.am      1 RES1   0.0000
    60 N5       9.2383   9.8446  15.5362   N.2       1 RES1   0.0000
    61 N6       7.3810  11.0545  14.2866   N.2       1 RES1   0.0000
    62 N7       7.3680  12.6298  12.7625   N.pl3     1 RES1   0.0000
    63 H23      7.0700  13.2223  12.1795   H         1 RES1   0.0000
    64 N8       7.2250   6.9593  12.4046   N.pl3     1 RES1   0.0000
    65 H24      7.5378   6.4592  11.7465   H         1 RES1   0.0000
    66 N9       7.2111   8.3115  14.1429   N.2       1 RES1   0.0000
    67 N10      5.3343   9.3868  15.4891   N.2       1 RES1   0.0000
    68 N11      4.3625  10.1216  16.2307   N.am      1 RES1   0.0000
    69 N12      3.5680  10.7717  18.3635   N.pl3     1 RES1   0.0000
    70 H25      3.3118  10.4139  19.1245   H         1 RES1   0.0000
    71 N13      7.3624  12.6548  18.4450   N.pl3     1 RES1   0.0000
    72 H26      7.7476  13.3261  18.8544   H         1 RES1   0.0000
    73 N14      7.0691  10.9525  17.0817   N.2       1 RES1   0.0000
    74 F1       6.5029   4.0221  19.7954   F         2 RES2   0.0000
    75 B1       5.6165   4.2606  20.8393   B         2 RES2  -1.0000
    76 F2       5.3733   5.6802  20.8071   F         2 RES2   0.0000
    77 F3       6.1001   3.9836  22.0461   F         2 RES2   0.0000
    78 F4       4.4191   3.6143  20.5992   F         2 RES2   0.0000
    79 B2       6.1205   3.8432  10.0638   B         3 RES3  -1.0000
    80 F5       6.4778   5.0204  10.6190   F         3 RES3   0.0000
    81 F6       5.1032   3.2200  10.7283   F         3 RES3   0.0000
    82 F7       5.7056   4.0856   8.7531   F         3 RES3   0.0000
    83 F8       7.2557   3.0699  10.0167   F         3 RES3   0.0000
    84 O3      11.5922   9.8292  10.1903   O.3       4 RES4   0.0000
    85 C31      9.1241  10.3389  10.0467   C.3       4 RES4   0.0000
    86 H27      8.3537  10.6159  10.5890   H         4 RES4   0.0000
    87 H28      9.2754  10.9948   9.3350   H         4 RES4   0.0000
    88 H29      8.9403   9.4618   9.6480   H         4 RES4   0.0000
    89 C32     12.6419   9.6445  11.1056   C.3       4 RES4   0.0000
    90 H30     12.5426   8.8790  11.6736   H         4 RES4   0.0000
    91 H31     12.9297  10.4466  11.5514   H         4 RES4   0.0000
    92 C33     13.7465   9.2579   9.9738   C.3       4 RES4   0.0000
    93 H32     14.5967   9.1156  10.4454   H         4 RES4   0.0000
    94 H33     13.8375  10.0427   9.3843   H         4 RES4   0.0000
    95 H34     13.4578   8.4923   9.5087   H         4 RES4   0.0000
    96 C34     10.4607  10.2408  11.0027   C.3       4 RES4   0.0000
    97 H35     10.7076  11.1333  11.4228   H         4 RES4   0.0000
    98 H36     10.3809   9.5964  11.7594   H         4 RES4   0.0000
@<TRIPOS>BOND
     1     1    53    1
     2     2     3    1
     3     4     5    1
     4     6     4    2
     5     7     6    1
     6     8     7    1
     7     9    10    1
     8    10    11   ar
     9    11    12    1
    10    13    11   ar
    11    14    13    1
    12    15    13   ar
    13    16    15    1
    14    17    15   ar
    15    18    17    1
    16    19    10   ar
    17    20    21    1
    18    22    20    1
    19    23    22    2
    20    24    23    1
    21    25    26    1
    22    27    28    1
    23    29    30    1
    24    31    29    2
    25    32    31    1
    26    33    32    1
    27    34    35   ar
    28    35    36    1
    29    37    35   ar
    30    38    37    1
    31    39    37   ar
    32    40    39    1
    33    41    39   ar
    34    42    41    1
    35    43    34   ar
    36    44    43    1
    37    45    46    1
    38    47    48    1
    39    49    50    1
    40    51    45    1
    41    52    44    2
    42    53    22    1
    43    54     9    2
    44    55    23    1
    45    56    55    1
    46    57    19    1
    47    58    57    1
    48    59     9   am
    49    60     1    1
    50    61     1    1
    51    62     2    1
    52    63    62    1
    53    64    47    1
    54    65    64    1
    55    66     1    1
    56    67     1    1
    57    68    32    1
    58    69    32    1
    59    70    69    1
    60    71    27    1
    61    72    71    1
    62    73     1    1
    63     2    61    2
    64     4    62    1
    65     6    61    1
    66     7    60    2
    67    17    19   ar
    68    20    57    1
    69    20    59    1
    70    25    53    2
    71    25    55    1
    72    27    73    2
    73    29    71    1
    74    31    73    1
    75    34    69    1
    76    41    43   ar
    77    44    68   am
    78    45    67    2
    79    47    51    2
    80    49    64    1
    81    49    66    2
    82    51    66    1
    83    59    60    1
    84    67    68    1
    85    74    75    1
    86    75    76    1
    87    77    75    1
    88    78    75    1
    89    79    80    1
    90    81    79    1
    91    82    79    1
    92    83    79    1
    93    84    89    1
    94    85    86    1
    95    87    85    1
    96    88    85    1
    97    89    90    1
    98    91    89    1
    99    92    89    1
   100    93    92    1
   101    94    92    1
   102    95    92    1
   103    96    84    1
   104    97    96    1
   105    98    96    1
   106    85    96    1
@<TRIPOS>SUBSTRUCTURE
     1 RES1        1 GROUP             0 ****  ****    0  
     2 RES2       74 GROUP             0 ****  ****    0  
     3 RES3       79 GROUP             0 ****  ****    0  
     4 RES4       84 GROUP             0 ****  ****    0  
@<TRIPOS>CRYSIN
    9.2819   19.2352   21.4352   90.0000   90.0000   90.0000    19     1
