@<TRIPOS>MOLECULE
ERIMEZ02
   134   150     2     0     0
SMALL
USER_CHARGES
****
Generated from the CSD

@<TRIPOS>ATOM
     1 Fe1     10.1309  -1.1967  11.9890   Fe        1 RES1   0.0000
     2 N1      10.1831   0.6590  12.7848   N.2       1 RES1   0.0000
     3 N2      12.0349  -0.9764  11.3514   N.2       1 RES1   0.0000
     4 C1       9.1703   1.2729  13.4860   C.2       1 RES1   0.0000
     5 C2       9.5070  -0.4850  10.2558   C.1       1 RES1   0.0000
     6 N3       9.1630  -0.1025   9.2333   N.1       1 RES1   0.0000
     7 C3      12.7755  -1.8952  10.6613   C.2       1 RES1   0.0000
     8 C4      12.3440  -3.1436  10.2618   C.2       1 RES1   0.0000
     9 H1      12.9501  -3.6761   9.7986   H         1 RES1   0.0000
    10 C5      12.8171   0.1346  11.5047   C.2       1 RES1   0.0000
    11 C6      15.2094  -1.8915   9.7139   C.ar      1 RES1   0.0000
    12 H2      15.1865  -2.7438   9.3442   H         1 RES1   0.0000
    13 C7      12.4534   1.2921  12.1555   C.2       1 RES1   0.0000
    14 H3      13.0810   1.9792  12.1808   H         1 RES1   0.0000
    15 C8      11.2468   1.5213  12.7705   C.2       1 RES1   0.0000
    16 C9      14.1172  -0.0825  10.8994   C.ar      1 RES1   0.0000
    17 C10     14.0953  -1.3610  10.3762   C.ar      1 RES1   0.0000
    18 C11      9.6086   2.5726  13.9538   C.ar      1 RES1   0.0000
    19 C12     15.2594   0.7188  10.7734   C.ar      1 RES1   0.0000
    20 H4      15.2728   1.5886  11.1042   H         1 RES1   0.0000
    21 C13     10.9145   2.7304  13.5016   C.ar      1 RES1   0.0000
    22 C14      9.7145   4.6982  15.0090   C.ar      1 RES1   0.0000
    23 H5       9.3215   5.3749  15.5113   H         1 RES1   0.0000
    24 C15     11.0306   4.8513  14.5702   C.ar      1 RES1   0.0000
    25 H6      11.5016   5.6196  14.7992   H         1 RES1   0.0000
    26 C16     11.6461   3.8799  13.8017   C.ar      1 RES1   0.0000
    27 H7      12.5170   3.9894  13.4948   H         1 RES1   0.0000
    28 C17      8.9819   3.5621  14.7142   C.ar      1 RES1   0.0000
    29 H8       8.1061   3.4617  15.0102   H         1 RES1   0.0000
    30 C18     16.3593   0.1840  10.1475   C.ar      1 RES1   0.0000
    31 H9      17.1324   0.6946  10.0683   H         1 RES1   0.0000
    32 C19     16.3359  -1.1120   9.6271   C.ar      1 RES1   0.0000
    33 H10     17.0981  -1.4530   9.2159   H         1 RES1   0.0000
    34 N1A     10.0787  -3.0523  11.1931   N.2       1 RES1   0.0000
    35 N2A      8.2268  -1.4170  12.6265   N.2       1 RES1   0.0000
    36 C1A     11.0915  -3.6663  10.4919   C.2       1 RES1   0.0000
    37 C3A      7.4862  -0.4981  13.3166   C.2       1 RES1   0.0000
    38 C4A      7.9178   0.7503  13.7161   C.2       1 RES1   0.0000
    39 H1A      7.3117   1.2827  14.1793   H         1 RES1   0.0000
    40 C5A      7.4446  -2.5280  12.4732   C.2       1 RES1   0.0000
    41 C6A      5.0523  -0.5019  14.2640   C.2       1 RES1   0.0000
    42 H2A      5.0753   0.3504  14.6337   H         1 RES1   0.0000
    43 C7A      7.8083  -3.6855  11.8224   C.2       1 RES1   0.0000
    44 H3A      7.1808  -4.3726  11.7971   H         1 RES1   0.0000
    45 C8A      9.0149  -3.9147  11.2074   C.2       1 RES1   0.0000
    46 C9A      6.1446  -2.3108  13.0785   C.2       1 RES1   0.0000
    47 C10A     6.1664  -1.0324  13.6017   C.2       1 RES1   0.0000
    48 C11A    10.6532  -4.9659  10.0241   C.ar      1 RES1   0.0000
    49 C12A     5.0024  -3.1122  13.2045   C.2       1 RES1   0.0000
    50 H4A      4.9890  -3.9819  12.8737   H         1 RES1   0.0000
    51 C13A     9.3472  -5.1238  10.4763   C.ar      1 RES1   0.0000
    52 C14A    10.5473  -7.0915   8.9689   C.ar      1 RES1   0.0000
    53 H5A     10.9402  -7.7683   8.4666   H         1 RES1   0.0000
    54 C15A     9.2311  -7.2446   9.4077   C.ar      1 RES1   0.0000
    55 H6A      8.7602  -8.0129   9.1787   H         1 RES1   0.0000
    56 C16A     8.6156  -6.2732  10.1762   C.ar      1 RES1   0.0000
    57 H7A      7.7448  -6.3827  10.4831   H         1 RES1   0.0000
    58 C17A    11.2798  -5.9555   9.2638   C.ar      1 RES1   0.0000
    59 H8A     12.1556  -5.8551   8.9677   H         1 RES1   0.0000
    60 C18A     3.9025  -2.5774  13.8305   C.2       1 RES1   0.0000
    61 H9A      3.1293  -3.0879  13.9096   H         1 RES1   0.0000
    62 C19A     3.9259  -1.2814  14.3508   C.2       1 RES1   0.0000
    63 H10A     3.1637  -0.9404  14.7620   H         1 RES1   0.0000
    64 C2A     10.7547  -1.9084  13.7221   C.1       1 RES1  -1.0000
    65 N3A     11.0988  -2.2908  14.7446   N.1       1 RES1   0.0000
    66 N4      10.3081   5.0367   5.9945   N.1       2 RES2   1.0000
    67 P1      10.0263   3.7162   6.7554   P.3       2 RES2   0.0000
    68 C20      8.9367   3.1468   9.2544   C.ar      2 RES2   0.0000
    69 H11      8.6186   2.3585   8.8778   H         2 RES2   0.0000
    70 C21      9.6429   4.0574   8.4728   C.ar      2 RES2   0.0000
    71 C22      9.8261   5.5130  10.3678   C.ar      2 RES2   0.0000
    72 H12     10.1052   6.3188  10.7409   H         2 RES2   0.0000
    73 C23     10.0905   5.2425   9.0435   C.ar      2 RES2   0.0000
    74 H13     10.5684   5.8541   8.5313   H         2 RES2   0.0000
    75 C24     11.4427   2.6141   6.7101   C.ar      2 RES2   0.0000
    76 C25      8.6241   2.8644   6.0342   C.ar      2 RES2   0.0000
    77 C26      8.7092   3.4174  10.5877   C.ar      2 RES2   0.0000
    78 H14      8.2560   2.8000  11.1162   H         2 RES2   0.0000
    79 C27     11.6936   1.6926   7.7138   C.ar      2 RES2   0.0000
    80 H15     11.1244   1.6351   8.4474   H         2 RES2   0.0000
    81 C28      9.1522   4.5998  11.1392   C.ar      2 RES2   0.0000
    82 H16      8.9941   4.7794  12.0381   H         2 RES2   0.0000
    83 C29      8.6354   1.5164   5.7523   C.ar      2 RES2   0.0000
    84 H17      9.3653   0.9920   5.9933   H         2 RES2   0.0000
    85 C30     12.3077   2.6749   5.6288   C.ar      2 RES2   0.0000
    86 H18     12.1530   3.2884   4.9478   H         2 RES2   0.0000
    87 C31     13.6399   0.9418   6.5640   C.ar      2 RES2   0.0000
    88 H19     14.3891   0.3925   6.5232   H         2 RES2   0.0000
    89 C32      6.4697   1.7079   4.7488   C.ar      2 RES2   0.0000
    90 H20      5.7498   1.3205   4.3052   H         2 RES2   0.0000
    91 C33     12.7914   0.8574   7.6238   C.ar      2 RES2   0.0000
    92 H21     12.9508   0.2326   8.2940   H         2 RES2   0.0000
    93 C34      7.5369   0.9460   5.0989   C.ar      2 RES2   0.0000
    94 H22      7.5386   0.0369   4.9035   H         2 RES2   0.0000
    95 C35     13.3912   1.8323   5.5569   C.ar      2 RES2   0.0000
    96 H23     13.9580   1.8686   4.8208   H         2 RES2   0.0000
    97 C36      7.5290   3.6221   5.6804   C.ar      2 RES2   0.0000
    98 H24      7.5148   4.5330   5.8698   H         2 RES2   0.0000
    99 C37      6.4490   3.0342   5.0438   C.ar      2 RES2   0.0000
   100 H25      5.7076   3.5481   4.8184   H         2 RES2   0.0000
   101 P1A     10.5900   6.3572   5.2335   P.3       2 RES2   0.0000
   102 C20A    11.6796   6.9266   2.7346   C.ar      2 RES2   0.0000
   103 H11A    11.9977   7.7149   3.1111   H         2 RES2   0.0000
   104 C21A    10.9734   6.0159   3.5161   C.ar      2 RES2   0.0000
   105 C22A    10.7902   4.5603   1.6211   C.ar      2 RES2   0.0000
   106 H12A    10.5111   3.7546   1.2481   H         2 RES2   0.0000
   107 C23A    10.5257   4.8308   2.9454   C.ar      2 RES2   0.0000
   108 H13A    10.0479   4.2193   3.4576   H         2 RES2   0.0000
   109 C24A     9.1736   7.4593   5.2789   C.ar      2 RES2   0.0000
   110 C25A    11.9921   7.2090   5.9548   C.ar      2 RES2   0.0000
   111 C26A    11.9071   6.6560   1.4013   C.ar      2 RES2   0.0000
   112 H14A    12.3602   7.2734   0.8728   H         2 RES2   0.0000
   113 C27A     8.9227   8.3808   4.2751   C.ar      2 RES2   0.0000
   114 H15A     9.4919   8.4383   3.5415   H         2 RES2   0.0000
   115 C28A    11.4640   5.4736   0.8498   C.ar      2 RES2   0.0000
   116 H16A    11.6221   5.2939  -0.0492   H         2 RES2   0.0000
   117 C29A    11.9808   8.5569   6.2367   C.ar      2 RES2   0.0000
   118 H17A    11.2510   9.0814   5.9957   H         2 RES2   0.0000
   119 C30A     8.3086   7.3985   6.3601   C.ar      2 RES2   0.0000
   120 H18A     8.4633   6.7850   7.0411   H         2 RES2   0.0000
   121 C31A     6.9764   9.1316   5.4250   C.ar      2 RES2   0.0000
   122 H19A     6.2271   9.6809   5.4658   H         2 RES2   0.0000
   123 C32A    14.1466   8.3655   7.2401   C.ar      2 RES2   0.0000
   124 H20A    14.8664   8.7529   7.6837   H         2 RES2   0.0000
   125 C33A     7.8249   9.2160   4.3652   C.ar      2 RES2   0.0000
   126 H21A     7.6655   9.8407   3.6950   H         2 RES2   0.0000
   127 C34A    13.0794   9.1274   6.8901   C.ar      2 RES2   0.0000
   128 H22A    13.0776  10.0365   7.0855   H         2 RES2   0.0000
   129 C35A     7.2251   8.2410   6.4321   C.ar      2 RES2   0.0000
   130 H23A     6.6583   8.2048   7.1682   H         2 RES2   0.0000
   131 C36A    13.0873   6.4513   6.3086   C.ar      2 RES2   0.0000
   132 H24A    13.1015   5.5404   6.1192   H         2 RES2   0.0000
   133 C37A    14.1673   7.0391   6.9452   C.ar      2 RES2   0.0000
   134 H25A    14.9087   6.5253   7.1706   H         2 RES2   0.0000
@<TRIPOS>BOND
     1     1     2    1
     2     2     4    1
     3     3     1    1
     4     4    18    1
     5     5     1    1
     6     6     5    3
     7     7     3    1
     8     8     7    2
     9     9     8    1
    10    10     3    1
    11    11    12    1
    12    13    10    2
    13    14    13    1
    14    15     2    2
    15    16    10    1
    16    17     7    1
    17    18    21   ar
    18    19    16   ar
    19    20    19    1
    20    21    15    1
    21    22    23    1
    22    24    22   ar
    23    25    24    1
    24    26    21   ar
    25    27    26    1
    26    28    18   ar
    27    29    28    1
    28    30    19   ar
    29    31    30    1
    30    32    11   ar
    31    33    32    1
    32    34     1    1
    33    35     1    1
    34    36     8    1
    35    37    35    1
    36    38     4    2
    37    39    38    1
    38    40    35    1
    39    41    42    1
    40    43    40    1
    41    44    43    1
    42    45    34    1
    43    46    40    2
    44    47    37    2
    45    48    36    1
    46    49    46    1
    47    50    49    1
    48    51    45    1
    49    52    53    1
    50    54    52   ar
    51    55    54    1
    52    56    51   ar
    53    57    56    1
    54    58    48   ar
    55    59    58    1
    56    60    49    2
    57    61    60    1
    58    62    41    2
    59    63    62    1
    60    64     1    1
    61    65    64    3
    62    11    17   ar
    63    13    15    1
    64    16    17   ar
    65    22    28   ar
    66    24    26   ar
    67    30    32   ar
    68    34    36    2
    69    37    38    1
    70    41    47    1
    71    43    45    2
    72    46    47    1
    73    48    51   ar
    74    52    58   ar
    75    54    56   ar
    76    60    62    1
    77    66    67    2
    78    67    70    1
    79    68    69    1
    80    70    68   ar
    81    71    72    1
    82    73    70   ar
    83    74    73    1
    84    75    67    1
    85    76    67    1
    86    77    68   ar
    87    78    77    1
    88    79    75   ar
    89    80    79    1
    90    81    71   ar
    91    82    81    1
    92    83    76   ar
    93    84    83    1
    94    85    75   ar
    95    86    85    1
    96    87    88    1
    97    89    90    1
    98    91    79   ar
    99    92    91    1
   100    93    83   ar
   101    94    93    1
   102    95    85   ar
   103    96    95    1
   104    97    76   ar
   105    98    97    1
   106    99    89   ar
   107   100    99    1
   108   101    66    2
   109   102   103    1
   110   104   101    1
   111   105   106    1
   112   107   104   ar
   113   108   107    1
   114   109   101    1
   115   110   101    1
   116   111   102   ar
   117   112   111    1
   118   113   109   ar
   119   114   113    1
   120   115   105   ar
   121   116   115    1
   122   117   110   ar
   123   118   117    1
   124   119   109   ar
   125   120   119    1
   126   121   122    1
   127   123   124    1
   128   125   113   ar
   129   126   125    1
   130   127   117   ar
   131   128   127    1
   132   129   119   ar
   133   130   129    1
   134   131   110   ar
   135   132   131    1
   136   133   123   ar
   137   134   133    1
   138    71    73   ar
   139    77    81   ar
   140    87    91   ar
   141    87    95   ar
   142    89    93   ar
   143    97    99   ar
   144   102   104   ar
   145   105   107   ar
   146   111   115   ar
   147   121   125   ar
   148   121   129   ar
   149   123   127   ar
   150   131   133   ar
@<TRIPOS>SUBSTRUCTURE
     1 RES1        1 GROUP             0 ****  ****    0  
     2 RES2       66 GROUP             0 ****  ****    0  
@<TRIPOS>CRYSIN
   10.5787   12.4102   12.9849   85.8470   68.1080   65.2480     2     1
