@<TRIPOS>MOLECULE
ERUPEP
   100   104     4     0     0
SMALL
USER_CHARGES
****
Generated from the CSD

@<TRIPOS>ATOM
     1 C1       2.0145  11.7554   1.8344   C.3       1 RES1   0.0000
     2 C2       2.1602  10.6902   2.8873   C.2       1 RES1   0.0000
     3 C3       1.5774  11.0033   4.2465   C.3       1 RES1   0.0000
     4 H1       1.0790  10.2263   4.5758   H         1 RES1   0.0000
     5 H2       0.9713  11.7712   4.1742   H         1 RES1   0.0000
     6 H3       2.3005  11.2172   4.8719   H         1 RES1   0.0000
     7 C4       0.5262  12.0279   1.5845   C.3       1 RES1   0.0000
     8 H4       0.0673  11.1834   1.3924   H         1 RES1   0.0000
     9 H5       0.4284  12.6337   0.8204   H         1 RES1   0.0000
    10 H6       0.1311  12.4400   2.3803   H         1 RES1   0.0000
    11 C5       2.7220  13.0458   2.3139   C.3       1 RES1   0.0000
    12 H7       2.3017  13.3611   3.1430   H         1 RES1   0.0000
    13 H8       2.6416  13.7395   1.6249   H         1 RES1   0.0000
    14 H9       3.6696  12.8589   2.4785   H         1 RES1   0.0000
    15 C6       2.9217   8.5216   3.6427   C.3       1 RES1   0.0000
    16 H10      2.1788   7.8730   3.5532   H         1 RES1   0.0000
    17 H11      2.8939   8.9067   4.5541   H         1 RES1   0.0000
    18 C7       4.2406   7.8370   3.4073   C.3       1 RES1   0.0000
    19 H12      4.9759   8.4270   3.7135   H         1 RES1   0.0000
    20 H13      4.2765   7.0015   3.9345   H         1 RES1   0.0000
    21 C8       5.8611   7.3280   1.6278   C.3       1 RES1   0.0000
    22 H14      5.9524   7.0285   0.6875   H         1 RES1   0.0000
    23 H15      6.2557   6.6344   2.2142   H         1 RES1   0.0000
    24 C9       6.5998   8.6770   1.8300   C.3       1 RES1   0.0000
    25 H16      6.9177   8.7378   2.7660   H         1 RES1   0.0000
    26 H17      7.3916   8.7085   1.2364   H         1 RES1   0.0000
    27 C10      3.6780   6.3079   1.6018   C.3       1 RES1   0.0000
    28 H18      2.9144   6.1885   2.2200   H         1 RES1   0.0000
    29 H19      4.2652   5.5129   1.6755   H         1 RES1   0.0000
    30 C11      3.1752   6.4452   0.1834   C.3       1 RES1   0.0000
    31 H20      3.9368   6.4137  -0.4492   H         1 RES1   0.0000
    32 H21      2.5614   5.6976  -0.0318   H         1 RES1   0.0000
    33 N1       2.7893   9.5958   2.6302   N.2       1 RES1   0.0000
    34 N2       4.4318   7.5194   1.9615   N.3       1 RES1   0.0000
    35 N3       5.7204   9.8322   1.5354   N.3       1 RES1   0.0000
    36 H22      6.1372  10.3750   0.9345   H         1 RES1   0.0000
    37 H23      5.5950  10.3097   2.2994   H         1 RES1   0.0000
    38 N4       2.4694   7.7266   0.0520   N.3       1 RES1   0.0000
    39 H24      1.7085   7.7199   0.5517   H         1 RES1   0.0000
    40 H25      2.2437   7.8752  -0.8175   H         1 RES1   0.0000
    41 S1       2.7800  11.2442   0.2414   S.3       1 RES1   0.0000
    42 Fe1      3.7997   9.2641   0.7457   Fe        1 RES1   1.0000
    43 Cl1      4.8572   9.0825  -1.3074   Cl        1 RES1   0.0000
    44 C12      7.6280   3.8824   0.3871   C.ar      2 RES2   0.0000
    45 C13      6.3116   3.4591   0.0376   C.ar      2 RES2   0.0000
    46 H26      5.9022   2.7542   0.5243   H         2 RES2   0.0000
    47 C14      5.6191   4.0626  -1.0038   C.ar      2 RES2   0.0000
    48 H27      4.7516   3.7451  -1.2219   H         2 RES2   0.0000
    49 C15      6.1416   5.0985  -1.7246   C.ar      2 RES2   0.0000
    50 H28      5.6529   5.4971  -2.4352   H         2 RES2   0.0000
    51 C16      7.4148   5.5467  -1.3852   C.ar      2 RES2   0.0000
    52 H29      7.7981   6.2786  -1.8560   H         2 RES2   0.0000
    53 C17      8.1238   4.9386  -0.3712   C.ar      2 RES2   0.0000
    54 H30      8.9988   5.2584  -0.1805   H         2 RES2   0.0000
    55 C18      8.1488   1.6777   1.8921   C.ar      2 RES2   0.0000
    56 C19      7.8628   0.7679   0.9013   C.ar      2 RES2   0.0000
    57 H31      7.7208   1.1057   0.0246   H         2 RES2   0.0000
    58 C20      7.7626  -0.5990   1.0833   C.ar      2 RES2   0.0000
    59 H32      7.5765  -1.1710   0.3481   H         2 RES2   0.0000
    60 C21      7.9411  -1.1192   2.3529   C.ar      2 RES2   0.0000
    61 H33      7.8659  -2.0538   2.5002   H         2 RES2   0.0000
    62 C22      8.2318  -0.2657   3.4116   C.ar      2 RES2   0.0000
    63 H34      8.3515  -0.6058   4.2898   H         2 RES2   0.0000
    64 C23      8.3450   1.1080   3.1560   C.ar      2 RES2   0.0000
    65 H35      8.5674   1.6822   3.8796   H         2 RES2   0.0000
    66 C24     10.0188   3.4095   1.5354   C.ar      2 RES2   0.0000
    67 C25     10.6809   3.1438   0.3380   C.ar      2 RES2   0.0000
    68 H36     10.1526   3.0177  -0.4420   H         2 RES2   0.0000
    69 C26     12.0605   3.0492   0.2109   C.ar      2 RES2   0.0000
    70 H37     12.4453   2.8330  -0.6312   H         2 RES2   0.0000
    71 C27     12.8879   3.2744   1.3202   C.ar      2 RES2   0.0000
    72 H38     13.8349   3.2429   1.2422   H         2 RES2   0.0000
    73 C28     12.2882   3.5401   2.5103   C.ar      2 RES2   0.0000
    74 H39     12.8282   3.6910   3.2773   H         2 RES2   0.0000
    75 C29     10.9060   3.5942   2.6316   C.ar      2 RES2   0.0000
    76 H40     10.5344   3.7631   3.4896   H         2 RES2   0.0000
    77 C30      7.7756   4.1189   2.9537   C.ar      2 RES2   0.0000
    78 C31      6.5644   3.7698   3.5272   C.ar      2 RES2   0.0000
    79 H41      6.1265   2.9907   3.2022   H         2 RES2   0.0000
    80 C32      5.9460   4.4882   4.5541   C.ar      2 RES2   0.0000
    81 H42      5.1147   4.1977   4.9109   H         2 RES2   0.0000
    82 C33      6.5452   5.6142   5.0437   C.ar      2 RES2   0.0000
    83 H43      6.1405   6.1142   5.7428   H         2 RES2   0.0000
    84 C34      7.7492   6.0173   4.5021   C.ar      2 RES2   0.0000
    85 H44      8.1763   6.7965   4.8358   H         2 RES2   0.0000
    86 C35      8.3441   5.2967   3.4766   C.ar      2 RES2   0.0000
    87 H45      9.1661   5.6075   3.1141   H         2 RES2   0.0000
    88 B1       8.3917   3.2812   1.7130   B         2 RES2  -1.0000
    89 C36      5.5911  11.0821   5.3052   C.3       3 RES3   0.0000
    90 H46      6.4997  11.3276   5.5796   H         3 RES3   0.0000
    91 H47      5.4616  10.1182   5.4222   H         3 RES3   0.0000
    92 H48      4.9418  11.5685   5.8569   H         3 RES3   0.0000
    93 O1       5.4074  11.4131   3.9807   O.3       3 RES3   0.0000
    94 H49      5.5565  12.2329   3.8738   H         3 RES3   0.0000
    95 C37     -0.8647   7.7919   1.7318   C.3       4 RES4   0.0000
    96 H50     -1.3121   7.7334   2.5999   H         4 RES4   0.0000
    97 H51     -1.5073   7.5960   1.0183   H         4 RES4   0.0000
    98 H52     -0.5067   8.6972   1.6090   H         4 RES4   0.0000
    99 O2       0.1658   6.8821   1.6841   O.3       4 RES4   0.0000
   100 H53     -0.1463   6.1029   1.7202   H         4 RES4   0.0000
@<TRIPOS>BOND
     1     1     2    1
     2     2     3    1
     3     3     4    1
     4     5     3    1
     5     6     3    1
     6     7     1    1
     7     8     7    1
     8     9     7    1
     9    10     7    1
    10    11     1    1
    11    12    11    1
    12    13    11    1
    13    14    11    1
    14    15    16    1
    15    17    15    1
    16    18    15    1
    17    19    18    1
    18    20    18    1
    19    21    22    1
    20    23    21    1
    21    24    21    1
    22    25    24    1
    23    26    24    1
    24    27    28    1
    25    29    27    1
    26    30    27    1
    27    31    30    1
    28    32    30    1
    29    33     2    2
    30    34    18    1
    31    35    24    1
    32    36    35    1
    33    37    35    1
    34    38    30    1
    35    39    38    1
    36    40    38    1
    37    41     1    1
    38    42    33    1
    39    43    42    1
    40    15    33    1
    41    21    34    1
    42    27    34    1
    43    34    42    1
    44    35    42    1
    45    38    42    1
    46    41    42    1
    47    44    45   ar
    48    45    46    1
    49    47    45   ar
    50    48    47    1
    51    49    47   ar
    52    50    49    1
    53    51    49   ar
    54    52    51    1
    55    53    44   ar
    56    54    53    1
    57    55    56   ar
    58    56    57    1
    59    58    56   ar
    60    59    58    1
    61    60    58   ar
    62    61    60    1
    63    62    60   ar
    64    63    62    1
    65    64    55   ar
    66    65    64    1
    67    66    67   ar
    68    67    68    1
    69    69    67   ar
    70    70    69    1
    71    71    69   ar
    72    72    71    1
    73    73    71   ar
    74    74    73    1
    75    75    66   ar
    76    76    75    1
    77    77    78   ar
    78    78    79    1
    79    80    78   ar
    80    81    80    1
    81    82    80   ar
    82    83    82    1
    83    84    82   ar
    84    85    84    1
    85    86    77   ar
    86    87    86    1
    87    88    44    1
    88    51    53   ar
    89    55    88    1
    90    62    64   ar
    91    66    88    1
    92    73    75   ar
    93    77    88    1
    94    84    86   ar
    95    89    90    1
    96    91    89    1
    97    92    89    1
    98    93    89    1
    99    94    93    1
   100    95    96    1
   101    97    95    1
   102    98    95    1
   103    99    95    1
   104   100    99    1
@<TRIPOS>SUBSTRUCTURE
     1 RES1        1 GROUP             0 ****  ****    0  
     2 RES2       44 GROUP             0 ****  ****    0  
     3 RES3       89 GROUP             0 ****  ****    0  
     4 RES4       95 GROUP             0 ****  ****    0  
@<TRIPOS>CRYSIN
   11.2170   22.5200   17.8270   90.0000  125.8830   90.0000    14     1
