@<TRIPOS>MOLECULE
ESUPIU
    83    90     5     0     0
SMALL
USER_CHARGES
****
Generated from the CSD

@<TRIPOS>ATOM
     1 Fe1     13.3335   9.2541   3.9302   Fe        1 RES1   2.0000
     2 S1      17.1029  10.9290   1.6207   S.3       1 RES1   0.0000
     3 S2      11.9700   7.1846  -0.1608   S.3       1 RES1   0.0000
     4 S3      15.8989   5.2983   5.0405   S.3       1 RES1   0.0000
     5 N1      14.9854  10.1536   2.7808   N.2       1 RES1   0.0000
     6 N2      12.5494  11.2058   3.3201   N.2       1 RES1   0.0000
     7 N3      12.8530  13.0401   2.1010   N.pl3     1 RES1   0.0000
     8 H1      13.2435  13.6173   1.5981   H         1 RES1   0.0000
     9 N4      12.6455   8.1519   2.0926   N.2       1 RES1   0.0000
    10 N5      11.4589   8.4095   4.5209   N.2       1 RES1   0.0000
    11 N6       9.6256   7.2959   3.9717   N.pl3     1 RES1   0.0000
    12 H2       9.0585   6.8640   3.4904   H         1 RES1   0.0000
    13 N7      14.6371   7.4504   4.5490   N.2       1 RES1   0.0000
    14 N8      14.2061   9.7966   5.8354   N.2       1 RES1   0.0000
    15 N9      15.5670   9.3625   7.5179   N.pl3     1 RES1   0.0000
    16 H3      16.1181   8.9388   8.0250   H         1 RES1   0.0000
    17 C1      11.3921  11.9783   3.3552   C.ar      1 RES1   0.0000
    18 C2      10.1818  11.7685   4.0237   C.ar      1 RES1   0.0000
    19 H4      10.0457  11.0218   4.5613   H         1 RES1   0.0000
    20 C3       9.2104  12.7105   3.8482   C.ar      1 RES1   0.0000
    21 H5       8.3897  12.5784   4.2657   H         1 RES1   0.0000
    22 C4       9.3797  13.8585   3.0799   C.ar      1 RES1   0.0000
    23 H6       8.6871  14.4713   2.9873   H         1 RES1   0.0000
    24 C5      10.5778  14.0689   2.4676   C.ar      1 RES1   0.0000
    25 H7      10.7183  14.8433   1.9716   H         1 RES1   0.0000
    26 C6      11.5720  13.1404   2.5842   C.ar      1 RES1   0.0000
    27 C7      13.4009  11.8916   2.5434   C.2       1 RES1   0.0000
    28 C8      14.7100  11.4122   2.2822   C.2       1 RES1   0.0000
    29 C9      15.7595  11.9829   1.6334   C.2       1 RES1   0.0000
    30 H8      15.7480  12.8302   1.2490   H         1 RES1   0.0000
    31 C10     16.1924   9.8037   2.5111   C.2       1 RES1   0.0000
    32 H9      16.5439   8.9875   2.7863   H         1 RES1   0.0000
    33 C11     10.6305   8.3420   5.6360   C.ar      1 RES1   0.0000
    34 C12     10.8146   8.8155   6.9407   C.ar      1 RES1   0.0000
    35 H10     11.5772   9.2878   7.1877   H         1 RES1   0.0000
    36 C13      9.8166   8.5483   7.8269   C.ar      1 RES1   0.0000
    37 H11      9.9112   8.8479   8.7018   H         1 RES1   0.0000
    38 C14      8.6628   7.8499   7.4899   C.ar      1 RES1   0.0000
    39 H12      8.0161   7.6864   8.1377   H         1 RES1   0.0000
    40 C15      8.4729   7.4027   6.2160   C.ar      1 RES1   0.0000
    41 H13      7.6913   6.9630   5.9713   H         1 RES1   0.0000
    42 C16      9.4816   7.6259   5.3017   C.ar      1 RES1   0.0000
    43 C17     10.8119   7.7706   3.5659   C.2       1 RES1   0.0000
    44 C18     11.3780   7.6291   2.2345   C.2       1 RES1   0.0000
    45 C19     10.8654   7.0755   1.1193   C.2       1 RES1   0.0000
    46 H14     10.0224   6.6875   1.0599   H         1 RES1   0.0000
    47 C20     13.0703   7.9765   0.8778   C.2       1 RES1   0.0000
    48 H15     13.9092   8.2619   0.5942   H         1 RES1   0.0000
    49 C21     14.2038  10.8630   6.6612   C.ar      1 RES1   0.0000
    50 C22     15.0512  10.6678   7.7483   C.ar      1 RES1   0.0000
    51 C23     15.2849  11.5676   8.7370   C.ar      1 RES1   0.0000
    52 H16     15.8731  11.3943   9.4357   H         1 RES1   0.0000
    53 C24     14.5948  12.7545   8.6387   C.ar      1 RES1   0.0000
    54 H17     14.6769  13.4245   9.2789   H         1 RES1   0.0000
    55 C25     13.8383  12.8846   7.6247   C.ar      1 RES1   0.0000
    56 H18     13.4154  13.7119   7.5862   H         1 RES1   0.0000
    57 C26     13.5169  12.0678   6.5854   C.ar      1 RES1   0.0000
    58 H19     12.9154  12.2875   5.9118   H         1 RES1   0.0000
    59 C27     15.0329   8.9036   6.3509   C.2       1 RES1   0.0000
    60 C28     15.2830   7.6268   5.7554   C.2       1 RES1   0.0000
    61 C29     15.9969   6.5958   6.1683   C.2       1 RES1   0.0000
    62 H20     16.4846   6.5732   6.9588   H         1 RES1   0.0000
    63 C30     14.8716   6.2444   4.0574   C.2       1 RES1   0.0000
    64 H21     14.5109   5.9407   3.2562   H         1 RES1   0.0000
    65 Cl1      6.6680   6.5677   1.9967   Cl        2 RES2   0.0000
    66 O1       6.7884   7.5967   1.0393   O.2       2 RES2   0.0000
    67 O2       6.4277   7.1834   3.2639   O.3       2 RES2  -1.0000
    68 O3       7.8793   5.8683   2.0533   O.2       2 RES2   0.0000
    69 O4       5.6202   5.7185   1.6643   O.2       2 RES2   0.0000
    70 Cl2     11.7435   3.9958   3.7119   Cl        3 RES3   0.0000
    71 O5      10.3948   4.2912   3.2948   O.3       3 RES3  -1.0000
    72 O6      12.0885   4.7982   4.8242   O.2       3 RES3   0.0000
    73 O7      12.5808   4.2457   2.6656   O.2       3 RES3   0.0000
    74 O8      11.7735   2.6685   4.0841   O.2       3 RES3   0.0000
    75 N10     11.3761  10.5987   0.0772   N.1       4 RES4   0.0000
    76 C31      9.0287  10.0972   0.9859   C.3       4 RES4   0.0000
    77 H22      8.6229   9.4065   0.4563   H         4 RES4   0.0000
    78 H23      8.4912  10.8917   0.9405   H         4 RES4   0.0000
    79 H24      9.0919   9.8054   1.8980   H         4 RES4   0.0000
    80 C32     10.3527  10.3808   0.4761   C.1       4 RES4   0.0000
    81 O9      16.1289   8.4097  -0.5028   O.3       5 RES5   0.0000
    82 H25     15.8266   7.9974  -1.1749   H         5 RES5   0.0000
    83 H26     16.8476   8.0002  -0.3036   H         5 RES5   0.0000
@<TRIPOS>BOND
     1     1     5    1
     2     2    29    1
     3     3    45    1
     4     4    61    1
     5     5    28    1
     6     6     1    1
     7     7     8    1
     8     9     1    1
     9    10     1    1
    10    11    12    1
    11    13     1    1
    12    14     1    1
    13    15    16    1
    14    17     6    1
    15    18    17   ar
    16    19    18    1
    17    20    18   ar
    18    21    20    1
    19    22    20   ar
    20    23    22    1
    21    24    22   ar
    22    25    24    1
    23    26     7    1
    24    27     6    2
    25    28    27    1
    26    29    28    2
    27    30    29    1
    28    31     2    1
    29    32    31    1
    30    33    10    1
    31    34    33   ar
    32    35    34    1
    33    36    34   ar
    34    37    36    1
    35    38    36   ar
    36    39    38    1
    37    40    38   ar
    38    41    40    1
    39    42    11    1
    40    43    10    2
    41    44     9    1
    42    45    44    2
    43    46    45    1
    44    47     3    1
    45    48    47    1
    46    49    14    1
    47    50    15    1
    48    51    50   ar
    49    52    51    1
    50    53    51   ar
    51    54    53    1
    52    55    53   ar
    53    56    55    1
    54    57    49   ar
    55    58    57    1
    56    59    14    2
    57    60    13    1
    58    61    60    2
    59    62    61    1
    60    63     4    1
    61    64    63    1
    62     5    31    2
    63     7    27    1
    64     9    47    2
    65    11    43    1
    66    13    63    2
    67    15    59    1
    68    17    26   ar
    69    24    26   ar
    70    33    42   ar
    71    40    42   ar
    72    43    44    1
    73    49    50   ar
    74    55    57   ar
    75    59    60    1
    76    65    66    2
    77    67    65    1
    78    68    65    2
    79    69    65    2
    80    70    71    1
    81    72    70    2
    82    73    70    2
    83    74    70    2
    84    75    80    3
    85    76    77    1
    86    78    76    1
    87    79    76    1
    88    80    76    1
    89    81    82    1
    90    83    81    1
@<TRIPOS>SUBSTRUCTURE
     1 RES1        1 GROUP             0 ****  ****    0  
     2 RES2       65 GROUP             0 ****  ****    0  
     3 RES3       70 GROUP             0 ****  ****    0  
     4 RES4       75 GROUP             0 ****  ****    0  
     5 RES5       81 GROUP             0 ****  ****    0  
@<TRIPOS>CRYSIN
   11.6635   12.2558   14.2597   86.6150   80.0550   74.1020     2     1
