@<TRIPOS>MOLECULE
ESUYAT
    80    84     2     0     0
SMALL
USER_CHARGES
****
Generated from the CSD

@<TRIPOS>ATOM
     1 Fe1      5.5002   8.4326   7.0418   Fe        1 RES1   2.0000
     2 O1       6.8746   7.6998   5.7405   O.3       1 RES1   0.0000
     3 N1       5.6874   6.4501   8.0122   N.ar      1 RES1   0.0000
     4 N2       7.9250   7.0648   6.2742   N.pl3     1 RES1   0.0000
     5 N3       9.1577   5.5824   7.3263   N.pl3     1 RES1   0.0000
     6 H3       9.3461   4.8133   7.7108   H         1 RES1   0.0000
     7 N4       8.2068   9.6840  10.4458   N.2       1 RES1  -1.0000
     8 N5       7.0336   9.1308   8.3530   N.1       1 RES1   0.0000
     9 N6      10.6245  10.0795  10.6796   N.1       1 RES1   0.0000
    10 C1       6.7386   5.6195   7.8826   C.ar      1 RES1   0.0000
    11 C2       6.7545   4.3259   8.3924   C.ar      1 RES1   0.0000
    12 H4       7.5050   3.7601   8.2572   H         1 RES1   0.0000
    13 C3       5.6470   3.8790   9.1036   C.ar      1 RES1   0.0000
    14 H5       5.6257   2.9995   9.4628   H         1 RES1   0.0000
    15 C4       4.5870   4.7315   9.2797   C.ar      1 RES1   0.0000
    16 H6       3.8274   4.4608   9.7825   H         1 RES1   0.0000
    17 C5       4.6418   5.9855   8.7135   C.ar      1 RES1   0.0000
    18 H7       3.8915   6.5580   8.8262   H         1 RES1   0.0000
    19 C6       7.9132   6.1170   7.1629   C.2       1 RES1   0.0000
    20 C7       9.2784   7.1972   5.6349   C.3       1 RES1   0.0000
    21 C8      10.1411   6.5319   6.7376   C.3       1 RES1   0.0000
    22 C9       9.5862   8.6518   5.3419   C.3       1 RES1   0.0000
    23 H8       9.0074   8.9681   4.6166   H         1 RES1   0.0000
    24 H9      10.5247   8.7395   5.0715   H         1 RES1   0.0000
    25 H10      9.4265   9.1882   6.1461   H         1 RES1   0.0000
    26 C10      9.2058   6.3801   4.3462   C.3       1 RES1   0.0000
    27 H11      9.1276   5.4289   4.5659   H         1 RES1   0.0000
    28 H12     10.0205   6.5277   3.8195   H         1 RES1   0.0000
    29 H13      8.4247   6.6609   3.8251   H         1 RES1   0.0000
    30 C11     11.3551   5.7932   6.2081   C.3       1 RES1   0.0000
    31 H14     11.8638   5.4213   6.9573   H         1 RES1   0.0000
    32 H15     11.9209   6.4147   5.7053   H         1 RES1   0.0000
    33 H16     11.0635   5.0663   5.6180   H         1 RES1   0.0000
    34 C12     10.5530   7.5143   7.8347   C.3       1 RES1   0.0000
    35 H17      9.7543   7.9460   8.2037   H         1 RES1   0.0000
    36 H18     11.1473   8.1965   7.4559   H         1 RES1   0.0000
    37 H19     11.0222   7.0311   8.5473   H         1 RES1   0.0000
    38 C13      7.6595   9.3897   9.2994   C.1       1 RES1   0.0000
    39 C14      9.5015   9.8661  10.5092   C.1       1 RES1   0.0000
    40 O1B      4.1258   9.1654   8.3431   O.3       1 RES1   0.0000
    41 N1B      5.3130  10.4151   6.0714   N.ar      1 RES1   0.0000
    42 N2B      3.0754   9.8004   7.8094   N.pl3     1 RES1   0.0000
    43 N3B      1.8427  11.2828   6.7573   N.pl3     1 RES1   0.0000
    44 H3B      1.6543  12.0519   6.3728   H         1 RES1   0.0000
    45 N4B      2.7936   7.1812   3.6378   N.2       1 RES1  -1.0000
    46 N5B      3.9668   7.7344   5.7306   N.1       1 RES1   0.0000
    47 N6B      0.3759   6.7857   3.4040   N.1       1 RES1   0.0000
    48 C1B      4.2618  11.2457   6.2010   C.ar      1 RES1   0.0000
    49 C2B      4.2459  12.5393   5.6912   C.ar      1 RES1   0.0000
    50 H4B      3.4954  13.1051   5.8264   H         1 RES1   0.0000
    51 C3B      5.3534  12.9862   4.9800   C.ar      1 RES1   0.0000
    52 H5B      5.3747  13.8657   4.6208   H         1 RES1   0.0000
    53 C4B      6.4134  12.1337   4.8039   C.ar      1 RES1   0.0000
    54 H6B      7.1731  12.4044   4.3011   H         1 RES1   0.0000
    55 C5B      6.3586  10.8797   5.3701   C.ar      1 RES1   0.0000
    56 H7B      7.1089  10.3072   5.2574   H         1 RES1   0.0000
    57 C6B      3.0872  10.7482   6.9207   C.2       1 RES1   0.0000
    58 C7B      1.7220   9.6680   8.4488   C.3       1 RES1   0.0000
    59 C8B      0.8593  10.3333   7.3460   C.3       1 RES1   0.0000
    60 C9B      1.4142   8.2134   8.7417   C.3       1 RES1   0.0000
    61 H8B      1.9930   7.8971   9.4670   H         1 RES1   0.0000
    62 H9B      0.4757   8.1257   9.0121   H         1 RES1   0.0000
    63 H10B     1.5739   7.6770   7.9375   H         1 RES1   0.0000
    64 C10B     1.7946  10.4851   9.7374   C.3       1 RES1   0.0000
    65 H11B     1.8728  11.4363   9.5177   H         1 RES1   0.0000
    66 H12B     0.9799  10.3375  10.2641   H         1 RES1   0.0000
    67 H13B     2.5757  10.2043  10.2585   H         1 RES1   0.0000
    68 C11B    -0.3547  11.0720   7.8756   C.3       1 RES1   0.0000
    69 H14B    -0.8634  11.4439   7.1263   H         1 RES1   0.0000
    70 H15B    -0.9204  10.4505   8.3783   H         1 RES1   0.0000
    71 H16B    -0.0630  11.7989   8.4657   H         1 RES1   0.0000
    72 C12B     0.4475   9.3509   6.2489   C.3       1 RES1   0.0000
    73 H17B     1.2461   8.9192   5.8799   H         1 RES1   0.0000
    74 H18B    -0.1469   8.6687   6.6277   H         1 RES1   0.0000
    75 H19B    -0.0218   9.8341   5.5363   H         1 RES1   0.0000
    76 C13B     3.3409   7.4755   4.7842   C.1       1 RES1   0.0000
    77 C14B     1.4989   6.9991   3.5744   C.1       1 RES1   0.0000
    78 O2       0.5753   3.9987   4.5053   O.3       2 RES2   0.0000
    79 H1       0.4055   4.7813   4.2251   H         2 RES2   0.0000
    80 H2      -0.0970   3.5670   4.2110   H         2 RES2   0.0000
@<TRIPOS>BOND
     1     1     2    1
     2     2     4    1
     3     3     1    1
     4     4    19    2
     5     5     6    1
     6     7    38    1
     7     8     1    1
     8     9    39    3
     9    10     3   ar
    10    11    10   ar
    11    12    11    1
    12    13    11   ar
    13    14    13    1
    14    15    13   ar
    15    16    15    1
    16    17     3   ar
    17    18    17    1
    18    19     5    1
    19    20     4    1
    20    21     5    1
    21    22    20    1
    22    23    22    1
    23    24    22    1
    24    25    22    1
    25    26    20    1
    26    27    26    1
    27    28    26    1
    28    29    26    1
    29    30    21    1
    30    31    30    1
    31    32    30    1
    32    33    30    1
    33    34    21    1
    34    35    34    1
    35    36    34    1
    36    37    34    1
    37    38     8    3
    38    39     7    1
    39    40     1    1
    40    41     1    1
    41    42    40    1
    42    43    44    1
    43    45    76    1
    44    46     1    1
    45    47    77    3
    46    48    41   ar
    47    49    48   ar
    48    50    49    1
    49    51    49   ar
    50    52    51    1
    51    53    51   ar
    52    54    53    1
    53    55    41   ar
    54    56    55    1
    55    57    42    2
    56    58    42    1
    57    59    43    1
    58    60    58    1
    59    61    60    1
    60    62    60    1
    61    63    60    1
    62    64    58    1
    63    65    64    1
    64    66    64    1
    65    67    64    1
    66    68    59    1
    67    69    68    1
    68    70    68    1
    69    71    68    1
    70    72    59    1
    71    73    72    1
    72    74    72    1
    73    75    72    1
    74    76    46    3
    75    77    45    1
    76    10    19    1
    77    15    17   ar
    78    20    21    1
    79    43    57    1
    80    48    57    1
    81    53    55   ar
    82    58    59    1
    83    78    79    1
    84    80    78    1
@<TRIPOS>SUBSTRUCTURE
     1 RES1        1 GROUP             0 ****  ****    0  
     2 RES2       78 GROUP             0 ****  ****    0  
@<TRIPOS>CRYSIN
   13.6539    8.4326   14.3314   90.0000  100.6700   90.0000    14     1
