@<TRIPOS>MOLECULE
ETIROR
   207   226     1     0     0
SMALL
NO_CHARGES
****
Generated from the CSD

@<TRIPOS>ATOM
     1 Fe1     -2.5026   9.5768  11.9241   Fe        1 RES1   0.0000
     2 O1      -1.9628  11.6339  11.9288   O.3       1 RES1   0.0000
     3 O2       9.6067  11.0191   8.4255   O.3       1 RES1   0.0000
     4 O3       6.4716   2.0437   6.4867   O.3       1 RES1   0.0000
     5 O4      -3.1426  11.7823  -0.9825   O.3       1 RES1   0.0000
     6 O5     -11.4127   8.9658   3.4294   O.3       1 RES1   0.0000
     7 N1      -4.2999   9.9896  11.0858   N.2       1 RES1   0.0000
     8 N2      -1.7143   9.3431  10.0692   N.2       1 RES1   0.0000
     9 N3       5.7127   7.0524   8.7833   N.pl3     1 RES1   0.0000
    10 N4      -5.8153  10.0758   3.3936   N.pl3     1 RES1   0.0000
    11 C1       0.5879   8.7015  10.7021   C.2       1 RES1   0.0000
    12 C2      -4.1845  10.7739   5.0622   C.ar      1 RES1   0.0000
    13 H1      -3.7777  11.3624   4.4370   H         1 RES1   0.0000
    14 C3      -5.8413   9.1095   5.6162   C.ar      1 RES1   0.0000
    15 H2      -6.5790   8.5634   5.3735   H         1 RES1   0.0000
    16 C4      -0.2823   8.8068   8.3492   C.2       1 RES1   0.0000
    17 H3       0.5060   8.5523   7.8851   H         1 RES1   0.0000
    18 C5      -1.4681   9.0913   7.8007   C.2       1 RES1   0.0000
    19 H4      -1.6743   9.0714   6.8735   H         1 RES1   0.0000
    20 C6      -2.3735   9.4293   8.8565   C.2       1 RES1   0.0000
    21 C7      -3.7296   9.7549   8.6857   C.2       1 RES1   0.0000
    22 C8      -4.2549   9.8354   7.2928   C.ar      1 RES1   0.0000
    23 C9      -5.2836   9.9876   4.6766   C.ar      1 RES1   0.0000
    24 C10     -5.0062  10.4157   2.3013   C.ar      1 RES1   0.0000
    25 C11     -3.8816   9.7425   2.0342   C.ar      1 RES1   0.0000
    26 H5      -3.6347   8.9850   2.5519   H         1 RES1   0.0000
    27 C12     -3.7336  11.4989   0.2576   C.ar      1 RES1   0.0000
    28 C13     -3.6984  10.6915   6.3498   C.ar      1 RES1   0.0000
    29 H6      -2.9602  11.2349   6.5998   H         1 RES1   0.0000
    30 C14     -7.3258   9.7521   3.4007   C.ar      1 RES1   0.0000
    31 C15     -8.2444  10.5929   3.9969   C.ar      1 RES1   0.0000
    32 H7      -7.9393  11.3908   4.4124   H         1 RES1   0.0000
    33 C16     -9.5937  10.3075   4.0065   C.ar      1 RES1   0.0000
    34 H8     -10.2028  10.8941   4.4387   H         1 RES1   0.0000
    35 C17    -10.0509   9.1660   3.3864   C.ar      1 RES1   0.0000
    36 C18    -11.9157   7.8137   2.7712   C.3       1 RES1   0.0000
    37 H9     -12.3462   8.0791   1.9316   H         1 RES1   0.0000
    38 H10    -12.5726   7.3698   3.3481   H         1 RES1   0.0000
    39 H11    -11.1790   7.1972   2.5805   H         1 RES1   0.0000
    40 C19     -9.1631   8.3242   2.7783   C.ar      1 RES1   0.0000
    41 H12     -9.4727   7.5427   2.3357   H         1 RES1   0.0000
    42 C20     -7.8014   8.6162   2.8069   C.ar      1 RES1   0.0000
    43 H13     -7.1883   8.0122   2.4037   H         1 RES1   0.0000
    44 C21     -2.6775  12.6787  12.5537   C.3       1 RES1   0.0000
    45 H14     -3.3365  13.0447  11.9274   H         1 RES1   0.0000
    46 H15     -2.0545  13.3860  12.8224   H         1 RES1   0.0000
    47 H16     -3.1383  12.3315  13.3463   H         1 RES1   0.0000
    48 C22     -5.3276   9.0348   6.8873   C.ar      1 RES1   0.0000
    49 H17     -5.7110   8.4241   7.5058   H         1 RES1   0.0000
    50 C23     -4.6130  10.0125   9.7427   C.2       1 RES1   0.0000
    51 C24     -5.9880  10.4081   9.5822   C.2       1 RES1   0.0000
    52 H18     -6.4492  10.5164   8.7592   H         1 RES1   0.0000
    53 C25     -6.4961  10.5939  10.8080   C.2       1 RES1   0.0000
    54 H19     -7.3893  10.8442  11.0134   H         1 RES1   0.0000
    55 C26     -5.4562  10.3496  11.7504   C.2       1 RES1   0.0000
    56 C27      1.9221   8.2705  10.1801   C.ar      1 RES1   0.0000
    57 C28      2.3507   6.9719  10.3429   C.ar      1 RES1   0.0000
    58 H20      1.7878   6.3436  10.7797   H         1 RES1   0.0000
    59 C29      3.6047   6.5678   9.8755   C.ar      1 RES1   0.0000
    60 H21      3.8867   5.6691   9.9989   H         1 RES1   0.0000
    61 C30      4.4380   7.4661   9.2340   C.ar      1 RES1   0.0000
    62 C31      4.0034   8.7685   9.0647   C.ar      1 RES1   0.0000
    63 H22      4.5631   9.3975   8.6243   H         1 RES1   0.0000
    64 C32      2.7624   9.1631   9.5321   C.ar      1 RES1   0.0000
    65 H23      2.4809  10.0613   9.4073   H         1 RES1   0.0000
    66 C33      5.8596   5.7786   8.1632   C.ar      1 RES1   0.0000
    67 C34      7.0480   5.0700   8.3445   C.ar      1 RES1   0.0000
    68 H24      7.7489   5.4408   8.8680   H         1 RES1   0.0000
    69 C35      7.1994   3.8374   7.7650   C.ar      1 RES1   0.0000
    70 H25      8.0151   3.3657   7.8892   H         1 RES1   0.0000
    71 C36      6.2054   3.2676   7.0113   C.ar      1 RES1   0.0000
    72 C37      5.0266   3.9849   6.8015   C.ar      1 RES1   0.0000
    73 H26      4.3362   3.6230   6.2586   H         1 RES1   0.0000
    74 C38      4.8780   5.2222   7.3858   C.ar      1 RES1   0.0000
    75 H27      4.0702   5.7033   7.2474   H         1 RES1   0.0000
    76 C39      5.4242   1.3599   5.7927   C.3       1 RES1   0.0000
    77 H28      4.6788   1.1931   6.4080   H         1 RES1   0.0000
    78 H29      5.7614   0.5062   5.4503   H         1 RES1   0.0000
    79 H30      5.1126   1.9120   5.0456   H         1 RES1   0.0000
    80 C40      6.7698   8.0158   8.6783   C.ar      1 RES1   0.0000
    81 C41      7.1052   8.8049   9.7634   C.ar      1 RES1   0.0000
    82 H31      6.6649   8.6674  10.5930   H         1 RES1   0.0000
    83 C42      8.0628   9.7827   9.6633   C.ar      1 RES1   0.0000
    84 H32      8.2719  10.3259  10.4140   H         1 RES1   0.0000
    85 C43      8.7244   9.9704   8.4589   C.ar      1 RES1   0.0000
    86 C44     10.1230  11.3657   7.1521   C.3       1 RES1   0.0000
    87 H33     10.6928  10.6407   6.8218   H         1 RES1   0.0000
    88 H34     10.6511  12.1883   7.2272   H         1 RES1   0.0000
    89 H35      9.3818  11.5099   6.5274   H         1 RES1   0.0000
    90 C45      8.4501   9.1458   7.3929   C.ar      1 RES1   0.0000
    91 H36      8.9333   9.2436   6.5805   H         1 RES1   0.0000
    92 C46      7.4729   8.1738   7.4979   C.ar      1 RES1   0.0000
    93 H37      7.2819   7.6120   6.7571   H         1 RES1   0.0000
    94 C47     -0.4242   8.9601   9.7777   C.2       1 RES1   0.0000
    95 C48     -1.7268  11.4510  -1.0255   C.3       1 RES1   0.0000
    96 H38     -1.3628  11.6844  -1.9064   H         1 RES1   0.0000
    97 H39     -1.6099  10.4911  -0.8690   H         1 RES1   0.0000
    98 H40     -1.2516  11.9559  -0.3332   H         1 RES1   0.0000
    99 C49     -2.9669  10.2280   0.8371   C.ar      1 RES1   0.0000
   100 H41     -2.1493   9.8547   0.5334   H         1 RES1   0.0000
   101 C50     -5.0487  11.8159   0.4317   C.ar      1 RES1   0.0000
   102 H42     -5.5885  12.2520  -0.2166   H         1 RES1   0.0000
   103 C51     -5.4201  11.4759   1.4929   C.ar      1 RES1   0.0000
   104 H43     -6.1160  12.0092   1.8601   H         1 RES1   0.0000
   105 O2B    -14.6119   8.1345  15.4226   O.3       1 RES1   0.0000
   106 O3B    -11.4767  17.1099  17.3614   O.3       1 RES1   0.0000
   107 O4B     -1.8626   7.3713  24.8307   O.3       1 RES1   0.0000
   108 O5B      6.4076  10.1878  20.4188   O.3       1 RES1   0.0000
   109 N1B     -0.7053   9.1640  12.7623   N.2       1 RES1   0.0000
   110 N2B     -3.2909   9.8105  13.7790   N.2       1 RES1   0.0000
   111 N3B    -10.7179  12.1012  15.0649   N.pl3     1 RES1   0.0000
   112 N4B      0.8101   9.0778  20.4545   N.pl3     1 RES1   0.0000
   113 C1B     -5.5930  10.4521  13.1460   C.2       1 RES1   0.0000
   114 C2B     -0.8207   8.3797  18.7859   C.ar      1 RES1   0.0000
   115 H1B     -1.2274   7.7912  19.4111   H         1 RES1   0.0000
   116 C3B      0.8362  10.0441  18.2319   C.ar      1 RES1   0.0000
   117 H2B      1.5738  10.5902  18.4747   H         1 RES1   0.0000
   118 C4B     -4.7228  10.3468  15.4989   C.2       1 RES1   0.0000
   119 H3B     -5.5112  10.6013  15.9631   H         1 RES1   0.0000
   120 C5B     -3.5371  10.0623  16.0474   C.2       1 RES1   0.0000
   121 H4B     -3.3309  10.0822  16.9746   H         1 RES1   0.0000
   122 C6B     -2.6316   9.7243  14.9916   C.2       1 RES1   0.0000
   123 C7B     -1.2756   9.3987  15.1624   C.2       1 RES1   0.0000
   124 C8B     -0.7502   9.3182  16.5554   C.ar      1 RES1   0.0000
   125 C9B      0.2785   9.1660  19.1715   C.ar      1 RES1   0.0000
   126 C10B     0.0011   8.7379  21.5468   C.ar      1 RES1   0.0000
   127 C11B    -1.1235   9.4111  21.8139   C.ar      1 RES1   0.0000
   128 H5B     -1.3704  10.1686  21.2963   H         1 RES1   0.0000
   129 C12B    -1.2716   7.6547  23.5906   C.ar      1 RES1   0.0000
   130 C13B    -1.3068   8.4621  17.4983   C.ar      1 RES1   0.0000
   131 H6B     -2.0450   7.9187  17.2484   H         1 RES1   0.0000
   132 C14B     2.3206   9.4015  20.4474   C.ar      1 RES1   0.0000
   133 C15B     3.2393   8.5607  19.8512   C.ar      1 RES1   0.0000
   134 H7B      2.9342   7.7628  19.4358   H         1 RES1   0.0000
   135 C16B     4.5886   8.8461  19.8416   C.ar      1 RES1   0.0000
   136 H8B      5.1977   8.2595  19.4095   H         1 RES1   0.0000
   137 C17B     5.0457   9.9876  20.4617   C.ar      1 RES1   0.0000
   138 C18B     6.9106  11.3399  21.0770   C.3       1 RES1   0.0000
   139 H9B      7.3410  11.0745  21.9166   H         1 RES1   0.0000
   140 H10B     7.5675  11.7838  20.5000   H         1 RES1   0.0000
   141 H11B     6.1739  11.9564  21.2676   H         1 RES1   0.0000
   142 C19B     4.1580  10.8294  21.0698   C.ar      1 RES1   0.0000
   143 H12B     4.4675  11.6109  21.5125   H         1 RES1   0.0000
   144 C20B     2.7962  10.5374  21.0412   C.ar      1 RES1   0.0000
   145 H13B     2.1831  11.1414  21.4444   H         1 RES1   0.0000
   146 C22B     0.3224  10.1188  16.9608   C.ar      1 RES1   0.0000
   147 H17B     0.7058  10.7295  16.3423   H         1 RES1   0.0000
   148 C23B    -0.3921   9.1411  14.1055   C.2       1 RES1   0.0000
   149 C24B     0.9828   8.7455  14.2659   C.2       1 RES1   0.0000
   150 H18B     1.4440   8.6372  15.0889   H         1 RES1   0.0000
   151 C25B     1.4909   8.5597  13.0402   C.2       1 RES1   0.0000
   152 H19B     2.3841   8.3094  12.8347   H         1 RES1   0.0000
   153 C26B     0.4511   8.8040  12.0977   C.2       1 RES1   0.0000
   154 C27B    -6.9273  10.8831  13.6681   C.ar      1 RES1   0.0000
   155 C28B    -7.3558  12.1817  13.5052   C.ar      1 RES1   0.0000
   156 H20B    -6.7930  12.8100  13.0684   H         1 RES1   0.0000
   157 C29B    -8.6098  12.5858  13.9726   C.ar      1 RES1   0.0000
   158 H21B    -8.8918  13.4845  13.8493   H         1 RES1   0.0000
   159 C30B    -9.4432  11.6875  14.6141   C.ar      1 RES1   0.0000
   160 C31B    -9.0086  10.3851  14.7835   C.ar      1 RES1   0.0000
   161 H22B    -9.5683   9.7561  15.2239   H         1 RES1   0.0000
   162 C32B    -7.7676   9.9905  14.3160   C.ar      1 RES1   0.0000
   163 H23B    -7.4860   9.0923  14.4408   H         1 RES1   0.0000
   164 C33B   -10.8647  13.3750  15.6849   C.ar      1 RES1   0.0000
   165 C34B   -12.0532  14.0836  15.5037   C.ar      1 RES1   0.0000
   166 H24B   -12.7540  13.7128  14.9802   H         1 RES1   0.0000
   167 C35B   -12.2045  15.3162  16.0832   C.ar      1 RES1   0.0000
   168 H25B   -13.0202  15.7879  15.9589   H         1 RES1   0.0000
   169 C36B   -11.2105  15.8860  16.8368   C.ar      1 RES1   0.0000
   170 C37B   -10.0318  15.1687  17.0466   C.ar      1 RES1   0.0000
   171 H26B    -9.3413  15.5306  17.5895   H         1 RES1   0.0000
   172 C38B    -9.8831  13.9314  16.4624   C.ar      1 RES1   0.0000
   173 H27B    -9.0754  13.4503  16.6008   H         1 RES1   0.0000
   174 C39B   -10.4293  17.7937  18.0554   C.3       1 RES1   0.0000
   175 H28B    -9.6840  17.9605  17.4401   H         1 RES1   0.0000
   176 H29B   -10.7665  18.6474  18.3979   H         1 RES1   0.0000
   177 H30B   -10.1178  17.2416  18.8025   H         1 RES1   0.0000
   178 C40B   -11.7750  11.1378  15.1698   C.ar      1 RES1   0.0000
   179 C41B   -12.1103  10.3487  14.0847   C.ar      1 RES1   0.0000
   180 H31B   -11.6700  10.4862  13.2552   H         1 RES1   0.0000
   181 C42B   -13.0680   9.3709  14.1849   C.ar      1 RES1   0.0000
   182 H32B   -13.2770   8.8277  13.4341   H         1 RES1   0.0000
   183 C43B   -13.7296   9.1832  15.3892   C.ar      1 RES1   0.0000
   184 C44B   -15.1282   7.7879  16.6961   C.3       1 RES1   0.0000
   185 H33B   -15.6980   8.5129  17.0263   H         1 RES1   0.0000
   186 H34B   -15.6563   6.9653  16.6210   H         1 RES1   0.0000
   187 H35B   -14.3869   7.6437  17.3207   H         1 RES1   0.0000
   188 C45B   -13.4553  10.0078  16.4552   C.ar      1 RES1   0.0000
   189 H36B   -13.9385   9.9100  17.2677   H         1 RES1   0.0000
   190 C46B   -12.4780  10.9798  16.3503   C.ar      1 RES1   0.0000
   191 H37B   -12.2870  11.5416  17.0911   H         1 RES1   0.0000
   192 C47B    -4.5810  10.1935  14.0704   C.2       1 RES1   0.0000
   193 C48B    -3.2784   7.7026  24.8736   C.3       1 RES1   0.0000
   194 H38B    -3.6424   7.4692  25.7545   H         1 RES1   0.0000
   195 H39B    -3.3952   8.6625  24.7172   H         1 RES1   0.0000
   196 H40B    -3.7536   7.1977  24.1813   H         1 RES1   0.0000
   197 C49B    -2.0382   8.9256  23.0111   C.ar      1 RES1   0.0000
   198 H41B    -2.8558   9.2989  23.3148   H         1 RES1   0.0000
   199 C50B     0.0435   7.3377  23.4165   C.ar      1 RES1   0.0000
   200 H42B     0.5833   6.9016  24.0647   H         1 RES1   0.0000
   201 C51B     0.4149   7.6777  22.3552   C.ar      1 RES1   0.0000
   202 H43B     1.1108   7.1444  21.9881   H         1 RES1   0.0000
   203 O1B     -3.0424   7.5197  11.9193   O.3       1 RES1   0.0000
   204 C21B    -2.3277   6.4749  11.2945   C.3       1 RES1   0.0000
   205 H14B    -1.6686   6.1089  11.9207   H         1 RES1   0.0000
   206 H15B    -2.9507   5.7676  11.0257   H         1 RES1   0.0000
   207 H16B    -1.8668   6.8221  10.5019   H         1 RES1   0.0000
@<TRIPOS>BOND
     1     1     2    1
     2     2    44    1
     3     3    85    1
     4     4    71    1
     5     5    27    1
     6     6    35    1
     7     7     1    1
     8     8     1    1
     9     9    61    1
    10    10    23    1
    11    11    56    1
    12    12    13    1
    13    14    15    1
    14    16    17    1
    15    18    16    2
    16    19    18    1
    17    20     8    1
    18    21    20    2
    19    22    21    1
    20    23    12   ar
    21    24    10    1
    22    25    24   ar
    23    26    25    1
    24    27    99   ar
    25    28    12   ar
    26    29    28    1
    27    30    10    1
    28    31    30   ar
    29    32    31    1
    30    33    31   ar
    31    34    33    1
    32    35    33   ar
    33    36     6    1
    34    37    36    1
    35    38    36    1
    36    39    36    1
    37    40    35   ar
    38    41    40    1
    39    42    30   ar
    40    43    42    1
    41    44    45    1
    42    46    44    1
    43    47    44    1
    44    48    14   ar
    45    49    48    1
    46    50     7    2
    47    51    50    1
    48    52    51    1
    49    53    51    2
    50    54    53    1
    51    55     7    1
    52    56    57   ar
    53    57    58    1
    54    59    57   ar
    55    60    59    1
    56    61    59   ar
    57    62    61   ar
    58    63    62    1
    59    64    56   ar
    60    65    64    1
    61    66     9    1
    62    67    66   ar
    63    68    67    1
    64    69    67   ar
    65    70    69    1
    66    71    69   ar
    67    72    71   ar
    68    73    72    1
    69    74    66   ar
    70    75    74    1
    71    76     4    1
    72    77    76    1
    73    78    76    1
    74    79    76    1
    75    80     9    1
    76    81    80   ar
    77    82    81    1
    78    83    81   ar
    79    84    83    1
    80    85    83   ar
    81    86     3    1
    82    87    86    1
    83    88    86    1
    84    89    86    1
    85    90    85   ar
    86    91    90    1
    87    92    80   ar
    88    93    92    1
    89    94     8    1
    90    95     5    1
    91    96    95    1
    92    97    95    1
    93    98    95    1
    94    99    25   ar
    95   100    99    1
    96   101    27   ar
    97   102   101    1
    98   103    24   ar
    99   104   103    1
   100   105   183    1
   101   106   169    1
   102   107   129    1
   103   108   137    1
   104   109     1    1
   105   110     1    1
   106   111   159    1
   107   112   125    1
   108   113    55    2
   109   114   115    1
   110   116   117    1
   111   118   119    1
   112   120   118    1
   113   121   120    1
   114   122   110    1
   115   123   122    1
   116   124   123    1
   117   125   114   ar
   118   126   112    1
   119   127   126   ar
   120   128   127    1
   121   129   197   ar
   122   130   114   ar
   123   131   130    1
   124   132   112    1
   125   133   132   ar
   126   134   133    1
   127   135   133   ar
   128   136   135    1
   129   137   135   ar
   130   138   108    1
   131   139   138    1
   132   140   138    1
   133   141   138    1
   134   142   137   ar
   135   143   142    1
   136   144   132   ar
   137   145   144    1
   138   146   116   ar
   139   147   146    1
   140   148   109    1
   141   149   148    1
   142   150   149    1
   143   151   149    2
   144   152   151    1
   145   153    11    1
   146   154   113    1
   147   155   154   ar
   148   156   155    1
   149   157   155   ar
   150   158   157    1
   151   159   157   ar
   152   160   159   ar
   153   161   160    1
   154   162   154   ar
   155   163   162    1
   156   164   111    1
   157   165   164   ar
   158   166   165    1
   159   167   165   ar
   160   168   167    1
   161   169   167   ar
   162   170   169   ar
   163   171   170    1
   164   172   164   ar
   165   173   172    1
   166   174   106    1
   167   175   174    1
   168   176   174    1
   169   177   174    1
   170   178   111    1
   171   179   178   ar
   172   180   179    1
   173   181   179   ar
   174   182   181    1
   175   183   181   ar
   176   184   105    1
   177   185   184    1
   178   186   184    1
   179   187   184    1
   180   188   183   ar
   181   189   188    1
   182   190   178   ar
   183   191   190    1
   184   192   110    1
   185   193   107    1
   186   194   193    1
   187   195   193    1
   188   196   193    1
   189   197   127   ar
   190   198   197    1
   191   199   129   ar
   192   200   199    1
   193   201   126   ar
   194   202   201    1
   195   203     1    1
   196   204   203    1
   197   205   204    1
   198   206   204    1
   199   207   204    1
   200    11    94    2
   201    14    23   ar
   202    16    94    1
   203    18    20    1
   204    21    50    1
   205    22    28   ar
   206    22    48   ar
   207    40    42   ar
   208    53    55    1
   209    62    64   ar
   210    72    74   ar
   211    90    92   ar
   212   101   103   ar
   213   109   153    2
   214   113   192    1
   215   116   125   ar
   216   118   192    2
   217   120   122    2
   218   123   148    2
   219   124   130   ar
   220   124   146   ar
   221   142   144   ar
   222   151   153    1
   223   160   162   ar
   224   170   172   ar
   225   188   190   ar
   226   199   201   ar
@<TRIPOS>SUBSTRUCTURE
     1 RES1        1 GROUP             0 ****  ****    0  
@<TRIPOS>CRYSIN
   18.5836    9.5768   24.3677   90.0000  101.8530   90.0000   231     1
