@<TRIPOS>MOLECULE
ETUHIM
    83    86     5     0     0
SMALL
USER_CHARGES
****
Generated from the CSD

@<TRIPOS>ATOM
     1 Fe1      3.9718   4.3746  14.7521   Fe        1 RES1   2.0000
     2 N1       3.3652   6.4842  14.7726   N.3       1 RES1   0.0000
     3 H1       4.1692   7.0151  14.9541   H         1 RES1   0.0000
     4 N2       4.0421   4.3897  16.9873   N.3       1 RES1   0.0000
     5 N3       6.0893   4.8030  14.9780   N.3       1 RES1   0.0000
     6 H2       6.1831   5.7787  14.9444   H         1 RES1   0.0000
     7 N4       4.1460   4.7728  12.5665   N.3       1 RES1   0.0000
     8 N5       4.3773   2.2638  15.2042   N.ar      1 RES1   0.0000
     9 N6       1.9966   3.8415  14.0607   N.ar      1 RES1   0.0000
    10 C1       2.3667   6.8405  15.7966   C.3       1 RES1   0.0000
    11 H3       1.5808   6.2832  15.6822   H         1 RES1   0.0000
    12 H4       2.0983   7.7636  15.6725   H         1 RES1   0.0000
    13 C2       2.9033   6.6633  17.2054   C.3       1 RES1   0.0000
    14 H5       3.7728   7.0913  17.2536   H         1 RES1   0.0000
    15 H6       2.3143   7.1357  17.8138   H         1 RES1   0.0000
    16 C3       3.0487   5.2439  17.6955   C.3       1 RES1   0.0000
    17 H7       3.2897   5.2728  18.6356   H         1 RES1   0.0000
    18 H8       2.1817   4.8126  17.6342   H         1 RES1   0.0000
    19 C4       5.4147   4.8701  17.3116   C.3       1 RES1   0.0000
    20 H9       5.6488   4.5700  18.2042   H         1 RES1   0.0000
    21 H10      5.4141   5.8397  17.3180   H         1 RES1   0.0000
    22 C5       6.4669   4.3887  16.3426   C.3       1 RES1   0.0000
    23 H11      7.3284   4.7682  16.5762   H         1 RES1   0.0000
    24 H12      6.5373   3.4223  16.3869   H         1 RES1   0.0000
    25 C6       6.9927   4.2566  13.9471   C.3       1 RES1   0.0000
    26 H13      6.8886   3.2934  13.9079   H         1 RES1   0.0000
    27 H14      7.9124   4.4480  14.1909   H         1 RES1   0.0000
    28 C7       6.7043   4.8486  12.5817   C.3       1 RES1   0.0000
    29 H15      6.6654   5.8133  12.6723   H         1 RES1   0.0000
    30 H16      7.4497   4.6421  11.9969   H         1 RES1   0.0000
    31 C8       5.4358   4.3870  11.9091   C.3       1 RES1   0.0000
    32 H17      5.4293   4.7363  11.0053   H         1 RES1   0.0000
    33 H18      5.4637   3.4195  11.8446   H         1 RES1   0.0000
    34 C9       3.9487   6.2482  12.4265   C.3       1 RES1   0.0000
    35 H19      3.6579   6.4440  11.5226   H         1 RES1   0.0000
    36 H20      4.7976   6.6949  12.5688   H         1 RES1   0.0000
    37 C10      2.9379   6.7980  13.3972   C.3       1 RES1   0.0000
    38 H21      2.8635   7.7594  13.2872   H         1 RES1   0.0000
    39 H22      2.0676   6.4038  13.2247   H         1 RES1   0.0000
    40 C11      3.8857   2.9933  17.4521   C.3       1 RES1   0.0000
    41 H23      2.9409   2.8041  17.5679   H         1 RES1   0.0000
    42 H24      4.3135   2.8997  18.3174   H         1 RES1   0.0000
    43 C12      4.4730   1.9809  16.5066   C.ar      1 RES1   0.0000
    44 C13      5.0459   0.8192  16.9618   C.ar      1 RES1   0.0000
    45 H25      5.1303   0.6612  17.8743   H         1 RES1   0.0000
    46 C14      5.4920  -0.1026  16.0531   C.ar      1 RES1   0.0000
    47 H26      5.8792  -0.8968  16.3420   H         1 RES1   0.0000
    48 C15      5.3622   0.1539  14.7164   C.ar      1 RES1   0.0000
    49 H27      5.6412  -0.4671  14.0836   H         1 RES1   0.0000
    50 C16      4.8109   1.3463  14.3332   C.ar      1 RES1   0.0000
    51 H28      4.7339   1.5275  13.4238   H         1 RES1   0.0000
    52 C17      3.0458   4.0599  11.8823   C.3       1 RES1   0.0000
    53 H29      3.3754   3.1991  11.5792   H         1 RES1   0.0000
    54 H30      2.7885   4.5686  11.0970   H         1 RES1   0.0000
    55 C18      1.8261   3.8341  12.7308   C.ar      1 RES1   0.0000
    56 C19      0.6054   3.5570  12.1648   C.ar      1 RES1   0.0000
    57 H31      0.5113   3.5526  11.2395   H         1 RES1   0.0000
    58 C20     -0.4721   3.2879  12.9641   C.ar      1 RES1   0.0000
    59 H32     -1.3027   3.1007  12.5883   H         1 RES1   0.0000
    60 C21     -0.3161   3.2967  14.3225   C.ar      1 RES1   0.0000
    61 H33     -1.0319   3.1132  14.8878   H         1 RES1   0.0000
    62 C22      0.9250   3.5825  14.8292   C.ar      1 RES1   0.0000
    63 H34      1.0316   3.5983  15.7525   H         1 RES1   0.0000
    64 N7       4.0699   0.8233  11.1189   N.1       2 RES2   0.0000
    65 N8       7.6231  -1.3820   9.9932   N.1       2 RES2   0.0000
    66 N9       3.8924  -3.5623  11.2752   N.1       2 RES2   0.0000
    67 C23      5.2253  -1.4263  10.8444   C.2       2 RES2  -1.0000
    68 C24      4.5844  -0.1941  10.9971   C.1       2 RES2   0.0000
    69 C25      6.5463  -1.4332  10.3883   C.1       2 RES2   0.0000
    70 C26      4.5149  -2.6142  11.0730   C.1       2 RES2   0.0000
    71 N10      6.8195   8.8891  12.9372   N.1       3 RES3   0.0000
    72 N11      9.1336   9.3091   9.2198   N.1       3 RES3   0.0000
    73 N12      5.3314   7.0955   9.1837   N.1       3 RES3   0.0000
    74 C27      7.0803   8.4425  10.4517   C.2       3 RES3  -1.0000
    75 C28      6.9303   8.6909  11.8187   C.1       3 RES3   0.0000
    76 C29      8.2178   8.9099   9.7707   C.1       3 RES3   0.0000
    77 C30      6.1004   7.7054   9.7601   C.1       3 RES3   0.0000
    78 O1       6.3129   7.6838  15.4226   O.3       4 RES4   0.0000
    79 H35      6.7169   7.9840  16.0922   H         4 RES4   0.0000
    80 H36      6.6253   8.1087  14.7648   H         4 RES4   0.0000
    81 O2       7.2822   8.5578  17.8901   O.3       5 RES5   0.0000
    82 H37      6.9373   9.2592  18.1925   H         5 RES5   0.0000
    83 H38      6.9927   7.8592  18.2510   H         5 RES5   0.0000
@<TRIPOS>BOND
     1     1     2    1
     2     2     3    1
     3     4     1    1
     4     5     1    1
     5     6     5    1
     6     7     1    1
     7     8     1    1
     8     9     1    1
     9    10     2    1
    10    11    10    1
    11    12    10    1
    12    13    10    1
    13    14    13    1
    14    15    13    1
    15    16     4    1
    16    17    16    1
    17    18    16    1
    18    19     4    1
    19    20    19    1
    20    21    19    1
    21    22     5    1
    22    23    22    1
    23    24    22    1
    24    25     5    1
    25    26    25    1
    26    27    25    1
    27    28    25    1
    28    29    28    1
    29    30    28    1
    30    31     7    1
    31    32    31    1
    32    33    31    1
    33    34     7    1
    34    35    34    1
    35    36    34    1
    36    37     2    1
    37    38    37    1
    38    39    37    1
    39    40     4    1
    40    41    40    1
    41    42    40    1
    42    43     8   ar
    43    44    43   ar
    44    45    44    1
    45    46    44   ar
    46    47    46    1
    47    48    46   ar
    48    49    48    1
    49    50     8   ar
    50    51    50    1
    51    52     7    1
    52    53    52    1
    53    54    52    1
    54    55     9   ar
    55    56    55   ar
    56    57    56    1
    57    58    56   ar
    58    59    58    1
    59    60    58   ar
    60    61    60    1
    61    62     9   ar
    62    63    62    1
    63    13    16    1
    64    19    22    1
    65    28    31    1
    66    34    37    1
    67    40    43    1
    68    48    50   ar
    69    52    55    1
    70    60    62   ar
    71    64    68    3
    72    65    69    3
    73    66    70    3
    74    67    68    1
    75    69    67    1
    76    70    67    1
    77    71    75    3
    78    72    76    3
    79    73    77    3
    80    74    75    1
    81    76    74    1
    82    77    74    1
    83    78    79    1
    84    80    78    1
    85    81    82    1
    86    83    81    1
@<TRIPOS>SUBSTRUCTURE
     1 RES1        1 GROUP             0 ****  ****    0  
     2 RES2       64 GROUP             0 ****  ****    0  
     3 RES3       71 GROUP             0 ****  ****    0  
     4 RES4       78 GROUP             0 ****  ****    0  
     5 RES5       81 GROUP             0 ****  ****    0  
@<TRIPOS>CRYSIN
   11.9999   13.8611   20.2894   90.0000  105.8310   90.0000    14     1
