@<TRIPOS>MOLECULE
ETUHIM03
    83    86     5     0     0
SMALL
USER_CHARGES
****
Generated from the CSD

@<TRIPOS>ATOM
     1 Fe1      3.2722   4.7984  14.7982   Fe        1 RES1   2.0000
     2 N1       2.7296   6.7835  14.7047   N.3       1 RES1   0.0000
     3 H1       3.5383   7.3217  14.9448   H         1 RES1   0.0000
     4 N2       3.0408   4.8127  16.8779   N.3       1 RES1   0.0000
     5 N3       5.2389   5.1955  15.2126   N.3       1 RES1   0.0000
     6 H2       5.3218   6.1927  15.1929   H         1 RES1   0.0000
     7 N4       3.6386   5.0304  12.7323   N.3       1 RES1   0.0000
     8 N5       3.6477   2.8543  15.1043   N.ar      1 RES1   0.0000
     9 N6       1.4560   4.2621  14.1653   N.ar      1 RES1   0.0000
    10 C1       1.6218   7.2398  15.5944   C.3       1 RES1   0.0000
    11 H3       0.8080   6.7114  15.3976   H         1 RES1   0.0000
    12 H4       1.4216   8.1899  15.4055   H         1 RES1   0.0000
    13 C2       1.9796   7.0845  17.0669   C.3       1 RES1   0.0000
    14 H5       2.8709   7.4839  17.2244   H         1 RES1   0.0000
    15 H6       1.3237   7.5907  17.6102   H         1 RES1   0.0000
    16 C3       1.9984   5.6643  17.5354   C.3       1 RES1   0.0000
    17 H7       1.1089   5.2634  17.3681   H         1 RES1   0.0000
    18 H8       2.1525   5.6546  18.5137   H         1 RES1   0.0000
    19 C4       4.3666   5.2704  17.4468   C.3       1 RES1   0.0000
    20 H9       4.3772   6.2593  17.5019   H         1 RES1   0.0000
    21 H10      4.4712   4.9125  18.3641   H         1 RES1   0.0000
    22 C5       5.5168   4.8057  16.5964   C.3       1 RES1   0.0000
    23 H11      6.3603   5.2232  16.9055   H         1 RES1   0.0000
    24 H12      5.6134   3.8224  16.6594   H         1 RES1   0.0000
    25 C6       6.2867   4.6962  14.3149   C.3       1 RES1   0.0000
    26 H13      6.2562   3.7073  14.3110   H         1 RES1   0.0000
    27 H14      7.1686   4.9680  14.6732   H         1 RES1   0.0000
    28 C7       6.1708   5.1802  12.9232   C.3       1 RES1   0.0000
    29 H15      6.9953   4.9320  12.4330   H         1 RES1   0.0000
    30 H16      6.1202   6.1691  12.9370   H         1 RES1   0.0000
    31 C8       4.9795   4.6504  12.1555   C.3       1 RES1   0.0000
    32 H17      5.0285   4.9860  11.2244   H         1 RES1   0.0000
    33 H18      5.0394   3.6629  12.1220   H         1 RES1   0.0000
    34 C9       3.4411   6.4812  12.4291   C.3       1 RES1   0.0000
    35 H19      3.1784   6.5824  11.4803   H         1 RES1   0.0000
    36 H20      4.2976   6.9597  12.5590   H         1 RES1   0.0000
    37 C10      2.3925   7.1053  13.2992   C.3       1 RES1   0.0000
    38 H21      2.3789   8.0872  13.1673   H         1 RES1   0.0000
    39 H22      1.4998   6.7447  13.0708   H         1 RES1   0.0000
    40 C11      2.7970   3.4216  17.2933   C.3       1 RES1   0.0000
    41 H23      1.8232   3.2468  17.2933   H         1 RES1   0.0000
    42 H24      3.1308   3.2940  18.2165   H         1 RES1   0.0000
    43 C12      3.4810   2.4285  16.3740   C.ar      1 RES1   0.0000
    44 C13      3.7790   1.1595  16.7913   C.ar      1 RES1   0.0000
    45 H25      3.6234   0.9071  17.6929   H         1 RES1   0.0000
    46 C14      4.3029   0.2538  15.9114   C.ar      1 RES1   0.0000
    47 H26      4.5415  -0.6200  16.1988   H         1 RES1   0.0000
    48 C15      4.4717   0.6366  14.6082   C.ar      1 RES1   0.0000
    49 H27      4.8051   0.0236  13.9665   H         1 RES1   0.0000
    50 C16      4.1532   1.9251  14.2441   C.ar      1 RES1   0.0000
    51 H28      4.2925   2.1817  13.3405   H         1 RES1   0.0000
    52 C17      2.6136   4.2399  12.0256   C.3       1 RES1   0.0000
    53 H29      2.9779   3.3411  11.8267   H         1 RES1   0.0000
    54 H30      2.4012   4.6781  11.1653   H         1 RES1   0.0000
    55 C18      1.3416   4.0901  12.8287   C.ar      1 RES1   0.0000
    56 C19      0.1679   3.7004  12.2362   C.ar      1 RES1   0.0000
    57 H31      0.1366   3.5852  11.2933   H         1 RES1   0.0000
    58 C20     -0.9571   3.4771  12.9763   C.ar      1 RES1   0.0000
    59 H32     -1.7744   3.2219  12.5649   H         1 RES1   0.0000
    60 C21     -0.8647   3.6338  14.3445   C.ar      1 RES1   0.0000
    61 H33     -1.6125   3.4590  14.9035   H         1 RES1   0.0000
    62 C22      0.3257   4.0443  14.8819   C.ar      1 RES1   0.0000
    63 H34      0.3621   4.1886  15.8189   H         1 RES1   0.0000
    64 N7       3.6007   1.0014  11.1791   N.1       2 RES2   0.0000
    65 N8       7.0082  -1.3384   9.7657   N.1       2 RES2   0.0000
    66 N9       3.3796  -3.3814  11.4586   N.1       2 RES2   0.0000
    67 C23      4.7008  -1.2718  10.8681   C.2       2 RES2  -1.0000
    68 C24      4.0872  -0.0180  11.0334   C.1       2 RES2   0.0000
    69 C25      5.9712  -1.3342  10.2697   C.1       2 RES2   0.0000
    70 C26      3.9834  -2.4299  11.1791   C.1       2 RES2   0.0000
    71 N10      6.1707   9.0553  13.1004   N.1       3 RES3   0.0000
    72 N11      8.7451   9.3729   9.5472   N.1       3 RES3   0.0000
    73 N12      4.8613   7.2579   9.2913   N.1       3 RES3   0.0000
    74 C27      6.5784   8.5671  10.6378   C.2       3 RES3  -1.0000
    75 C28      6.3519   8.8362  11.9783   C.1       3 RES3   0.0000
    76 C29      7.7809   9.0082  10.0275   C.1       3 RES3   0.0000
    77 C30      5.6391   7.8556   9.9015   C.1       3 RES3   0.0000
    78 O1       5.5387   8.0332  15.6200   O.3       4 RES4   0.0000
    79 H35      5.8674   8.4187  14.9409   H         4 RES4   0.0000
    80 H36      5.8041   8.4326  16.3189   H         4 RES4   0.0000
    81 O2       6.4788   8.8570  18.0964   O.3       5 RES5   0.0000
    82 H37      6.6563   9.4451  18.6811   H         5 RES5   0.0000
    83 H38      5.8398   8.3771  18.3464   H         5 RES5   0.0000
@<TRIPOS>BOND
     1     1     2    1
     2     2     3    1
     3     4     1    1
     4     5     1    1
     5     6     5    1
     6     7     1    1
     7     8     1    1
     8     9     1    1
     9    10     2    1
    10    11    10    1
    11    12    10    1
    12    13    10    1
    13    14    13    1
    14    15    13    1
    15    16     4    1
    16    17    16    1
    17    18    16    1
    18    19     4    1
    19    20    19    1
    20    21    19    1
    21    22     5    1
    22    23    22    1
    23    24    22    1
    24    25     5    1
    25    26    25    1
    26    27    25    1
    27    28    25    1
    28    29    28    1
    29    30    28    1
    30    31     7    1
    31    32    31    1
    32    33    31    1
    33    34     7    1
    34    35    34    1
    35    36    34    1
    36    37     2    1
    37    38    37    1
    38    39    37    1
    39    40     4    1
    40    41    40    1
    41    42    40    1
    42    43     8   ar
    43    44    43   ar
    44    45    44    1
    45    46    44   ar
    46    47    46    1
    47    48    46   ar
    48    49    48    1
    49    50     8   ar
    50    51    50    1
    51    52     7    1
    52    53    52    1
    53    54    52    1
    54    55     9   ar
    55    56    55   ar
    56    57    56    1
    57    58    56   ar
    58    59    58    1
    59    60    58   ar
    60    61    60    1
    61    62     9   ar
    62    63    62    1
    63    13    16    1
    64    19    22    1
    65    28    31    1
    66    34    37    1
    67    40    43    1
    68    48    50   ar
    69    52    55    1
    70    60    62   ar
    71    64    68    3
    72    65    69    3
    73    66    70    3
    74    67    68    1
    75    69    67    1
    76    70    67    1
    77    71    75    3
    78    72    76    3
    79    73    77    3
    80    74    75    1
    81    76    74    1
    82    77    74    1
    83    78    79    1
    84    80    78    1
    85    81    82    1
    86    83    81    1
@<TRIPOS>SUBSTRUCTURE
     1 RES1        1 GROUP             0 ****  ****    0  
     2 RES2       64 GROUP             0 ****  ****    0  
     3 RES3       71 GROUP             0 ****  ****    0  
     4 RES4       78 GROUP             0 ****  ****    0  
     5 RES5       81 GROUP             0 ****  ****    0  
@<TRIPOS>CRYSIN
   11.3229   13.8694   20.5558   90.0000  106.7370   90.0000    14     1
