@<TRIPOS>MOLECULE
ETUHIM02
    83    86     5     0     0
SMALL
USER_CHARGES
****
Generated from the CSD

@<TRIPOS>ATOM
     1 Fe1      3.2592   4.8171  14.8142   Fe        1 RES1   2.0000
     2 N1       2.7216   6.8085  14.7267   N.3       1 RES1   0.0000
     3 H1       3.5327   7.3450  14.9613   H         1 RES1   0.0000
     4 N2       3.0222   4.8267  16.8933   N.3       1 RES1   0.0000
     5 N3       5.2293   5.2325  15.2432   N.3       1 RES1   0.0000
     6 H2       5.3224   6.2276  15.2235   H         1 RES1   0.0000
     7 N4       3.6291   5.0380  12.7651   N.3       1 RES1   0.0000
     8 N5       3.6426   2.8685  15.1150   N.ar      1 RES1   0.0000
     9 N6       1.4355   4.2889  14.1786   N.ar      1 RES1   0.0000
    10 C1       1.6122   7.2630  15.6217   C.3       1 RES1   0.0000
    11 H3       0.7984   6.7363  15.4187   H         1 RES1   0.0000
    12 H4       1.4140   8.2136  15.4305   H         1 RES1   0.0000
    13 C2       1.9449   7.1115  17.0806   C.3       1 RES1   0.0000
    14 H5       1.2753   7.6104  17.6129   H         1 RES1   0.0000
    15 H6       2.8288   7.5243  17.2501   H         1 RES1   0.0000
    16 C3       1.9794   5.6870  17.5636   C.3       1 RES1   0.0000
    17 H7       1.0885   5.2798  17.4138   H         1 RES1   0.0000
    18 H8       2.1474   5.6856  18.5394   H         1 RES1   0.0000
    19 C4       4.3406   5.2881  17.4808   C.3       1 RES1   0.0000
    20 H9       4.3528   6.2762  17.5340   H         1 RES1   0.0000
    21 H10      4.4392   4.9295  18.3975   H         1 RES1   0.0000
    22 C5       5.4833   4.8142  16.6291   C.3       1 RES1   0.0000
    23 H11      6.3333   5.2075  16.9524   H         1 RES1   0.0000
    24 H12      5.5567   3.8288  16.6784   H         1 RES1   0.0000
    25 C6       6.2742   4.6961  14.3482   C.3       1 RES1   0.0000
    26 H13      6.2137   3.7079  14.3422   H         1 RES1   0.0000
    27 H14      7.1621   4.9407  14.7109   H         1 RES1   0.0000
    28 C7       6.1728   5.1936  12.9445   C.3       1 RES1   0.0000
    29 H15      6.9968   4.9365  12.4595   H         1 RES1   0.0000
    30 H16      6.1340   6.1831  12.9642   H         1 RES1   0.0000
    31 C8       4.9726   4.6794  12.1638   C.3       1 RES1   0.0000
    32 H17      5.0144   5.0421  11.2431   H         1 RES1   0.0000
    33 H18      5.0363   3.6926  12.0987   H         1 RES1   0.0000
    34 C9       3.4383   6.5028  12.4477   C.3       1 RES1   0.0000
    35 H19      4.2944   6.9823  12.5817   H         1 RES1   0.0000
    36 H20      3.1806   6.6015  11.4955   H         1 RES1   0.0000
    37 C10      2.3786   7.1240  13.3171   C.3       1 RES1   0.0000
    38 H21      2.3550   8.1038  13.1811   H         1 RES1   0.0000
    39 H22      1.4893   6.7529  13.0904   H         1 RES1   0.0000
    40 C11      2.7871   3.4272  17.3172   C.3       1 RES1   0.0000
    41 H23      1.8128   3.2521  17.3388   H         1 RES1   0.0000
    42 H24      3.1381   3.3007  18.2339   H         1 RES1   0.0000
    43 C12      3.4475   2.4405  16.3945   C.ar      1 RES1   0.0000
    44 C13      3.7541   1.1674  16.8085   C.ar      1 RES1   0.0000
    45 H25      3.5948   0.9145  17.7095   H         1 RES1   0.0000
    46 C14      4.2916   0.2502  15.9293   C.ar      1 RES1   0.0000
    47 H26      4.5343  -0.6226  16.2131   H         1 RES1   0.0000
    48 C15      4.4635   0.6588  14.6104   C.ar      1 RES1   0.0000
    49 H27      4.8019   0.0500  13.9637   H         1 RES1   0.0000
    50 C16      4.1415   1.9513  14.2397   C.ar      1 RES1   0.0000
    51 H28      4.2742   2.2111  13.3368   H         1 RES1   0.0000
    52 C17      2.5980   4.2541  12.0396   C.3       1 RES1   0.0000
    53 H29      2.9586   3.3563  11.8306   H         1 RES1   0.0000
    54 H30      2.3910   4.7044  11.1820   H         1 RES1   0.0000
    55 C18      1.3213   4.1012  12.8400   C.ar      1 RES1   0.0000
    56 C19      0.1572   3.7107  12.2289   C.ar      1 RES1   0.0000
    57 H31      0.1246   3.6051  11.2845   H         1 RES1   0.0000
    58 C20     -0.9786   3.4717  12.9977   C.ar      1 RES1   0.0000
    59 H32     -1.7964   3.2062  12.5936   H         1 RES1   0.0000
    60 C21     -0.8795   3.6329  14.3639   C.ar      1 RES1   0.0000
    61 H33     -1.6254   3.4508  14.9238   H         1 RES1   0.0000
    62 C22      0.3099   4.0582  14.9021   C.ar      1 RES1   0.0000
    63 H34      0.3471   4.1985  15.8425   H         1 RES1   0.0000
    64 N7       3.5936   1.0187  11.1801   N.1       2 RES2   0.0000
    65 N8       7.0125  -1.3550   9.7646   N.1       2 RES2   0.0000
    66 N9       3.3704  -3.3827  11.4817   N.1       2 RES2   0.0000
    67 C23      4.6951  -1.2647  10.8863   C.2       2 RES2  -1.0000
    68 C24      4.0777  -0.0069  11.0420   C.1       2 RES2   0.0000
    69 C25      5.9686  -1.3328  10.2692   C.1       2 RES2   0.0000
    70 C26      3.9805  -2.4571  11.1958   C.1       2 RES2   0.0000
    71 N10      6.1482   9.0836  13.1239   N.1       3 RES3   0.0000
    72 N11      8.7607   9.4005   9.5635   N.1       3 RES3   0.0000
    73 N12      4.8531   7.2713   9.3092   N.1       3 RES3   0.0000
    74 C27      6.5800   8.5944  10.6596   C.2       3 RES3  -1.0000
    75 C28      6.3400   8.8682  11.9982   C.1       3 RES3   0.0000
    76 C29      7.7896   9.0350  10.0445   C.1       3 RES3   0.0000
    77 C30      5.6353   7.8703   9.9065   C.1       3 RES3   0.0000
    78 O1       5.5309   8.0552  15.6513   O.3       4 RES4   0.0000
    79 H35      5.8206   8.4499  16.3433   H         4 RES4   0.0000
    80 H36      5.8102   8.4360  14.9494   H         4 RES4   0.0000
    81 O2       6.4702   8.8724  18.1254   O.3       5 RES5   0.0000
    82 H37      5.8301   8.4638  18.4921   H         5 RES5   0.0000
    83 H38      6.5211   9.6590  18.4527   H         5 RES5   0.0000
@<TRIPOS>BOND
     1     1     2    1
     2     2     3    1
     3     4     1    1
     4     5     1    1
     5     6     5    1
     6     7     1    1
     7     8     1    1
     8     9     1    1
     9    10     2    1
    10    11    10    1
    11    12    10    1
    12    13    10    1
    13    14    13    1
    14    15    13    1
    15    16     4    1
    16    17    16    1
    17    18    16    1
    18    19     4    1
    19    20    19    1
    20    21    19    1
    21    22     5    1
    22    23    22    1
    23    24    22    1
    24    25     5    1
    25    26    25    1
    26    27    25    1
    27    28    25    1
    28    29    28    1
    29    30    28    1
    30    31     7    1
    31    32    31    1
    32    33    31    1
    33    34     7    1
    34    35    34    1
    35    36    34    1
    36    37     2    1
    37    38    37    1
    38    39    37    1
    39    40     4    1
    40    41    40    1
    41    42    40    1
    42    43     8   ar
    43    44    43   ar
    44    45    44    1
    45    46    44   ar
    46    47    46    1
    47    48    46   ar
    48    49    48    1
    49    50     8   ar
    50    51    50    1
    51    52     7    1
    52    53    52    1
    53    54    52    1
    54    55     9   ar
    55    56    55   ar
    56    57    56    1
    57    58    56   ar
    58    59    58    1
    59    60    58   ar
    60    61    60    1
    61    62     9   ar
    62    63    62    1
    63    13    16    1
    64    19    22    1
    65    28    31    1
    66    34    37    1
    67    40    43    1
    68    48    50   ar
    69    52    55    1
    70    60    62   ar
    71    64    68    3
    72    65    69    3
    73    66    70    3
    74    67    68    1
    75    69    67    1
    76    70    67    1
    77    71    75    3
    78    72    76    3
    79    73    77    3
    80    74    75    1
    81    76    74    1
    82    77    74    1
    83    78    79    1
    84    80    78    1
    85    81    82    1
    86    83    81    1
@<TRIPOS>SUBSTRUCTURE
     1 RES1        1 GROUP             0 ****  ****    0  
     2 RES2       64 GROUP             0 ****  ****    0  
     3 RES3       71 GROUP             0 ****  ****    0  
     4 RES4       78 GROUP             0 ****  ****    0  
     5 RES5       81 GROUP             0 ****  ****    0  
@<TRIPOS>CRYSIN
   11.3188   13.8978   20.5887   90.0000  106.7570   90.0000    14     1
