@<TRIPOS>MOLECULE
ETUHIM01
    83    86     5     0     0
SMALL
USER_CHARGES
****
Generated from the CSD

@<TRIPOS>ATOM
     1 Fe1      3.8468   4.2994  14.6488   Fe        1 RES1   2.0000
     2 N1       3.2523   6.4105  14.6682   N.3       1 RES1   0.0000
     3 H1       4.0704   6.9507  14.8643   H         1 RES1   0.0000
     4 N2       3.9041   4.3076  16.8802   N.3       1 RES1   0.0000
     5 N3       5.9604   4.7141  14.8724   N.3       1 RES1   0.0000
     6 H2       6.0610   5.7087  14.8352   H         1 RES1   0.0000
     7 N4       4.0342   4.7037  12.4628   N.3       1 RES1   0.0000
     8 N5       4.2501   2.1898  15.0960   N.ar      1 RES1   0.0000
     9 N6       1.8717   3.7890  13.9672   N.ar      1 RES1   0.0000
    10 C1       2.2341   6.7640  15.6807   C.3       1 RES1   0.0000
    11 H3       1.4365   6.1908  15.5560   H         1 RES1   0.0000
    12 H4       1.9564   7.7052  15.5502   H         1 RES1   0.0000
    13 C2       2.7626   6.5871  17.0970   C.3       1 RES1   0.0000
    14 H5       2.1581   7.0706  17.7143   H         1 RES1   0.0000
    15 H6       3.6499   7.0229  17.1505   H         1 RES1   0.0000
    16 C3       2.9056   5.1561  17.5983   C.3       1 RES1   0.0000
    17 H7       3.1551   5.1858  18.5552   H         1 RES1   0.0000
    18 H8       2.0210   4.7160  17.5361   H         1 RES1   0.0000
    19 C4       5.2820   4.7920  17.2141   C.3       1 RES1   0.0000
    20 H9       5.5189   4.4858  18.1251   H         1 RES1   0.0000
    21 H10      5.2831   5.7823  17.2183   H         1 RES1   0.0000
    22 C5       6.3344   4.3044  16.2436   C.3       1 RES1   0.0000
    23 H11      7.2149   4.6901  16.4801   H         1 RES1   0.0000
    24 H12      6.4043   3.3188  16.2922   H         1 RES1   0.0000
    25 C6       6.8718   4.1589  13.8469   C.3       1 RES1   0.0000
    26 H13      6.7597   3.1758  13.8064   H         1 RES1   0.0000
    27 H14      7.8091   4.3497  14.1029   H         1 RES1   0.0000
    28 C7       6.5948   4.7530  12.4800   C.3       1 RES1   0.0000
    29 H15      7.3570   4.5335  11.8864   H         1 RES1   0.0000
    30 H16      6.5662   5.7387  12.5703   H         1 RES1   0.0000
    31 C8       5.3104   4.2994  11.7944   C.3       1 RES1   0.0000
    32 H17      5.3055   4.6601  10.8731   H         1 RES1   0.0000
    33 H18      5.3261   3.3119  11.7256   H         1 RES1   0.0000
    34 C9       3.8544   6.1794  12.3219   C.3       1 RES1   0.0000
    35 H19      3.5693   6.3842  11.3962   H         1 RES1   0.0000
    36 H20      4.7232   6.6280  12.4793   H         1 RES1   0.0000
    37 C10      2.8290   6.7335  13.2897   C.3       1 RES1   0.0000
    38 H21      2.7567   7.7147  13.1806   H         1 RES1   0.0000
    39 H22      1.9415   6.3338  13.1070   H         1 RES1   0.0000
    40 C11      3.7460   2.9068  17.3468   C.3       1 RES1   0.0000
    41 H23      2.7818   2.7046  17.4431   H         1 RES1   0.0000
    42 H24      4.1653   2.8135  18.2394   H         1 RES1   0.0000
    43 C12      4.3660   1.9080  16.4046   C.ar      1 RES1   0.0000
    44 C13      4.9847   0.7566  16.8591   C.ar      1 RES1   0.0000
    45 H25      5.0823   0.5992  17.7918   H         1 RES1   0.0000
    46 C14      5.4574  -0.1595  15.9437   C.ar      1 RES1   0.0000
    47 H26      5.8857  -0.9560  16.2360   H         1 RES1   0.0000
    48 C15      5.2991   0.0975  14.5946   C.ar      1 RES1   0.0000
    49 H27      5.5945  -0.5284  13.9440   H         1 RES1   0.0000
    50 C16      4.7041   1.2781  14.2147   C.ar      1 RES1   0.0000
    51 H28      4.6095   1.4585  13.2872   H         1 RES1   0.0000
    52 C17      2.9237   3.9950  11.7748   C.3       1 RES1   0.0000
    53 H29      3.2521   3.1145  11.4660   H         1 RES1   0.0000
    54 H30      2.6620   4.5158  10.9738   H         1 RES1   0.0000
    55 C18      1.7049   3.7812  12.6310   C.ar      1 RES1   0.0000
    56 C19      0.4752   3.5055  12.0596   C.ar      1 RES1   0.0000
    57 H31      0.3789   3.4999  11.1153   H         1 RES1   0.0000
    58 C20     -0.6085   3.2398  12.8666   C.ar      1 RES1   0.0000
    59 H32     -1.4582   3.0505  12.4851   H         1 RES1   0.0000
    60 C21     -0.4458   3.2515  14.2429   C.ar      1 RES1   0.0000
    61 H33     -1.1758   3.0723  14.8236   H         1 RES1   0.0000
    62 C22      0.8047   3.5307  14.7426   C.ar      1 RES1   0.0000
    63 H34      0.9198   3.5421  15.6858   H         1 RES1   0.0000
    64 N7       3.9627   0.8161  11.0163   N.1       2 RES2   0.0000
    65 N8       7.5588  -1.3468   9.9315   N.1       2 RES2   0.0000
    66 N9       3.8187  -3.5978  11.1957   N.1       2 RES2   0.0000
    67 C23      5.1419  -1.4456  10.7559   C.2       2 RES2  -1.0000
    68 C24      4.4842  -0.2006  10.8956   C.1       2 RES2   0.0000
    69 C25      6.4722  -1.4250  10.3058   C.1       2 RES2   0.0000
    70 C26      4.4372  -2.6422  10.9913   C.1       2 RES2   0.0000
    71 N10      6.7068   8.7611  12.8573   N.1       3 RES3   0.0000
    72 N11      9.0503   9.1862   9.1443   N.1       3 RES3   0.0000
    73 N12      5.2514   6.9054   9.0798   N.1       3 RES3   0.0000
    74 C27      6.9881   8.2906  10.3616   C.2       3 RES3  -1.0000
    75 C28      6.8268   8.5514  11.7308   C.1       3 RES3   0.0000
    76 C29      8.1233   8.7734   9.6910   C.1       3 RES3   0.0000
    77 C30      6.0187   7.5311   9.6662   C.1       3 RES3   0.0000
    78 O1       6.1781   7.5612  15.3378   O.3       4 RES4   0.0000
    79 H35      6.5539   7.8482  16.0093   H         4 RES4   0.0000
    80 H36      6.4097   7.9735  14.6822   H         4 RES4   0.0000
    81 O2       7.1880   8.4009  17.7817   O.3       5 RES5   0.0000
    82 H37      6.8270   9.0956  18.1173   H         5 RES5   0.0000
    83 H38      6.9383   7.7311  18.1871   H         5 RES5   0.0000
@<TRIPOS>BOND
     1     1     2    1
     2     2     3    1
     3     4     1    1
     4     5     1    1
     5     6     5    1
     6     7     1    1
     7     8     1    1
     8     9     1    1
     9    10     2    1
    10    11    10    1
    11    12    10    1
    12    13    10    1
    13    14    13    1
    14    15    13    1
    15    16     4    1
    16    17    16    1
    17    18    16    1
    18    19     4    1
    19    20    19    1
    20    21    19    1
    21    22     5    1
    22    23    22    1
    23    24    22    1
    24    25     5    1
    25    26    25    1
    26    27    25    1
    27    28    25    1
    28    29    28    1
    29    30    28    1
    30    31     7    1
    31    32    31    1
    32    33    31    1
    33    34     7    1
    34    35    34    1
    35    36    34    1
    36    37     2    1
    37    38    37    1
    38    39    37    1
    39    40     4    1
    40    41    40    1
    41    42    40    1
    42    43     8   ar
    43    44    43   ar
    44    45    44    1
    45    46    44   ar
    46    47    46    1
    47    48    46   ar
    48    49    48    1
    49    50     8   ar
    50    51    50    1
    51    52     7    1
    52    53    52    1
    53    54    52    1
    54    55     9   ar
    55    56    55   ar
    56    57    56    1
    57    58    56   ar
    58    59    58    1
    59    60    58   ar
    60    61    60    1
    61    62     9   ar
    62    63    62    1
    63    13    16    1
    64    19    22    1
    65    28    31    1
    66    34    37    1
    67    40    43    1
    68    48    50   ar
    69    52    55    1
    70    60    62   ar
    71    64    68    3
    72    65    69    3
    73    66    70    3
    74    67    68    1
    75    69    67    1
    76    70    67    1
    77    71    75    3
    78    72    76    3
    79    73    77    3
    80    74    75    1
    81    76    74    1
    82    77    74    1
    83    78    79    1
    84    80    78    1
    85    81    82    1
    86    83    81    1
@<TRIPOS>SUBSTRUCTURE
     1 RES1        1 GROUP             0 ****  ****    0  
     2 RES2       64 GROUP             0 ****  ****    0  
     3 RES3       71 GROUP             0 ****  ****    0  
     4 RES4       78 GROUP             0 ****  ****    0  
     5 RES5       81 GROUP             0 ****  ****    0  
@<TRIPOS>CRYSIN
   11.9692   13.6182   20.1825   90.0000  106.2650   90.0000    14     1
