@<TRIPOS>MOLECULE
ETUKOW
   191   208     4     0     0
SMALL
NO_CHARGES
****
Generated from the CSD

@<TRIPOS>ATOM
     1 Fe1     10.5575   5.8769   6.4278   Fe        1 RES1   0.0000
     2 O1      11.1379   6.6644  -0.7556   O.2       1 RES1   0.0000
     3 O2      16.0636   8.7738   8.1644   O.2       1 RES1   0.0000
     4 O3      13.7874   1.9685   7.7814   O.2       1 RES1   0.0000
     5 O4      10.3836  -1.2994   4.7680   O.2       1 RES1   0.0000
     6 N1       9.3642   5.5614   4.8770   N.2       1 RES1   0.0000
     7 N2      10.7925   7.7924   5.8998   N.2       1 RES1   0.0000
     8 N3      11.7104   6.1944   8.0120   N.2       1 RES1   0.0000
     9 N4      10.3611   3.9589   6.9309   N.2       1 RES1   0.0000
    10 N5      10.4634   6.9245   1.3945   N.am      1 RES1   0.0000
    11 H1      10.5949   6.5870   2.1967   H         1 RES1   0.0000
    12 N6      14.6975  10.0476   6.8771   N.am      1 RES1   0.0000
    13 H2      14.4848  10.3069   6.0636   H         1 RES1   0.0000
    14 N7      14.3867   3.2015   9.6001   N.am      1 RES1   0.0000
    15 H3      14.9989   3.7403   9.9298   H         1 RES1   0.0000
    16 N8      10.2099   0.7897   3.8839   N.am      1 RES1   0.0000
    17 H4      10.6562   1.4853   3.5812   H         1 RES1   0.0000
    18 N9      11.4593   2.8517   2.0693   N.ar      1 RES1   0.0000
    19 N10     16.7353   8.4349   3.5063   N.ar      1 RES1   0.0000
    20 N11     17.1092   3.4689   5.7247   N.ar      1 RES1   0.0000
    21 N12     14.4830   0.8542   4.0922   N.ar      1 RES1   0.0000
    22 N13     12.1641   5.4297   5.3159   N.2       1 RES1   0.0000
    23 N14     13.7422   5.5078   3.7681   N.pl3     1 RES1   0.0000
    24 N15      8.9468   6.3181   7.5157   N.2       1 RES1   0.0000
    25 N16      7.5464   7.3276   8.8792   N.pl3     1 RES1   0.0000
    26 C1       8.7144   4.3933   4.5155   C.2       1 RES1   0.0000
    27 C2       7.8543   4.6453   3.3884   C.2       1 RES1   0.0000
    28 H5       7.2975   4.0098   2.9543   H         1 RES1   0.0000
    29 C3       7.9834   5.9428   3.0615   C.2       1 RES1   0.0000
    30 H6       7.5262   6.3986   2.3653   H         1 RES1   0.0000
    31 C4       8.9452   6.5069   3.9656   C.2       1 RES1   0.0000
    32 C5       9.4517   7.8062   3.8397   C.2       1 RES1   0.0000
    33 C6      10.3316   8.3863   4.7500   C.2       1 RES1   0.0000
    34 C7      10.8697   9.7138   4.6187   C.2       1 RES1   0.0000
    35 H7      10.7331  10.3095   3.8912   H         1 RES1   0.0000
    36 C8      11.6048   9.9535   5.7191   C.2       1 RES1   0.0000
    37 H8      12.0614  10.7584   5.9313   H         1 RES1   0.0000
    38 C9      11.5656   8.7527   6.5143   C.2       1 RES1   0.0000
    39 C10     12.2275   8.5886   7.7270   C.2       1 RES1   0.0000
    40 C11     12.2933   7.3744   8.4091   C.2       1 RES1   0.0000
    41 C12     13.0138   7.1842   9.6376   C.2       1 RES1   0.0000
    42 H9      13.5163   7.8437  10.1019   H         1 RES1   0.0000
    43 C13     12.8501   5.9090  10.0096   C.2       1 RES1   0.0000
    44 H10     13.1984   5.4954  10.7905   H         1 RES1   0.0000
    45 C14     12.0368   5.2830   8.9900   C.2       1 RES1   0.0000
    46 C15     11.6382   3.9529   9.0290   C.2       1 RES1   0.0000
    47 C16     10.8806   3.3410   8.0331   C.2       1 RES1   0.0000
    48 C17     10.5742   1.9295   8.0246   C.2       1 RES1   0.0000
    49 H11     10.8371   1.2903   8.6760   H         1 RES1   0.0000
    50 C18      9.8461   1.6921   6.9229   C.2       1 RES1   0.0000
    51 H12      9.4973   0.8542   6.6446   H         1 RES1   0.0000
    52 C19      9.6954   2.9593   6.2393   C.2       1 RES1   0.0000
    53 C20      8.9135   3.1487   5.1061   C.2       1 RES1   0.0000
    54 C21      9.1390   8.5505   2.5828   C.ar      1 RES1   0.0000
    55 C22      8.3454   9.6869   2.5815   C.ar      1 RES1   0.0000
    56 H13      7.9613   9.9861   3.3972   H         1 RES1   0.0000
    57 C23      8.0999  10.3985   1.4138   C.ar      1 RES1   0.0000
    58 H14      7.5573  11.1786   1.4301   H         1 RES1   0.0000
    59 C24      8.6575   9.9561   0.2272   C.ar      1 RES1   0.0000
    60 H15      8.4872  10.4339  -0.5761   H         1 RES1   0.0000
    61 C25      9.4587   8.8256   0.1914   C.ar      1 RES1   0.0000
    62 H16      9.8479   8.5396  -0.6270   H         1 RES1   0.0000
    63 C26      9.6886   8.1121   1.3625   C.ar      1 RES1   0.0000
    64 C27     11.0268   6.2311   0.3843   C.2       1 RES1   0.0000
    65 C28     11.5208   4.8590   0.7315   C.ar      1 RES1   0.0000
    66 C29     11.0852   4.1107   1.8220   C.ar      1 RES1   0.0000
    67 H17     10.4830   4.5222   2.4304   H         1 RES1   0.0000
    68 C30     12.3209   2.2952   1.2094   C.ar      1 RES1   0.0000
    69 H18     12.5985   1.4003   1.3657   H         1 RES1   0.0000
    70 C31     12.8258   2.9575   0.1084   C.ar      1 RES1   0.0000
    71 H19     13.4449   2.5267  -0.4693   H         1 RES1   0.0000
    72 C32     12.4221   4.2500  -0.1444   C.ar      1 RES1   0.0000
    73 H20     12.7521   4.7205  -0.9014   H         1 RES1   0.0000
    74 C33     12.7945   9.7973   8.4167   C.ar      1 RES1   0.0000
    75 C34     12.1430  10.2626   9.5655   C.ar      1 RES1   0.0000
    76 H21     11.3705   9.8060   9.8764   H         1 RES1   0.0000
    77 C35     12.5954  11.3722  10.2597   C.ar      1 RES1   0.0000
    78 H22     12.1426  11.6614  11.0428   H         1 RES1   0.0000
    79 C36     13.7003  12.0515   9.8138   C.ar      1 RES1   0.0000
    80 H23     14.0124  12.8166  10.2839   H         1 RES1   0.0000
    81 C37     14.3568  11.6213   8.6807   C.ar      1 RES1   0.0000
    82 H24     15.1134  12.1015   8.3644   H         1 RES1   0.0000
    83 C38     13.9233  10.4893   7.9945   C.ar      1 RES1   0.0000
    84 C39     15.7536   9.2312   7.0720   C.2       1 RES1   0.0000
    85 C40     16.5725   8.9129   5.8524   C.ar      1 RES1   0.0000
    86 C41     16.0299   8.7911   4.6026   C.ar      1 RES1   0.0000
    87 H25     15.1017   8.9673   4.4991   H         1 RES1   0.0000
    88 C42     18.0431   8.2064   3.6890   C.ar      1 RES1   0.0000
    89 H26     18.5647   7.9597   2.9351   H         1 RES1   0.0000
    90 C43     18.6671   8.3086   4.9006   C.ar      1 RES1   0.0000
    91 H27     19.5977   8.1340   4.9777   H         1 RES1   0.0000
    92 C44     17.9286   8.6676   6.0112   C.ar      1 RES1   0.0000
    93 H28     18.3400   8.7460   6.8640   H         1 RES1   0.0000
    94 C45     12.0239   3.1234  10.2131   C.ar      1 RES1   0.0000
    95 C46     11.0470   2.7006  11.1130   C.ar      1 RES1   0.0000
    96 H29     10.1430   2.9539  10.9676   H         1 RES1   0.0000
    97 C47     11.3616   1.9223  12.2141   C.ar      1 RES1   0.0000
    98 H30     10.6785   1.6374  12.8096   H         1 RES1   0.0000
    99 C48     12.6864   1.5603  12.4417   C.ar      1 RES1   0.0000
   100 H31     12.9152   1.0303  13.1965   H         1 RES1   0.0000
   101 C49     13.6653   1.9775  11.5600   C.ar      1 RES1   0.0000
   102 H32     14.5690   1.7296  11.7128   H         1 RES1   0.0000
   103 C50     13.3465   2.7502  10.4582   C.ar      1 RES1   0.0000
   104 C51     14.4748   2.8412   8.3042   C.2       1 RES1   0.0000
   105 C52     15.5102   3.5706   7.5107   C.ar      1 RES1   0.0000
   106 C53     15.7886   4.9106   7.7001   C.ar      1 RES1   0.0000
   107 H33     15.3350   5.4097   8.3693   H         1 RES1   0.0000
   108 C54     16.7338   5.5074   6.9034   C.ar      1 RES1   0.0000
   109 H34     16.9473   6.4264   7.0142   H         1 RES1   0.0000
   110 C55     17.3635   4.7619   5.9454   C.ar      1 RES1   0.0000
   111 H35     18.0213   5.1872   5.4081   H         1 RES1   0.0000
   112 C56     16.1848   2.8989   6.5024   C.ar      1 RES1   0.0000
   113 H36     15.9793   1.9834   6.3583   H         1 RES1   0.0000
   114 C57      8.1691   1.9854   4.5356   C.ar      1 RES1   0.0000
   115 C58      6.7677   2.0198   4.5478   C.ar      1 RES1   0.0000
   116 H37      6.3243   2.7539   4.9561   H         1 RES1   0.0000
   117 C59      6.0194   1.0119   3.9816   C.ar      1 RES1   0.0000
   118 H38      5.0705   1.0633   3.9883   H         1 RES1   0.0000
   119 C60      6.6433  -0.0661   3.4051   C.ar      1 RES1   0.0000
   120 H39      6.1255  -0.7603   3.0146   H         1 RES1   0.0000
   121 C61      8.0178  -0.1447   3.3921   C.ar      1 RES1   0.0000
   122 H40      8.4461  -0.8953   2.9969   H         1 RES1   0.0000
   123 C62      8.7805   0.8695   3.9561   C.ar      1 RES1   0.0000
   124 C63     10.8972  -0.3059   4.2608   C.2       1 RES1   0.0000
   125 C64     12.3715  -0.2686   4.0089   C.ar      1 RES1   0.0000
   126 C65     13.1554   0.8169   4.3111   C.ar      1 RES1   0.0000
   127 H41     12.7402   1.5809   4.6939   H         1 RES1   0.0000
   128 C66     15.0337  -0.2506   3.5611   C.ar      1 RES1   0.0000
   129 H42     15.9742  -0.2634   3.4252   H         1 RES1   0.0000
   130 C67     14.3372  -1.3229   3.2187   C.ar      1 RES1   0.0000
   131 H43     14.7730  -2.0630   2.8144   H         1 RES1   0.0000
   132 C68     12.9830  -1.3647   3.4484   C.ar      1 RES1   0.0000
   133 H44     12.4790  -2.1374   3.2245   H         1 RES1   0.0000
   134 C69     12.8846   4.2789   5.3255   C.2       1 RES1   0.0000
   135 H45     12.7339   3.5434   5.9075   H         1 RES1   0.0000
   136 C70     12.7001   6.1551   4.3436   C.2       1 RES1   0.0000
   137 H46     12.3929   7.0163   4.0830   H         1 RES1   0.0000
   138 C71     13.8537   4.3390   4.3776   C.2       1 RES1   0.0000
   139 H47     14.4946   3.6651   4.1863   H         1 RES1   0.0000
   140 C72     14.5342   5.9776   2.6378   C.3       1 RES1   0.0000
   141 H48     15.4735   6.0546   2.9067   H         1 RES1   0.0000
   142 H49     14.2043   6.8546   2.3498   H         1 RES1   0.0000
   143 H50     14.4572   5.3404   1.8978   H         1 RES1   0.0000
   144 C73      8.7564   7.3603   8.2925   C.2       1 RES1   0.0000
   145 H51      9.3940   8.0517   8.4235   H         1 RES1   0.0000
   146 C74      6.9308   6.2042   8.4546   C.2       1 RES1   0.0000
   147 H52      6.0612   5.9071   8.6960   H         1 RES1   0.0000
   148 C75      7.7969   5.5839   7.6158   C.2       1 RES1   0.0000
   149 H53      7.6295   4.7638   7.1660   H         1 RES1   0.0000
   150 C76      7.0075   8.2838   9.8381   C.3       1 RES1   0.0000
   151 H54      7.1987   7.9773  10.7483   H         1 RES1   0.0000
   152 H55      6.0383   8.3591   9.7145   H         1 RES1   0.0000
   153 H56      7.4238   9.1598   9.6937   H         1 RES1   0.0000
   154 O5       8.0213  10.4156   6.9511   O.3       2 RES2   0.0000
   155 C77      9.2656  12.3788   7.3304   C.3       2 RES2   0.0000
   156 H57     10.1159  12.3720   6.8235   H         2 RES2   0.0000
   157 H58      9.3206  13.0507   8.0549   H         2 RES2   0.0000
   158 C78      8.9347  11.0192   7.8657   C.3       2 RES2   0.0000
   159 H59      9.7554  10.4719   7.9421   H         2 RES2   0.0000
   160 H60      8.5218  11.0955   8.7621   H         2 RES2   0.0000
   161 C79      8.0536  12.6415   6.4027   C.3       2 RES2   0.0000
   162 H61      7.2966  13.0357   6.9041   H         2 RES2   0.0000
   163 H62      8.2978  13.2448   5.6560   H         2 RES2   0.0000
   164 C80      7.7296  11.3064   5.9193   C.3       2 RES2   0.0000
   165 H63      6.7714  11.2518   5.6776   H         2 RES2   0.0000
   166 H64      8.2693  11.0915   5.1170   H         2 RES2   0.0000
   167 O6      14.1304  11.5264   1.2441   O.3       3 RES3   0.0000
   168 C81     13.6023  12.1343   0.0650   C.3       3 RES3   0.0000
   169 H65     14.3175  12.5084  -0.5084   H         3 RES3   0.0000
   170 H66     12.9449  12.8427   0.2794   H         3 RES3   0.0000
   171 C82     12.9277  10.8985  -0.5874   C.3       3 RES3   0.0000
   172 H67     11.9506  11.0537  -0.6317   H         3 RES3   0.0000
   173 H68     13.2599  10.8041  -1.5146   H         3 RES3   0.0000
   174 C83     13.1864   9.5896   0.1669   C.3       3 RES3   0.0000
   175 H69     12.3679   9.0403   0.2633   H         3 RES3   0.0000
   176 H70     13.9076   9.0515  -0.2459   H         3 RES3   0.0000
   177 C84     13.6182  10.2279   1.4869   C.3       3 RES3   0.0000
   178 H71     12.8428  10.2843   2.0998   H         3 RES3   0.0000
   179 H72     14.3127   9.6692   1.9167   H         3 RES3   0.0000
   180 N17      5.1859  12.1383   8.7071   N.pl3     4 RES4   0.0000
   181 N18      6.2897  12.5957  10.5787   N.2       4 RES4   0.0000
   182 C85      5.5568  11.4477  10.7550   C.2       4 RES4   0.0000
   183 H73      5.5289  10.9326  11.5522   H         4 RES4   0.0000
   184 C86      6.0484  12.9633   9.3374   C.2       4 RES4   0.0000
   185 H74      6.4400  13.7265   8.9290   H         4 RES4   0.0000
   186 C87      4.8659  11.1579   9.5975   C.2       4 RES4   0.0000
   187 H75      4.2833  10.4225   9.4517   H         4 RES4   0.0000
   188 C88      4.7252  12.2833   7.3325   C.3       4 RES4   0.0000
   189 H76      5.1750  13.0488   6.9177   H         4 RES4   0.0000
   190 H77      3.7569  12.4304   7.3272   H         4 RES4   0.0000
   191 H78      4.9360  11.4688   6.8310   H         4 RES4   0.0000
@<TRIPOS>BOND
     1     1     6    1
     2     2    64    2
     3     3    84    2
     4     4   104    2
     5     5   124    2
     6     6    26    1
     7     7     1    1
     8     8     1    1
     9     9     1    1
    10    10    11    1
    11    12    13    1
    12    14    15    1
    13    16    17    1
    14    18    66   ar
    15    19    86   ar
    16    20   110   ar
    17    21   126   ar
    18    22     1    1
    19    23   136    1
    20    24     1    1
    21    25   144    1
    22    26    27    2
    23    27    28    1
    24    29    27    1
    25    30    29    1
    26    31     6    1
    27    32    31    1
    28    33     7    1
    29    34    33    1
    30    35    34    1
    31    36    34    2
    32    37    36    1
    33    38     7    2
    34    39    38    1
    35    40     8    1
    36    41    40    1
    37    42    41    1
    38    43    41    2
    39    44    43    1
    40    45     8    1
    41    46    45    2
    42    47     9    2
    43    48    47    1
    44    49    48    1
    45    50    48    2
    46    51    50    1
    47    52     9    1
    48    53    26    1
    49    54    32    1
    50    55    54   ar
    51    56    55    1
    52    57    55   ar
    53    58    57    1
    54    59    57   ar
    55    60    59    1
    56    61    59   ar
    57    62    61    1
    58    63    10    1
    59    64    10   am
    60    65    64    1
    61    66    65   ar
    62    67    66    1
    63    68    18   ar
    64    69    68    1
    65    70    68   ar
    66    71    70    1
    67    72    65   ar
    68    73    72    1
    69    74    39    1
    70    75    74   ar
    71    76    75    1
    72    77    75   ar
    73    78    77    1
    74    79    77   ar
    75    80    79    1
    76    81    79   ar
    77    82    81    1
    78    83    12    1
    79    84    12   am
    80    85    84    1
    81    86    85   ar
    82    87    86    1
    83    88    19   ar
    84    89    88    1
    85    90    88   ar
    86    91    90    1
    87    92    85   ar
    88    93    92    1
    89    94    46    1
    90    95    94   ar
    91    96    95    1
    92    97    95   ar
    93    98    97    1
    94    99    97   ar
    95   100    99    1
    96   101    99   ar
    97   102   101    1
    98   103    14    1
    99   104    14   am
   100   105   104    1
   101   106   105   ar
   102   107   106    1
   103   108   106   ar
   104   109   108    1
   105   110   108   ar
   106   111   110    1
   107   112    20   ar
   108   113   112    1
   109   114    53    1
   110   115   114   ar
   111   116   115    1
   112   117   115   ar
   113   118   117    1
   114   119   117   ar
   115   120   119    1
   116   121   119   ar
   117   122   121    1
   118   123    16    1
   119   124    16   am
   120   125   124    1
   121   126   125   ar
   122   127   126    1
   123   128    21   ar
   124   129   128    1
   125   130   128   ar
   126   131   130    1
   127   132   125   ar
   128   133   132    1
   129   134    22    1
   130   135   134    1
   131   136    22    2
   132   137   136    1
   133   138    23    1
   134   139   138    1
   135   140    23    1
   136   141   140    1
   137   142   140    1
   138   143   140    1
   139   144    24    2
   140   145   144    1
   141   146    25    1
   142   147   146    1
   143   148    24    1
   144   149   148    1
   145   150    25    1
   146   151   150    1
   147   152   150    1
   148   153   150    1
   149    29    31    2
   150    32    33    2
   151    36    38    1
   152    39    40    2
   153    43    45    1
   154    46    47    1
   155    50    52    1
   156    52    53    2
   157    54    63   ar
   158    61    63   ar
   159    70    72   ar
   160    74    83   ar
   161    81    83   ar
   162    90    92   ar
   163    94   103   ar
   164   101   103   ar
   165   105   112   ar
   166   114   123   ar
   167   121   123   ar
   168   130   132   ar
   169   134   138    2
   170   146   148    2
   171   154   158    1
   172   155   156    1
   173   157   155    1
   174   158   155    1
   175   159   158    1
   176   160   158    1
   177   161   155    1
   178   162   161    1
   179   163   161    1
   180   164   154    1
   181   165   164    1
   182   166   164    1
   183   161   164    1
   184   167   168    1
   185   168   169    1
   186   170   168    1
   187   171   168    1
   188   172   171    1
   189   173   171    1
   190   174   171    1
   191   175   174    1
   192   176   174    1
   193   177   167    1
   194   178   177    1
   195   179   177    1
   196   174   177    1
   197   180   184    1
   198   181   182    1
   199   182   183    1
   200   184   181    2
   201   185   184    1
   202   186   180    1
   203   187   186    1
   204   188   180    1
   205   189   188    1
   206   190   188    1
   207   191   188    1
   208   182   186    2
@<TRIPOS>SUBSTRUCTURE
     1 RES1        1 GROUP             0 ****  ****    0  
     2 RES2      154 GROUP             0 ****  ****    0  
     3 RES3      167 GROUP             0 ****  ****    0  
     4 RES4      180 GROUP             0 ****  ****    0  
@<TRIPOS>CRYSIN
   13.0880   13.8413   22.7710   75.5880   76.1380   74.3160     2     1
