@<TRIPOS>MOLECULE
EWABUA
    90    97     1     0     0
SMALL
NO_CHARGES
****
Generated from the CSD

@<TRIPOS>ATOM
     1 Fe1      1.5461   2.1466   5.0535   Fe        1 RES1   0.0000
     2 Cl1      2.3166   4.2875   5.7225   Cl        1 RES1   0.0000
     3 Cl2      3.5729   1.6583   4.0066   Cl        1 RES1   0.0000
     4 P1       2.4924   1.2441   6.9217   P.3       1 RES1   0.0000
     5 P2       0.7300   0.0995   4.6336   P.3       1 RES1   0.0000
     6 P3       1.4177  -0.7957   1.6468   P.3       1 RES1   0.0000
     7 P4       0.7096   3.0052   3.0991   P.3       1 RES1   0.0000
     8 O1      -0.6818   3.0168   6.6713   O.2       1 RES1   0.0000
     9 C1       1.7534   1.7854   8.4975   C.ar      1 RES1   0.0000
    10 C2       2.0800   3.0277   9.0259   C.ar      1 RES1   0.0000
    11 H1       2.7323   3.5647   8.5911   H         1 RES1   0.0000
    12 C3       1.4734   3.4928  10.1716   C.ar      1 RES1   0.0000
    13 H2       1.7210   4.3396  10.5253   H         1 RES1   0.0000
    14 C4       0.5151   2.7471  10.8055   C.ar      1 RES1   0.0000
    15 H3       0.1036   3.0724  11.5990   H         1 RES1   0.0000
    16 C5       0.1534   1.5328  10.2932   C.ar      1 RES1   0.0000
    17 H4      -0.5245   1.0236  10.7211   H         1 RES1   0.0000
    18 C6       0.7701   1.0372   9.1486   C.ar      1 RES1   0.0000
    19 H5       0.5216   0.1856   8.8084   H         1 RES1   0.0000
    20 C7       2.1923  -0.5581   6.8595   C.3       1 RES1   0.0000
    21 H6       2.9154  -0.9980   6.3471   H         1 RES1   0.0000
    22 H7       2.1962  -0.9282   7.7778   H         1 RES1   0.0000
    23 C8       0.8505  -0.8390   6.1988   C.3       1 RES1   0.0000
    24 H8       0.1154  -0.5723   6.8075   H         1 RES1   0.0000
    25 H9       0.7635  -1.8087   6.0157   H         1 RES1   0.0000
    26 C9       1.7035  -0.9226   3.4765   C.3       1 RES1   0.0000
    27 H10      1.5627  -1.8683   3.7308   H         1 RES1   0.0000
    28 H11      2.6590  -0.7204   3.6383   H         1 RES1   0.0000
    29 C10      1.5790   1.0040   1.2739   C.3       1 RES1   0.0000
    30 H12      2.3922   1.3557   1.7148   H         1 RES1   0.0000
    31 H13      1.6852   1.1258   0.2969   H         1 RES1   0.0000
    32 C11      0.3476   1.8111   1.7567   C.3       1 RES1   0.0000
    33 H14     -0.3428   1.1769   2.0741   H         1 RES1   0.0000
    34 H15     -0.0295   2.3043   0.9854   H         1 RES1   0.0000
    35 C12     -0.8933   3.8600   3.3476   C.ar      1 RES1   0.0000
    36 C13     -2.1025   3.3618   2.8951   C.ar      1 RES1   0.0000
    37 H16     -2.1216   2.5973   2.3323   H         1 RES1   0.0000
    38 C14     -3.2954   3.9836   3.2686   C.ar      1 RES1   0.0000
    39 H17     -4.1246   3.6226   2.9799   H         1 RES1   0.0000
    40 C15     -3.2819   5.1094   4.0447   C.ar      1 RES1   0.0000
    41 H18     -4.0970   5.5267   4.2966   H         1 RES1   0.0000
    42 C16     -2.0779   5.6321   4.4558   C.ar      1 RES1   0.0000
    43 H19     -2.0637   6.4310   4.9679   H         1 RES1   0.0000
    44 C17     -0.8914   5.0087   4.1329   C.ar      1 RES1   0.0000
    45 H20     -0.0690   5.3649   4.4472   H         1 RES1   0.0000
    46 C18      1.6775   4.2701   2.1838   C.ar      1 RES1   0.0000
    47 C19      1.0762   4.9135   1.1085   C.ar      1 RES1   0.0000
    48 H21      0.1670   4.7279   0.9036   H         1 RES1   0.0000
    49 C20      1.7797   5.8196   0.3307   C.ar      1 RES1   0.0000
    50 H22      1.3599   6.2318  -0.4152   H         1 RES1   0.0000
    51 C21      3.0737   6.1183   0.6386   C.ar      1 RES1   0.0000
    52 H23      3.5622   6.7274   0.0968   H         1 RES1   0.0000
    53 C22      3.6727   5.5401   1.7294   C.ar      1 RES1   0.0000
    54 H24      4.5628   5.7770   1.9601   H         1 RES1   0.0000
    55 C23      2.9846   4.6083   2.5001   C.ar      1 RES1   0.0000
    56 H25      3.4108   4.2033   3.2445   H         1 RES1   0.0000
    57 C24      3.0259  -1.4567   1.0629   C.ar      1 RES1   0.0000
    58 C25      3.6972  -2.4513   1.7514   C.ar      1 RES1   0.0000
    59 H26      3.3620  -2.7437   2.5905   H         1 RES1   0.0000
    60 C26      4.8508  -3.0314   1.2399   C.ar      1 RES1   0.0000
    61 H27      5.2964  -3.7162   1.7255   H         1 RES1   0.0000
    62 C27      5.3460  -2.6058   0.0217   C.ar      1 RES1   0.0000
    63 H28      6.1432  -2.9890  -0.3249   H         1 RES1   0.0000
    64 C28      4.6911  -1.6350  -0.6872   C.ar      1 RES1   0.0000
    65 H29      5.0333  -1.3472  -1.5254   H         1 RES1   0.0000
    66 C29      3.5274  -1.0701  -0.1835   C.ar      1 RES1   0.0000
    67 H30      3.0668  -0.4122  -0.6928   H         1 RES1   0.0000
    68 C30     -1.0139  -0.2454   4.1923   C.ar      1 RES1   0.0000
    69 C31     -2.0368   0.6136   4.5742   C.ar      1 RES1   0.0000
    70 H31     -1.8247   1.4034   5.0583   H         1 RES1   0.0000
    71 C32     -3.3539   0.3440   4.2631   C.ar      1 RES1   0.0000
    72 H32     -4.0430   0.9316   4.5505   H         1 RES1   0.0000
    73 C33     -3.6627  -0.7756   3.5367   C.ar      1 RES1   0.0000
    74 H33     -4.5635  -0.9384   3.2811   H         1 RES1   0.0000
    75 C34     -2.6756  -1.6674   3.1744   C.ar      1 RES1   0.0000
    76 H34     -2.8988  -2.4576   2.6959   H         1 RES1   0.0000
    77 C35     -1.3590  -1.4071   3.5102   C.ar      1 RES1   0.0000
    78 H35     -0.6823  -2.0301   3.2725   H         1 RES1   0.0000
    79 C36      4.2855   1.3794   7.2623   C.ar      1 RES1   0.0000
    80 C37      4.9415   0.3250   7.8867   C.ar      1 RES1   0.0000
    81 H36      4.4644  -0.4615   8.1199   H         1 RES1   0.0000
    82 C38      6.2929   0.4241   8.1666   C.ar      1 RES1   0.0000
    83 H37      6.7362  -0.3015   8.5911   H         1 RES1   0.0000
    84 C39      7.0037   1.5516   7.8432   C.ar      1 RES1   0.0000
    85 H38      7.9308   1.6095   8.0446   H         1 RES1   0.0000
    86 C40      6.3622   2.5973   7.2242   C.ar      1 RES1   0.0000
    87 H39      6.8481   3.3824   7.0011   H         1 RES1   0.0000
    88 C41      5.0059   2.5143   6.9219   C.ar      1 RES1   0.0000
    89 H40      4.5730   3.2359   6.4826   H         1 RES1   0.0000
    90 C42      0.1530   2.6295   5.9976   C.1       1 RES1   0.0000
@<TRIPOS>BOND
     1     1     2    1
     2     3     1    1
     3     4     1    1
     4     5     1    1
     5     6    26    1
     6     7     1    1
     7     8    90    3
     8     9     4    1
     9    10     9   ar
    10    11    10    1
    11    12    10   ar
    12    13    12    1
    13    14    12   ar
    14    15    14    1
    15    16    14   ar
    16    17    16    1
    17    18     9   ar
    18    19    18    1
    19    20     4    1
    20    21    20    1
    21    22    20    1
    22    23     5    1
    23    24    23    1
    24    25    23    1
    25    26     5    1
    26    27    26    1
    27    28    26    1
    28    29     6    1
    29    30    29    1
    30    31    29    1
    31    32     7    1
    32    33    32    1
    33    34    32    1
    34    35     7    1
    35    36    35   ar
    36    37    36    1
    37    38    36   ar
    38    39    38    1
    39    40    38   ar
    40    41    40    1
    41    42    40   ar
    42    43    42    1
    43    44    35   ar
    44    45    44    1
    45    46     7    1
    46    47    46   ar
    47    48    47    1
    48    49    47   ar
    49    50    49    1
    50    51    49   ar
    51    52    51    1
    52    53    51   ar
    53    54    53    1
    54    55    46   ar
    55    56    55    1
    56    57     6    1
    57    58    57   ar
    58    59    58    1
    59    60    58   ar
    60    61    60    1
    61    62    60   ar
    62    63    62    1
    63    64    62   ar
    64    65    64    1
    65    66    57   ar
    66    67    66    1
    67    68     5    1
    68    69    68   ar
    69    70    69    1
    70    71    69   ar
    71    72    71    1
    72    73    71   ar
    73    74    73    1
    74    75    73   ar
    75    76    75    1
    76    77    68   ar
    77    78    77    1
    78    79     4    1
    79    80    79   ar
    80    81    80    1
    81    82    80   ar
    82    83    82    1
    83    84    82   ar
    84    85    84    1
    85    86    84   ar
    86    87    86    1
    87    88    79   ar
    88    89    88    1
    89    90     1    1
    90    16    18   ar
    91    20    23    1
    92    29    32    1
    93    42    44   ar
    94    53    55   ar
    95    64    66   ar
    96    75    77   ar
    97    86    88   ar
@<TRIPOS>SUBSTRUCTURE
     1 RES1        1 GROUP             0 ****  ****    0  
@<TRIPOS>CRYSIN
   10.2534   17.0313   21.7450   90.0000   98.3330   90.0000   231     1
