@<TRIPOS>MOLECULE
EWASUS02
    80    85     2     0     0
SMALL
USER_CHARGES
****
Generated from the CSD

@<TRIPOS>ATOM
     1 C1       2.0149   1.1234   8.4221   C.ar      1 RES1   0.0000
     2 C2       1.9362  -0.1888   8.9128   C.ar      1 RES1   0.0000
     3 C3       0.8309  -0.6238   9.6094   C.ar      1 RES1   0.0000
     4 C4      -0.2291   0.2459   9.8118   C.ar      1 RES1   0.0000
     5 C5      -0.1436   1.5532   9.3589   C.ar      1 RES1   0.0000
     6 C6       0.9791   2.0402   8.6737   C.ar      1 RES1   0.0000
     7 C7       1.7559   3.9388   7.1536   C.ar      1 RES1   0.0000
     8 C8       1.0182   3.4645   8.2585   C.ar      1 RES1   0.0000
     9 C9       0.2461   4.3726   8.9963   C.ar      1 RES1   0.0000
    10 C10      0.1100   5.6975   8.6245   C.ar      1 RES1   0.0000
    11 C11      0.6996   6.1434   7.4567   C.ar      1 RES1   0.0000
    12 C12      1.5033   5.2696   6.7281   C.ar      1 RES1   0.0000
    13 C13      2.1494   5.6651   5.4790   C.ar      1 RES1   0.0000
    14 C14      1.8907   6.8420   4.7732   C.ar      1 RES1   0.0000
    15 C15      2.5468   7.0811   3.5905   C.ar      1 RES1   0.0000
    16 C16      3.4726   6.1675   3.1250   C.ar      1 RES1   0.0000
    17 C17      3.6955   5.0252   3.8547   C.ar      1 RES1   0.0000
    18 C18      4.7596   2.5219   5.3028   C.1       1 RES1   0.0000
    19 C19      6.1643   3.4204   8.0995   C.3       1 RES1   0.0000
    20 C20      4.0322   5.0212   9.0237   C.3       1 RES1   0.0000
    21 C21      5.4683   5.7908   6.6583   C.ar      1 RES1   0.0000
    22 C22      4.9159   7.0613   6.7864   C.ar      1 RES1   0.0000
    23 C23      5.4793   8.1492   6.1504   C.ar      1 RES1   0.0000
    24 C24      6.5849   7.9839   5.3818   C.ar      1 RES1   0.0000
    25 C25      7.1326   6.7357   5.2010   C.ar      1 RES1   0.0000
    26 C26      6.5784   5.6181   5.8484   C.ar      1 RES1   0.0000
    27 C27      1.5706   0.3464   5.0500   C.3       1 RES1   0.0000
    28 C28      0.1006   2.7795   4.7595   C.3       1 RES1   0.0000
    29 C29      2.3016   2.1526   3.0094   C.ar      1 RES1   0.0000
    30 C30      1.7317   3.0199   2.0829   C.ar      1 RES1   0.0000
    31 C31      2.1645   3.0026   0.7652   C.ar      1 RES1   0.0000
    32 C32      3.1515   2.1505   0.3717   C.ar      1 RES1   0.0000
    33 C33      3.7359   1.2977   1.2731   C.ar      1 RES1   0.0000
    34 C34      3.3161   1.2903   2.5942   C.ar      1 RES1   0.0000
    35 N1       3.0418   4.7601   5.0054   N.ar      1 RES1   0.0000
    36 O1       5.7264   2.1285   4.8407   O.2       1 RES1   0.0000
    37 P1       4.7322   4.3603   7.4948   P.3       1 RES1   0.0000
    38 P2       1.7923   2.1258   4.7506   P.3       1 RES1   0.0000
    39 S1       3.4738   1.4886   7.5278   S.3       1 RES1   0.0000
    40 Fe1      3.2855   3.1435   6.1632   Fe        1 RES1   1.0000
    41 H1       2.6783  -0.7663   8.7618   H         1 RES1   0.0000
    42 H2       0.7551  -1.4800   9.9400   H         1 RES1   0.0000
    43 H3      -1.0320  -0.0185  10.2831   H         1 RES1   0.0000
    44 H4      -0.8879   2.1041   9.5282   H         1 RES1   0.0000
    45 H5      -0.1560   4.1094   9.7913   H         1 RES1   0.0000
    46 H6      -0.3400   6.2629   9.1278   H         1 RES1   0.0000
    47 H7       0.6180   7.0230   7.1719   H         1 RES1   0.0000
    48 H8       1.3168   7.3691   5.1130   H         1 RES1   0.0000
    49 H9       2.3597   7.9129   3.0998   H         1 RES1   0.0000
    50 H10      3.9301   6.2753   2.3563   H         1 RES1   0.0000
    51 H11      4.3285   4.4060   3.5459   H         1 RES1   0.0000
    52 H12      6.6922   3.9796   8.5102   H         1 RES1   0.0000
    53 H13      6.6376   3.0558   7.3892   H         1 RES1   0.0000
    54 H14      5.8869   2.7313   8.7046   H         1 RES1   0.0000
    55 H15      4.6985   5.4194   9.4595   H         1 RES1   0.0000
    56 H16      3.7361   4.2855   9.5739   H         1 RES1   0.0000
    57 H17      3.2929   5.5616   8.8076   H         1 RES1   0.0000
    58 H18      4.1671   7.2146   7.3663   H         1 RES1   0.0000
    59 H19      5.1199   9.1148   6.2225   H         1 RES1   0.0000
    60 H20      6.9142   8.7749   4.9528   H         1 RES1   0.0000
    61 H21      7.7682   6.4205   4.6440   H         1 RES1   0.0000
    62 H22      6.8920   4.7829   5.6734   H         1 RES1   0.0000
    63 H23      1.1904   0.2472   5.9251   H         1 RES1   0.0000
    64 H24      2.4943  -0.1174   4.9643   H         1 RES1   0.0000
    65 H25      1.0130   0.0185   4.3695   H         1 RES1   0.0000
    66 H26     -0.2784   2.5676   5.6734   H         1 RES1   0.0000
    67 H27     -0.3996   2.3111   4.1064   H         1 RES1   0.0000
    68 H28      0.1235   3.6459   4.5754   H         1 RES1   0.0000
    69 H29      1.0394   3.5934   2.3677   H         1 RES1   0.0000
    70 H30      1.6950   3.6057   0.1144   H         1 RES1   0.0000
    71 H31      3.4322   2.0949  -0.5719   H         1 RES1   0.0000
    72 H32      4.5037   0.6828   1.0409   H         1 RES1   0.0000
    73 H33      3.7370   0.6612   3.2485   H         1 RES1   0.0000
    74 F1       7.1007   6.0256   1.6574   F         2 RES2   0.0000
    75 F2       6.5412   3.3187   0.0435   F         2 RES2   0.0000
    76 F3       8.3643   4.2463   0.9723   F         2 RES2   0.0000
    77 F4       6.5106   3.8807   2.2259   F         2 RES2   0.0000
    78 F5       5.3141   5.0462   0.7206   F         2 RES2   0.0000
    79 F6       7.1740   5.4358  -0.5174   F         2 RES2   0.0000
    80 P3       6.8634   4.6835   0.8641   P.3       2 RES2  -1.0000
@<TRIPOS>BOND
     1     1     2   ar
     2     2     3   ar
     3     3     4   ar
     4     4     5   ar
     5     5     6   ar
     6     6     1   ar
     7     7     8   ar
     8     8     6    1
     9     9     8   ar
    10    10     9   ar
    11    11    10   ar
    12    12     7   ar
    13    13    12    1
    14    14    13   ar
    15    15    14   ar
    16    16    15   ar
    17    17    16   ar
    18    18    36    3
    19    19    37    1
    20    20    37    1
    21    21    22   ar
    22    22    23   ar
    23    23    24   ar
    24    24    25   ar
    25    25    26   ar
    26    26    21   ar
    27    27    38    1
    28    28    38    1
    29    29    30   ar
    30    30    31   ar
    31    31    32   ar
    32    32    33   ar
    33    33    34   ar
    34    34    29   ar
    35    35    13   ar
    36    37    21    1
    37    38    29    1
    38    39     1    1
    39    40     7    1
    40    41     2    1
    41    42     3    1
    42    43     4    1
    43    44     5    1
    44    45     9    1
    45    46    10    1
    46    47    11    1
    47    48    14    1
    48    49    15    1
    49    50    16    1
    50    51    17    1
    51    52    19    1
    52    53    19    1
    53    54    19    1
    54    55    20    1
    55    56    20    1
    56    57    20    1
    57    58    22    1
    58    59    23    1
    59    60    24    1
    60    61    25    1
    61    62    26    1
    62    63    27    1
    63    64    27    1
    64    65    27    1
    65    66    28    1
    66    67    28    1
    67    68    28    1
    68    69    30    1
    69    70    31    1
    70    71    32    1
    71    72    33    1
    72    73    34    1
    73    11    12   ar
    74    17    35   ar
    75    18    40    1
    76    35    40    1
    77    37    40    1
    78    38    40    1
    79    39    40    1
    80    74    80    1
    81    75    80    1
    82    76    80    1
    83    77    80    1
    84    78    80    1
    85    79    80    1
@<TRIPOS>SUBSTRUCTURE
     1 RES1        1 GROUP             0 ****  ****    0  
     2 RES2       74 GROUP             0 ****  ****    0  
@<TRIPOS>CRYSIN
    9.3243   30.8976   11.4402   90.0000   91.0220   90.0000   231     1
