@<TRIPOS>MOLECULE
EWATAZ02
    82    87     2     0     0
SMALL
USER_CHARGES
****
Generated from the CSD

@<TRIPOS>ATOM
     1 C1       6.7994   1.1437   2.6952   C.ar      1 RES1   0.0000
     2 C2       6.7459  -0.1580   3.2113   C.ar      1 RES1   0.0000
     3 C3       5.6388  -0.5898   3.9041   C.ar      1 RES1   0.0000
     4 C4       4.5626   0.2524   4.0807   C.ar      1 RES1   0.0000
     5 C5       4.6223   1.5425   3.5967   C.ar      1 RES1   0.0000
     6 C6       5.7402   2.0501   2.9109   C.ar      1 RES1   0.0000
     7 C7       6.5188   3.9397   1.3832   C.ar      1 RES1   0.0000
     8 C8       5.7508   3.4580   2.4704   C.ar      1 RES1   0.0000
     9 C9       4.9127   4.3618   3.1540   C.ar      1 RES1   0.0000
    10 C10      4.7458   5.6676   2.7342   C.ar      1 RES1   0.0000
    11 C11      5.3796   6.1007   1.5988   C.ar      1 RES1   0.0000
    12 C12      6.2420   5.2423   0.9324   C.ar      1 RES1   0.0000
    13 C13      6.9083   5.6414  -0.3051   C.ar      1 RES1   0.0000
    14 C14      6.6551   6.8032  -1.0448   C.ar      1 RES1   0.0000
    15 C15      7.2795   7.0297  -2.2342   C.ar      1 RES1   0.0000
    16 C16      8.2083   6.1078  -2.7170   C.ar      1 RES1   0.0000
    17 C17      8.4715   5.0040  -1.9325   C.ar      1 RES1   0.0000
    18 C18      9.5514   2.5102  -0.4267   C.1       1 RES1   0.0000
    19 C19     10.8652   3.4589   2.4934   C.3       1 RES1   0.0000
    20 C20      8.7851   5.2598   3.1356   C.3       1 RES1   0.0000
    21 C21     10.3605   5.6825   0.7581   C.ar      1 RES1   0.0000
    22 C22      9.8734   6.9852   0.6801   C.ar      1 RES1   0.0000
    23 C23     10.4868   7.8965  -0.1594   C.ar      1 RES1   0.0000
    24 C24     11.5670   7.5279  -0.9256   C.ar      1 RES1   0.0000
    25 C25     12.0538   6.2642  -0.8567   C.ar      1 RES1   0.0000
    26 C26     11.4644   5.3417  -0.0241   C.ar      1 RES1   0.0000
    27 C27      6.4018   0.3246  -0.6618   C.3       1 RES1   0.0000
    28 C28      4.9301   2.7343  -1.0322   C.3       1 RES1   0.0000
    29 C29      7.1577   2.1121  -2.7216   C.ar      1 RES1   0.0000
    30 C30      6.6608   3.0377  -3.6414   C.ar      1 RES1   0.0000
    31 C31      7.1456   3.0682  -4.9237   C.ar      1 RES1   0.0000
    32 C32      8.1260   2.1965  -5.3217   C.ar      1 RES1   0.0000
    33 C33      8.6300   1.2805  -4.4362   C.ar      1 RES1   0.0000
    34 C34      8.1651   1.2266  -3.1425   C.ar      1 RES1   0.0000
    35 N1       7.8275   4.7513  -0.7719   N.ar      1 RES1   0.0000
    36 N2       8.8365   6.2982  -3.9075   N.pl3     1 RES1   0.0000
    37 O1      10.5058   2.0934  -0.8854   O.2       1 RES1   0.0000
    38 P1       9.5147   4.4089   1.7224   P.3       1 RES1   0.0000
    39 P2       6.6147   2.0927  -0.9964   P.3       1 RES1   0.0000
    40 S1       8.2655   1.5220   1.8117   S.3       1 RES1   0.0000
    41 Fe1      8.0771   3.1524   0.4197   Fe        1 RES1   1.0000
    42 H1       8.5163   6.8294  -4.4271   H         1 RES1   0.0000
    43 H2       7.4438  -0.7104   3.0737   H         1 RES1   0.0000
    44 H3       9.3919   5.7202  -4.0142   H         1 RES1   0.0000
    45 H4       5.5842  -1.3802   4.2321   H         1 RES1   0.0000
    46 H5       3.7815  -0.0062   4.5647   H         1 RES1   0.0000
    47 H6       3.8691   2.0781   3.7045   H         1 RES1   0.0000
    48 H7       4.4371   4.1064   3.9339   H         1 RES1   0.0000
    49 H8       4.1000   6.2219   3.2228   H         1 RES1   0.0000
    50 H9       5.2953   6.9011   1.3189   H         1 RES1   0.0000
    51 H10      6.0567   7.3684  -0.7111   H         1 RES1   0.0000
    52 H11      7.1297   7.8669  -2.7526   H         1 RES1   0.0000
    53 H12      9.1257   4.3276  -2.2021   H         1 RES1   0.0000
    54 H13     11.4482   4.1157   2.9017   H         1 RES1   0.0000
    55 H14     11.3624   3.0346   1.8236   H         1 RES1   0.0000
    56 H15     10.5715   2.8726   3.1884   H         1 RES1   0.0000
    57 H16      9.3574   5.7576   3.5898   H         1 RES1   0.0000
    58 H17      8.3215   4.6422   3.7275   H         1 RES1   0.0000
    59 H18      8.0842   5.9321   2.7985   H         1 RES1   0.0000
    60 H19      9.1255   7.2562   1.2157   H         1 RES1   0.0000
    61 H20     10.1471   8.6583  -0.0803   H         1 RES1   0.0000
    62 H21     11.9417   8.0102  -1.5254   H         1 RES1   0.0000
    63 H22     12.8134   6.0567  -1.3304   H         1 RES1   0.0000
    64 H23     11.8145   4.4958   0.0459   H         1 RES1   0.0000
    65 H24      7.2644  -0.0904  -0.7455   H         1 RES1   0.0000
    66 H25      5.7785  -0.0467  -1.3189   H         1 RES1   0.0000
    67 H26      5.9998   0.2804   0.1147   H         1 RES1   0.0000
    68 H27      4.6213   2.5797  -0.2409   H         1 RES1   0.0000
    69 H28      4.4321   2.2993  -1.7318   H         1 RES1   0.0000
    70 H29      4.9113   3.6079  -1.1698   H         1 RES1   0.0000
    71 H30      5.9380   3.6390  -3.3604   H         1 RES1   0.0000
    72 H31      6.8117   3.5611  -5.5166   H         1 RES1   0.0000
    73 H32      8.4128   2.3554  -6.0671   H         1 RES1   0.0000
    74 H33      9.1999   0.7633  -4.6450   H         1 RES1   0.0000
    75 H34      8.4801   0.5608  -2.5347   H         1 RES1   0.0000
    76 F1      12.8239   3.5026  -5.6497   F         2 RES2   0.0000
    77 F2      12.2299   4.1173  -3.5887   F         2 RES2   0.0000
    78 F3      12.0114   6.2399  -4.2986   F         2 RES2   0.0000
    79 F4      12.5721   5.5856  -6.3676   F         2 RES2   0.0000
    80 F5      13.9212   5.1632  -4.6289   F         2 RES2   0.0000
    81 F6      10.8812   4.5787  -5.3205   F         2 RES2   0.0000
    82 P3      12.3906   4.8622  -4.9704   P.3       2 RES2  -1.0000
@<TRIPOS>BOND
     1     1     2   ar
     2     2     3   ar
     3     3     4   ar
     4     4     5   ar
     5     5     6   ar
     6     6     1   ar
     7     7     8   ar
     8     8     6    1
     9     9     8   ar
    10    10     9   ar
    11    11    10   ar
    12    12     7   ar
    13    13    12    1
    14    14    13   ar
    15    15    14   ar
    16    16    15   ar
    17    17    16   ar
    18    18    37    3
    19    19    38    1
    20    20    38    1
    21    21    22   ar
    22    22    23   ar
    23    23    24   ar
    24    24    25   ar
    25    25    26   ar
    26    26    21   ar
    27    27    39    1
    28    28    39    1
    29    29    30   ar
    30    30    31   ar
    31    31    32   ar
    32    32    33   ar
    33    33    34   ar
    34    34    29   ar
    35    35    13   ar
    36    36    16    1
    37    38    21    1
    38    39    29    1
    39    40     1    1
    40    41     7    1
    41    42    36    1
    42    43     2    1
    43    44    36    1
    44    45     3    1
    45    46     4    1
    46    47     5    1
    47    48     9    1
    48    49    10    1
    49    50    11    1
    50    51    14    1
    51    52    15    1
    52    53    17    1
    53    54    19    1
    54    55    19    1
    55    56    19    1
    56    57    20    1
    57    58    20    1
    58    59    20    1
    59    60    22    1
    60    61    23    1
    61    62    24    1
    62    63    25    1
    63    64    26    1
    64    65    27    1
    65    66    27    1
    66    67    27    1
    67    68    28    1
    68    69    28    1
    69    70    28    1
    70    71    30    1
    71    72    31    1
    72    73    32    1
    73    74    33    1
    74    75    34    1
    75    11    12   ar
    76    17    35   ar
    77    18    41    1
    78    35    41    1
    79    38    41    1
    80    39    41    1
    81    40    41    1
    82    76    82    1
    83    77    82    1
    84    78    82    1
    85    79    82    1
    86    80    82    1
    87    81    82    1
@<TRIPOS>SUBSTRUCTURE
     1 RES1        1 GROUP             0 ****  ****    0  
     2 RES2       76 GROUP             0 ****  ****    0  
@<TRIPOS>CRYSIN
    9.4165   31.1560   11.4963   90.0000   93.9430   90.0000   231     1
