@<TRIPOS>MOLECULE
EWOYAT
    92   102     2     0     0
SMALL
USER_CHARGES
****
Generated from the CSD

@<TRIPOS>ATOM
     1 Fe1      6.4439   6.4439  15.1626   Fe        1 RES1   2.0000
     2 F1      10.3095  -1.7221  16.5952   F         1 RES1   0.0000
     3 F2      11.2242  -1.4750  18.5263   F         1 RES1   0.0000
     4 F3      12.4148  -2.0884  16.8560   F         1 RES1   0.0000
     5 N1       5.8929   5.0096  13.9193   N.ar      1 RES1   0.0000
     6 N2       7.7511   5.1626  15.5969   N.ar      1 RES1   0.0000
     7 N3       7.3860   7.4426  16.5943   N.ar      1 RES1   0.0000
     8 C1       4.8300   5.0168  13.1011   C.ar      1 RES1   0.0000
     9 H1       4.2924   5.7995  13.0567   H         1 RES1   0.0000
    10 C2       4.4829   3.9238  12.3166   C.ar      1 RES1   0.0000
    11 H2       3.7146   3.9574  11.7596   H         1 RES1   0.0000
    12 C3       5.2699   2.7874  12.3551   C.ar      1 RES1   0.0000
    13 H3       5.0587   2.0358  11.8134   H         1 RES1   0.0000
    14 C4       6.3810   2.7597  13.2024   C.ar      1 RES1   0.0000
    15 H4       6.9324   1.9875  13.2489   H         1 RES1   0.0000
    16 C5       6.6654   3.8744  13.9742   C.ar      1 RES1   0.0000
    17 C6       7.7825   3.9756  14.9364   C.ar      1 RES1   0.0000
    18 C7       8.7779   3.0368  15.2048   C.ar      1 RES1   0.0000
    19 H5       8.7838   2.2014  14.7520   H         1 RES1   0.0000
    20 C8       9.7673   3.3345  16.1442   C.ar      1 RES1   0.0000
    21 C9      10.8928   2.3897  16.4290   C.ar      1 RES1   0.0000
    22 C10     10.6397   1.0352  16.6049   C.ar      1 RES1   0.0000
    23 H6       9.7560   0.6977  16.5179   H         1 RES1   0.0000
    24 C11     11.6966   0.1711  16.9112   C.ar      1 RES1   0.0000
    25 C12     11.4002  -1.2593  17.2050   C.3       1 RES1   0.0000
    26 C13     12.9945   0.6459  17.0294   C.ar      1 RES1   0.0000
    27 H7      13.7073   0.0525  17.2364   H         1 RES1   0.0000
    28 C14     13.2391   2.0004  16.8408   C.ar      1 RES1   0.0000
    29 H8      14.1263   2.3345  16.9106   H         1 RES1   0.0000
    30 C15     12.1967   2.8705  16.5512   C.ar      1 RES1   0.0000
    31 H9      12.3719   3.7967  16.4357   H         1 RES1   0.0000
    32 C16      9.7082   4.5601  16.8250   C.ar      1 RES1   0.0000
    33 H10     10.3643   4.7794  17.4760   H         1 RES1   0.0000
    34 C17      8.6827   5.4482  16.5403   C.ar      1 RES1   0.0000
    35 C18      8.4320   6.7654  17.1583   C.ar      1 RES1   0.0000
    36 C19      9.1502   7.2727  18.2355   C.ar      1 RES1   0.0000
    37 H11      9.8653   6.7779  18.6176   H         1 RES1   0.0000
    38 C20      8.7984   8.5176  18.7410   C.ar      1 RES1   0.0000
    39 H12      9.2638   8.8805  19.4854   H         1 RES1   0.0000
    40 C21      7.7692   9.2213  18.1530   C.ar      1 RES1   0.0000
    41 H13      7.5283  10.0809  18.4769   H         1 RES1   0.0000
    42 C22      7.0907   8.6610  17.0867   C.ar      1 RES1   0.0000
    43 H14      6.3876   9.1559  16.6841   H         1 RES1   0.0000
    44 F1F     -1.7221  10.3095  13.7300   F         1 RES1   0.0000
    45 F2F     -1.4750  11.2242  11.7989   F         1 RES1   0.0000
    46 F3F     -2.0884  12.4148  13.4692   F         1 RES1   0.0000
    47 N1F      5.0096   5.8929  16.4059   N.ar      1 RES1   0.0000
    48 N2F      5.1626   7.7511  14.7283   N.ar      1 RES1   0.0000
    49 N3F      7.4426   7.3860  13.7309   N.ar      1 RES1   0.0000
    50 C1F      5.0168   4.8300  17.2241   C.ar      1 RES1   0.0000
    51 H1F      5.7995   4.2924  17.2685   H         1 RES1   0.0000
    52 C2F      3.9238   4.4829  18.0086   C.ar      1 RES1   0.0000
    53 H2F      3.9574   3.7146  18.5656   H         1 RES1   0.0000
    54 C3F      2.7874   5.2699  17.9701   C.ar      1 RES1   0.0000
    55 H3F      2.0358   5.0587  18.5118   H         1 RES1   0.0000
    56 C4F      2.7597   6.3810  17.1228   C.ar      1 RES1   0.0000
    57 H4F      1.9875   6.9324  17.0763   H         1 RES1   0.0000
    58 C5F      3.8744   6.6654  16.3510   C.ar      1 RES1   0.0000
    59 C6F      3.9756   7.7825  15.3888   C.ar      1 RES1   0.0000
    60 C7F      3.0368   8.7779  15.1204   C.ar      1 RES1   0.0000
    61 H5F      2.2014   8.7838  15.5732   H         1 RES1   0.0000
    62 C8F      3.3345   9.7673  14.1810   C.ar      1 RES1   0.0000
    63 C9F      2.3897  10.8928  13.8962   C.ar      1 RES1   0.0000
    64 C10F     1.0352  10.6397  13.7203   C.ar      1 RES1   0.0000
    65 H6F      0.6977   9.7560  13.8073   H         1 RES1   0.0000
    66 C11F     0.1711  11.6966  13.4140   C.ar      1 RES1   0.0000
    67 C12F    -1.2593  11.4002  13.1202   C.3       1 RES1   0.0000
    68 C13F     0.6459  12.9945  13.2958   C.ar      1 RES1   0.0000
    69 H7F      0.0525  13.7073  13.0888   H         1 RES1   0.0000
    70 C14F     2.0004  13.2391  13.4844   C.ar      1 RES1   0.0000
    71 H8F      2.3345  14.1263  13.4146   H         1 RES1   0.0000
    72 C15F     2.8705  12.1967  13.7740   C.ar      1 RES1   0.0000
    73 H9F      3.7967  12.3719  13.8895   H         1 RES1   0.0000
    74 C16F     4.5601   9.7082  13.5002   C.ar      1 RES1   0.0000
    75 H10F     4.7794  10.3643  12.8492   H         1 RES1   0.0000
    76 C17F     5.4482   8.6827  13.7849   C.ar      1 RES1   0.0000
    77 C18F     6.7654   8.4320  13.1669   C.ar      1 RES1   0.0000
    78 C19F     7.2727   9.1502  12.0897   C.ar      1 RES1   0.0000
    79 H11F     6.7779   9.8653  11.7076   H         1 RES1   0.0000
    80 C20F     8.5176   8.7984  11.5842   C.ar      1 RES1   0.0000
    81 H12F     8.8805   9.2638  10.8398   H         1 RES1   0.0000
    82 C21F     9.2213   7.7692  12.1722   C.ar      1 RES1   0.0000
    83 H13F    10.0809   7.5283  11.8483   H         1 RES1   0.0000
    84 C22F     8.6610   7.0907  13.2385   C.ar      1 RES1   0.0000
    85 H14F     9.1559   6.3876  13.6411   H         1 RES1   0.0000
    86 P1       5.7339   0.6640  17.0785   P.3       2 RES2  -1.0000
    87 F4       6.4918   1.9727  17.5962   F         2 RES2   0.0000
    88 F5       4.9891  -0.6580  16.6306   F         2 RES2   0.0000
    89 F6       5.9797  -0.0265  18.5138   F         2 RES2   0.0000
    90 F7       7.1402   0.0868  16.6261   F         2 RES2   0.0000
    91 F8       4.3516   1.2364  17.6432   F         2 RES2   0.0000
    92 F9       5.4880   1.3762  15.7176   F         2 RES2   0.0000
@<TRIPOS>BOND
     1     1     5    1
     2     2    25    1
     3     3    25    1
     4     4    25    1
     5     5     8   ar
     6     6     1    1
     7     7     1    1
     8     8     9    1
     9    10     8   ar
    10    11    10    1
    11    12    10   ar
    12    13    12    1
    13    14    12   ar
    14    15    14    1
    15    16     5   ar
    16    17     6   ar
    17    18    17   ar
    18    19    18    1
    19    20    18   ar
    20    21    20    1
    21    22    21   ar
    22    23    22    1
    23    24    22   ar
    24    25    24    1
    25    26    24   ar
    26    27    26    1
    27    28    26   ar
    28    29    28    1
    29    30    21   ar
    30    31    30    1
    31    32    20   ar
    32    33    32    1
    33    34     6   ar
    34    35     7   ar
    35    36    35   ar
    36    37    36    1
    37    38    36   ar
    38    39    38    1
    39    40    38   ar
    40    41    40    1
    41    42     7   ar
    42    43    42    1
    43    44    67    1
    44    45    67    1
    45    46    67    1
    46    47     1    1
    47    48     1    1
    48    49     1    1
    49    50    47   ar
    50    51    50    1
    51    52    50   ar
    52    53    52    1
    53    54    52   ar
    54    55    54    1
    55    56    54   ar
    56    57    56    1
    57    58    47   ar
    58    59    48   ar
    59    60    59   ar
    60    61    60    1
    61    62    60   ar
    62    63    62    1
    63    64    63   ar
    64    65    64    1
    65    66    64   ar
    66    67    66    1
    67    68    66   ar
    68    69    68    1
    69    70    68   ar
    70    71    70    1
    71    72    63   ar
    72    73    72    1
    73    74    62   ar
    74    75    74    1
    75    76    48   ar
    76    77    49   ar
    77    78    77   ar
    78    79    78    1
    79    80    78   ar
    80    81    80    1
    81    82    80   ar
    82    83    82    1
    83    84    49   ar
    84    85    84    1
    85    14    16   ar
    86    16    17    1
    87    28    30   ar
    88    32    34   ar
    89    34    35    1
    90    40    42   ar
    91    56    58   ar
    92    58    59    1
    93    70    72   ar
    94    74    76   ar
    95    76    77    1
    96    82    84   ar
    97    86    87    1
    98    88    86    1
    99    89    86    1
   100    90    86    1
   101    91    86    1
   102    92    86    1
@<TRIPOS>SUBSTRUCTURE
     1 RES1        1 GROUP             0 ****  ****    0  
     2 RES2       86 GROUP             0 ****  ****    0  
@<TRIPOS>CRYSIN
   12.0509   12.0509   30.3252   90.0000   90.0000   90.0000    96     1
