@<TRIPOS>MOLECULE
EWURUL
   101   114     1     0     0
SMALL
NO_CHARGES
****
Generated from the CSD

@<TRIPOS>ATOM
     1 Fe1      4.1911  -0.2177   3.1714   Fe        1 RES1   0.0000
     2 N1       3.8949   1.7423   3.1511   N.2       1 RES1   0.0000
     3 N2       6.1660   0.0701   3.0685   N.2       1 RES1   0.0000
     4 N3       4.4734  -2.1741   2.9679   N.2       1 RES1   0.0000
     5 N4       2.2707  -0.5063   3.5318   N.2       1 RES1   0.0000
     6 C1       2.6788   2.3961   3.1434   C.2       1 RES1   0.0000
     7 C2       4.8395   2.6771   2.7614   C.2       1 RES1   0.0000
     8 C3       6.7942   1.2884   3.2802   C.2       1 RES1   0.0000
     9 C4       7.1082  -0.9045   3.3176   C.2       1 RES1   0.0000
    10 C5       5.6849  -2.8231   2.7201   C.2       1 RES1   0.0000
    11 C6       3.4759  -3.1131   2.7627   C.2       1 RES1   0.0000
    12 C7       1.6388  -1.7320   3.6686   C.2       1 RES1   0.0000
    13 C8       1.3610   0.4698   3.9253   C.2       1 RES1   0.0000
    14 C9       2.8631   3.7268   2.6156   C.2       1 RES1   0.0000
    15 C10      4.1768   3.8807   2.3562   C.2       1 RES1   0.0000
    16 C11      8.1207   1.0472   3.8028   C.2       1 RES1   0.0000
    17 C12      8.3038  -0.2815   3.8312   C.2       1 RES1   0.0000
    18 C13      5.4225  -4.1518   2.2530   C.2       1 RES1   0.0000
    19 C14      4.0650  -4.3247   2.2324   C.2       1 RES1   0.0000
    20 C15      0.3426  -1.5180   4.2918   C.2       1 RES1   0.0000
    21 C16      0.1851  -0.2017   4.4828   C.2       1 RES1   0.0000
    22 C17      6.2170   2.5104   2.9808   C.2       1 RES1   0.0000
    23 C18      6.9117  -2.2549   3.0285   C.2       1 RES1   0.0000
    24 C19      2.1501  -2.9352   3.1756   C.2       1 RES1   0.0000
    25 C20      1.5063   1.8179   3.6440   C.2       1 RES1   0.0000
    26 C21      7.0624   3.7346   3.0337   C.ar      1 RES1   0.0000
    27 C22      6.9689   4.6186   4.0789   C.ar      1 RES1   0.0000
    28 C23      7.7340   5.7552   4.1718   C.ar      1 RES1   0.0000
    29 C24      8.6338   6.0209   3.1743   C.ar      1 RES1   0.0000
    30 C25      8.7786   5.1679   2.1085   C.ar      1 RES1   0.0000
    31 C26      7.9907   4.0242   2.0491   C.ar      1 RES1   0.0000
    32 C27      8.1322  -3.1274   3.0453   C.ar      1 RES1   0.0000
    33 C28      9.0665  -3.1264   2.0298   C.ar      1 RES1   0.0000
    34 C29     10.2380  -3.8649   2.1343   C.ar      1 RES1   0.0000
    35 C30     10.4506  -4.6268   3.2298   C.ar      1 RES1   0.0000
    36 C31      9.5431  -4.6566   4.2531   C.ar      1 RES1   0.0000
    37 C32      8.3874  -3.9026   4.1525   C.ar      1 RES1   0.0000
    38 C33      1.2727  -4.1456   3.1356   C.ar      1 RES1   0.0000
    39 C34      1.3050  -5.0985   4.1266   C.ar      1 RES1   0.0000
    40 C35      0.5703  -6.2627   4.0647   C.ar      1 RES1   0.0000
    41 C36     -0.2255  -6.4744   2.9472   C.ar      1 RES1   0.0000
    42 C37     -0.2998  -5.5476   1.9446   C.ar      1 RES1   0.0000
    43 C38      0.4269  -4.3817   2.0685   C.ar      1 RES1   0.0000
    44 C39      0.2954   2.6864   3.7486   C.ar      1 RES1   0.0000
    45 C40     -0.6683   2.6977   2.7498   C.ar      1 RES1   0.0000
    46 C41     -1.7981   3.4614   2.8285   C.ar      1 RES1   0.0000
    47 C42     -1.9954   4.2339   3.9460   C.ar      1 RES1   0.0000
    48 C43     -1.0779   4.2697   4.9551   C.ar      1 RES1   0.0000
    49 C44      0.0714   3.5072   4.8402   C.ar      1 RES1   0.0000
    50 C45      5.0313   0.7340   5.8467   C.2       1 RES1   0.0000
    51 H1       5.1327   1.6040   5.5319   H         1 RES1   0.0000
    52 C46      5.0621  -0.9974   7.1616   C.2       1 RES1   0.0000
    53 H2       5.1821  -1.5543   7.8984   H         1 RES1   0.0000
    54 C47      4.5332  -1.3380   5.9577   C.2       1 RES1   0.0000
    55 H3       4.2235  -2.1849   5.7293   H         1 RES1   0.0000
    56 C48      6.0269   1.1526   8.0907   C.3       1 RES1   0.0000
    57 H4       6.1337   2.0497   7.7630   H         1 RES1   0.0000
    58 H5       6.8876   0.7835   8.2985   H         1 RES1   0.0000
    59 H6       5.4838   1.1652   8.8817   H         1 RES1   0.0000
    60 C49      2.8447   0.3823   0.5962   C.2       1 RES1   0.0000
    61 H7       2.1516   0.8209   1.0349   H         1 RES1   0.0000
    62 C50      4.6410  -0.7013   0.2078   C.2       1 RES1   0.0000
    63 H8       5.4375  -1.1657   0.3316   H         1 RES1   0.0000
    64 C51      4.0733  -0.4547  -0.9962   C.2       1 RES1   0.0000
    65 H9       4.3974  -0.7025  -1.8311   H         1 RES1   0.0000
    66 C52      1.9736   0.7755  -1.6994   C.3       1 RES1   0.0000
    67 H10      1.2507   1.2029  -1.2362   H         1 RES1   0.0000
    68 H11      1.6307   0.0642  -2.2453   H         1 RES1   0.0000
    69 H12      2.4204   1.4186  -2.2556   H         1 RES1   0.0000
    70 N5       4.5255  -0.2545   5.1319   N.2       1 RES1   0.0000
    71 N6       5.3816   0.3384   7.0713   N.pl3     1 RES1   0.0000
    72 N7       3.8880  -0.1714   1.2078   N.2       1 RES1   0.0000
    73 N8       2.9213   0.2309  -0.7291   N.pl3     1 RES1   0.0000
    74 F1       6.1160   4.3523   5.0919   F         1 RES1   0.0000
    75 F2       7.6237   6.5888   5.2132   F         1 RES1   0.0000
    76 F3       9.3942   7.1266   3.2311   F         1 RES1   0.0000
    77 F4       9.6722   5.4223   1.1639   F         1 RES1   0.0000
    78 F5       8.1421   3.1983   1.0013   F         1 RES1   0.0000
    79 F6       8.8599  -2.3887   0.9304   F         1 RES1   0.0000
    80 F7      11.1455  -3.8242   1.1407   F         1 RES1   0.0000
    81 F8      11.5743  -5.3469   3.3382   F         1 RES1   0.0000
    82 F9       9.7666  -5.4060   5.3499   F         1 RES1   0.0000
    83 F10      7.5480  -3.8881   5.1861   F         1 RES1   0.0000
    84 F11      0.3570  -3.5009   1.0504   F         1 RES1   0.0000
    85 F12     -1.0537  -5.7996   0.8800   F         1 RES1   0.0000
    86 F13     -0.9433  -7.6183   2.8685   F         1 RES1   0.0000
    87 F14      0.6214  -7.1634   5.0364   F         1 RES1   0.0000
    88 F15      2.0930  -4.9091   5.1912   F         1 RES1   0.0000
    89 F16     -0.4487   1.9706   1.6375   F         1 RES1   0.0000
    90 F17     -2.6922   3.4654   1.8298   F         1 RES1   0.0000
    91 F18     -3.1102   4.9947   4.0531   F         1 RES1   0.0000
    92 F19     -1.2980   5.0267   6.0377   F         1 RES1   0.0000
    93 F20      0.9493   3.5265   5.8558   F         1 RES1   0.0000
    94 Br1      1.6028   5.0552   2.2227   Br        1 RES1   0.0000
    95 Br2      4.9032   5.3505   1.4384   Br        1 RES1   0.0000
    96 Br3      9.3483   2.2595   4.5185   Br        1 RES1   0.0000
    97 Br4      9.8553  -1.0437   4.5829   Br        1 RES1   0.0000
    98 Br5      6.6267  -5.4750   1.6874   Br        1 RES1   0.0000
    99 Br6      3.2780  -5.8963   1.5793   Br        1 RES1   0.0000
   100 Br7     -0.9247  -2.7764   4.8817   Br        1 RES1   0.0000
   101 Br8     -1.2632   0.5599   5.3911   Br        1 RES1   0.0000
@<TRIPOS>BOND
     1     1     2    1
     2     2     6    1
     3     3     1    1
     4     4     1    1
     5     5     1    1
     6     6    14    2
     7     7     2    1
     8     8     3    1
     9     9     3    2
    10    10     4    1
    11    11     4    1
    12    12     5    2
    13    13     5    1
    14    14    15    1
    15    15     7    2
    16    16     8    1
    17    17     9    1
    18    18    10    1
    19    19    11    1
    20    20    12    1
    21    21    13    1
    22    22     7    1
    23    23     9    1
    24    24    11    2
    25    25     6    1
    26    26    22    1
    27    27    26   ar
    28    28    27   ar
    29    29    28   ar
    30    30    29   ar
    31    31    26   ar
    32    32    23    1
    33    33    32   ar
    34    34    33   ar
    35    35    34   ar
    36    36    35   ar
    37    37    32   ar
    38    38    24    1
    39    39    38   ar
    40    40    39   ar
    41    41    40   ar
    42    42    41   ar
    43    43    38   ar
    44    44    25    1
    45    45    44   ar
    46    46    45   ar
    47    47    46   ar
    48    48    47   ar
    49    49    44   ar
    50    50    51    1
    51    52    53    1
    52    54    52    2
    53    55    54    1
    54    56    57    1
    55    58    56    1
    56    59    56    1
    57    60    61    1
    58    62    63    1
    59    64    62    2
    60    65    64    1
    61    66    67    1
    62    68    66    1
    63    69    66    1
    64    70     1    1
    65    71    50    1
    66    72     1    1
    67    73    60    1
    68    74    27    1
    69    75    28    1
    70    76    29    1
    71    77    30    1
    72    78    31    1
    73    79    33    1
    74    80    34    1
    75    81    35    1
    76    82    36    1
    77    83    37    1
    78    84    43    1
    79    85    42    1
    80    86    41    1
    81    87    40    1
    82    88    39    1
    83    89    45    1
    84    90    46    1
    85    91    47    1
    86    92    48    1
    87    93    49    1
    88    94    14    1
    89    95    15    1
    90    96    16    1
    91    97    17    1
    92    98    18    1
    93    99    19    1
    94   100    20    1
    95   101    21    1
    96     8    22    2
    97    10    23    2
    98    12    24    1
    99    13    25    2
   100    16    17    2
   101    18    19    2
   102    20    21    2
   103    30    31   ar
   104    36    37   ar
   105    42    43   ar
   106    48    49   ar
   107    50    70    2
   108    52    71    1
   109    54    70    1
   110    56    71    1
   111    60    72    2
   112    62    72    1
   113    64    73    1
   114    66    73    1
@<TRIPOS>SUBSTRUCTURE
     1 RES1        1 GROUP             0 ****  ****    0  
@<TRIPOS>CRYSIN
   14.4655   14.5702   15.1292  115.7720  106.4200   90.8250     2     1
