@<TRIPOS>MOLECULE
EXARAY03
    93   102     3     0     0
SMALL
USER_CHARGES
****
Generated from the CSD

@<TRIPOS>ATOM
     1 Fe1      0.0000   0.0000   0.0000   Fe        1 RES1   2.0000
     2 N1      -1.8199   0.6858   0.2774   N.2       1 RES1   0.0000
     3 N2      -2.4338   0.4119   1.4677   N.pl3     1 RES1   0.0000
     4 N3       0.3573   0.6499   1.8287   N.2       1 RES1   0.0000
     5 N4      -0.5156   0.3128   2.8277   N.pl3     1 RES1   0.0000
     6 N5      -0.5929  -1.7054   0.7810   N.2       1 RES1   0.0000
     7 N6      -1.3937  -1.6707   1.8909   N.pl3     1 RES1   0.0000
     8 C1      -1.7253  -0.3825   2.4566   C.3       1 RES1   0.0000
     9 H1      -2.3028  -0.5083   3.2634   H         1 RES1   0.0000
    10 C2      -3.6327   1.0355   1.5733   C.2       1 RES1   0.0000
    11 H2      -4.2293   0.9985   2.3109   H         1 RES1   0.0000
    12 C3      -3.8166   1.7352   0.3987   C.2       1 RES1   0.0000
    13 H3      -4.5644   2.2689   0.1604   H         1 RES1   0.0000
    14 C4      -2.6626   1.4917  -0.3727   C.2       1 RES1   0.0000
    15 H4      -2.5053   1.8515  -1.2373   H         1 RES1   0.0000
    16 C5      -0.1579   0.8703   4.0190   C.2       1 RES1   0.0000
    17 H5      -0.6181   0.7887   4.8460   H         1 RES1   0.0000
    18 C6       0.9892   1.5693   3.7897   C.2       1 RES1   0.0000
    19 H6       1.5010   2.0562   4.4254   H         1 RES1   0.0000
    20 C7       1.2597   1.4184   2.4174   C.2       1 RES1   0.0000
    21 H7       1.9955   1.8187   1.9705   H         1 RES1   0.0000
    22 C8      -1.7177  -2.9150   2.3091   C.2       1 RES1   0.0000
    23 H8      -2.2555  -3.1406   3.0588   H         1 RES1   0.0000
    24 C9      -1.1140  -3.7897   1.4361   C.2       1 RES1   0.0000
    25 H9      -1.1557  -4.7393   1.4582   H         1 RES1   0.0000
    26 C10     -0.4242  -2.9982   0.5070   C.2       1 RES1   0.0000
    27 H10      0.0911  -3.3363  -0.2160   H         1 RES1   0.0000
    28 N1A      1.8199  -0.6858  -0.2774   N.2       1 RES1   0.0000
    29 N2A      2.4338  -0.4119  -1.4677   N.pl3     1 RES1   0.0000
    30 N3A     -0.3573  -0.6499  -1.8287   N.2       1 RES1   0.0000
    31 N4A      0.5156  -0.3128  -2.8277   N.pl3     1 RES1   0.0000
    32 N5A      0.5929   1.7054  -0.7810   N.2       1 RES1   0.0000
    33 N6A      1.3937   1.6707  -1.8909   N.pl3     1 RES1   0.0000
    34 C1A      1.7253   0.3825  -2.4566   C.3       1 RES1   0.0000
    35 H1A      2.3028   0.5083  -3.2634   H         1 RES1   0.0000
    36 C2A      3.6327  -1.0355  -1.5733   C.2       1 RES1   0.0000
    37 H2A      4.2293  -0.9985  -2.3109   H         1 RES1   0.0000
    38 C3A      3.8166  -1.7352  -0.3987   C.2       1 RES1   0.0000
    39 H3A      4.5644  -2.2689  -0.1604   H         1 RES1   0.0000
    40 C4A      2.6626  -1.4917   0.3727   C.2       1 RES1   0.0000
    41 H4A      2.5053  -1.8515   1.2373   H         1 RES1   0.0000
    42 C5A      0.1579  -0.8703  -4.0190   C.2       1 RES1   0.0000
    43 H5A      0.6181  -0.7887  -4.8460   H         1 RES1   0.0000
    44 C6A     -0.9892  -1.5693  -3.7897   C.2       1 RES1   0.0000
    45 H6A     -1.5010  -2.0562  -4.4254   H         1 RES1   0.0000
    46 C7A     -1.2597  -1.4184  -2.4174   C.2       1 RES1   0.0000
    47 H7A     -1.9955  -1.8187  -1.9705   H         1 RES1   0.0000
    48 C8A      1.7177   2.9150  -2.3091   C.2       1 RES1   0.0000
    49 H8A      2.2555   3.1406  -3.0588   H         1 RES1   0.0000
    50 C9A      1.1140   3.7897  -1.4361   C.2       1 RES1   0.0000
    51 H9A      1.1557   4.7393  -1.4582   H         1 RES1   0.0000
    52 C10A     0.4242   2.9982  -0.5070   C.2       1 RES1   0.0000
    53 H10A    -0.0911   3.3363   0.2160   H         1 RES1   0.0000
    54 N7      -0.5643   4.8065  11.4306   N.1       2 RES2   0.0000
    55 C11     -0.2369   4.5134   7.9384   C.2       2 RES2   0.0000
    56 N8       3.1155   4.4360   9.0563   N.1       2 RES2   0.0000
    57 C12     -1.6748   4.5711   7.9957   C.2       2 RES2   0.0000
    58 H11     -2.1080   4.6507   8.8377   H         2 RES2   0.0000
    59 C13     -2.4200   4.5139   6.8638   C.2       2 RES2   0.0000
    60 H12     -3.3667   4.5565   6.9261   H         2 RES2   0.0000
    61 N9      -5.1526   4.1097   4.5532   N.1       2 RES2   0.0000
    62 N10     -1.5003   3.8300   2.1124   N.1       2 RES2   0.0000
    63 C14     -1.8044   4.3886   5.5718   C.2       2 RES2  -1.0000
    64 C15     -0.3678   4.3704   5.5131   C.2       2 RES2   0.0000
    65 H13      0.0644   4.3230   4.6692   H         2 RES2   0.0000
    66 C16      0.3838   4.4201   6.6494   C.2       2 RES2   0.0000
    67 H14      1.3313   4.3927   6.5857   H         2 RES2   0.0000
    68 C17      0.5329   4.5564   9.1053   C.2       2 RES2   0.0000
    69 C18     -0.0699   4.6864  10.3971   C.1       2 RES2   0.0000
    70 C19      1.9649   4.4903   9.0739   C.1       2 RES2   0.0000
    71 C20     -2.5802   4.2229   4.4188   C.2       2 RES2   0.0000
    72 C21     -4.0052   4.1705   4.4882   C.1       2 RES2   0.0000
    73 C22     -1.9844   4.0161   3.1364   C.1       2 RES2   0.0000
    74 N11     -0.0845   7.4715   3.5102   N.1       3 RES3   0.0000
    75 N12     -3.8481   7.5011   5.7380   N.1       3 RES3   0.0000
    76 C23     -0.4958   7.5302   6.9937   C.2       3 RES3   0.0000
    77 C24     -1.1096   7.6411   8.2762   C.2       3 RES3   0.0000
    78 H15     -2.0570   7.6790   8.3385   H         3 RES3   0.0000
    79 C25      0.9364   7.4575   6.9469   C.2       3 RES3   0.0000
    80 H16      1.3700   7.3701   6.1062   H         3 RES3   0.0000
    81 C26     -1.2664   7.4684   5.8026   C.2       3 RES3   0.0000
    82 C27     -2.6959   7.4945   5.7944   C.1       3 RES3   0.0000
    83 C28     -0.6288   7.4590   4.5321   C.1       3 RES3   0.0000
    84 N11A     0.6663   7.6808  12.8559   N.1       3 RES3   0.0000
    85 N12A     4.4299   7.6513  10.6281   N.1       3 RES3   0.0000
    86 C23A     1.0776   7.6221   9.3724   C.2       3 RES3   0.0000
    87 C24A     1.6914   7.5113   8.0899   C.2       3 RES3   0.0000
    88 H15A     2.6388   7.4733   8.0276   H         3 RES3   0.0000
    89 C25A    -0.3546   7.6949   9.4192   C.2       3 RES3   0.0000
    90 H16A    -0.7882   7.7823  10.2599   H         3 RES3   0.0000
    91 C26A     1.8482   7.6839  10.5635   C.2       3 RES3   0.0000
    92 C27A     3.2777   7.6579  10.5717   C.1       3 RES3   0.0000
    93 C28A     1.2106   7.6934  11.8340   C.1       3 RES3   0.0000
@<TRIPOS>BOND
     1     1     2    1
     2     2     3    1
     3     3     8    1
     4     4     1    1
     5     5     4    1
     6     6     1    1
     7     7     6    1
     8     8     5    1
     9     9     8    1
    10    10     3    1
    11    11    10    1
    12    12    10    2
    13    13    12    1
    14    14     2    2
    15    15    14    1
    16    16     5    1
    17    17    16    1
    18    18    16    2
    19    19    18    1
    20    20     4    2
    21    21    20    1
    22    22     7    1
    23    23    22    1
    24    24    22    2
    25    25    24    1
    26    26     6    2
    27    27    26    1
    28    28     1    1
    29    29    28    1
    30    30     1    1
    31    31    30    1
    32    32     1    1
    33    33    32    1
    34    34    29    1
    35    35    34    1
    36    36    29    1
    37    37    36    1
    38    38    36    2
    39    39    38    1
    40    40    28    2
    41    41    40    1
    42    42    31    1
    43    43    42    1
    44    44    42    2
    45    45    44    1
    46    46    30    2
    47    47    46    1
    48    48    33    1
    49    49    48    1
    50    50    48    2
    51    51    50    1
    52    52    32    2
    53    53    52    1
    54     7     8    1
    55    12    14    1
    56    18    20    1
    57    24    26    1
    58    31    34    1
    59    33    34    1
    60    38    40    1
    61    44    46    1
    62    50    52    1
    63    54    69    3
    64    55    57    1
    65    56    70    3
    66    57    58    1
    67    59    57    2
    68    60    59    1
    69    61    72    3
    70    62    73    3
    71    63    59    1
    72    64    63    1
    73    65    64    1
    74    66    55    1
    75    67    66    1
    76    68    55    2
    77    69    68    1
    78    70    68    1
    79    71    63    2
    80    72    71    1
    81    73    71    1
    82    64    66    2
    83    74    83    3
    84    75    82    3
    85    76    77    1
    86    77    78    1
    87    79    76    1
    88    80    79    1
    89    81    76    2
    90    82    81    1
    91    83    81    1
    92    84    93    3
    93    85    92    3
    94    86    87    1
    95    87    79    2
    96    88    87    1
    97    89    77    2
    98    90    89    1
    99    91    86    2
   100    92    91    1
   101    93    91    1
   102    86    89    1
@<TRIPOS>SUBSTRUCTURE
     1 RES1        1 GROUP             0 ****  ****    0  
     2 RES2       54 GROUP             0 ****  ****    0  
     3 RES3       74 GROUP             0 ****  ****    0  
@<TRIPOS>CRYSIN
    8.1253   10.0214   16.7470  100.9770   91.0480  111.1670     2     1
