@<TRIPOS>MOLECULE
EXARAY02
    93   102     3     0     0
SMALL
USER_CHARGES
****
Generated from the CSD

@<TRIPOS>ATOM
     1 Fe1      0.0000   0.0000   0.0000   Fe        1 RES1   2.0000
     2 N1      -1.8960   0.7084   0.3330   N.2       1 RES1   0.0000
     3 N2      -2.4684   0.4177   1.5376   N.pl3     1 RES1   0.0000
     4 N3       0.3426   0.6159   1.9322   N.2       1 RES1   0.0000
     5 N4      -0.5549   0.2619   2.8924   N.pl3     1 RES1   0.0000
     6 N5      -0.6649  -1.7539   0.8095   N.2       1 RES1   0.0000
     7 N6      -1.4674  -1.6887   1.9086   N.pl3     1 RES1   0.0000
     8 C1      -1.7619  -0.3998   2.4833   C.3       1 RES1   0.0000
     9 H1      -2.3302  -0.5299   3.2708   H         1 RES1   0.0000
    10 C2      -3.6162   1.0812   1.7039   C.2       1 RES1   0.0000
    11 H2      -4.1708   1.0511   2.4506   H         1 RES1   0.0000
    12 C3      -3.8192   1.8106   0.5697   C.2       1 RES1   0.0000
    13 H3      -4.5389   2.3679   0.3813   H         1 RES1   0.0000
    14 C4      -2.7234   1.5475  -0.2464   C.2       1 RES1   0.0000
    15 H4      -2.5933   1.9167  -1.0897   H         1 RES1   0.0000
    16 C5      -0.2064   0.7601   4.0977   C.2       1 RES1   0.0000
    17 H5      -0.6693   0.6532   4.8963   H         1 RES1   0.0000
    18 C6       0.9415   1.4432   3.9192   C.2       1 RES1   0.0000
    19 H6       1.4336   1.8912   4.5692   H         1 RES1   0.0000
    20 C7       1.2385   1.3399   2.5755   C.2       1 RES1   0.0000
    21 H7       1.9794   1.7333   2.1729   H         1 RES1   0.0000
    22 C8      -1.8549  -2.9097   2.3009   C.2       1 RES1   0.0000
    23 H8      -2.3989  -3.1142   3.0275   H         1 RES1   0.0000
    24 C9      -1.2986  -3.7851   1.4332   C.2       1 RES1   0.0000
    25 H9      -1.3935  -4.7096   1.4414   H         1 RES1   0.0000
    26 C10     -0.5642  -3.0367   0.5329   C.2       1 RES1   0.0000
    27 H10     -0.0682  -3.3905  -0.1693   H         1 RES1   0.0000
    28 N1A      1.8960  -0.7084  -0.3330   N.2       1 RES1   0.0000
    29 N2A      2.4684  -0.4177  -1.5376   N.pl3     1 RES1   0.0000
    30 N3A     -0.3426  -0.6159  -1.9322   N.2       1 RES1   0.0000
    31 N4A      0.5549  -0.2619  -2.8924   N.pl3     1 RES1   0.0000
    32 N5A      0.6649   1.7539  -0.8095   N.2       1 RES1   0.0000
    33 N6A      1.4674   1.6887  -1.9086   N.pl3     1 RES1   0.0000
    34 C1A      1.7619   0.3998  -2.4833   C.3       1 RES1   0.0000
    35 H1A      2.3302   0.5299  -3.2708   H         1 RES1   0.0000
    36 C2A      3.6162  -1.0812  -1.7039   C.2       1 RES1   0.0000
    37 H2A      4.1708  -1.0511  -2.4506   H         1 RES1   0.0000
    38 C3A      3.8192  -1.8106  -0.5697   C.2       1 RES1   0.0000
    39 H3A      4.5389  -2.3679  -0.3813   H         1 RES1   0.0000
    40 C4A      2.7234  -1.5475   0.2464   C.2       1 RES1   0.0000
    41 H4A      2.5933  -1.9167   1.0897   H         1 RES1   0.0000
    42 C5A      0.2064  -0.7601  -4.0977   C.2       1 RES1   0.0000
    43 H5A      0.6693  -0.6532  -4.8963   H         1 RES1   0.0000
    44 C6A     -0.9415  -1.4432  -3.9192   C.2       1 RES1   0.0000
    45 H6A     -1.4336  -1.8912  -4.5692   H         1 RES1   0.0000
    46 C7A     -1.2385  -1.3399  -2.5755   C.2       1 RES1   0.0000
    47 H7A     -1.9794  -1.7333  -2.1729   H         1 RES1   0.0000
    48 C8A      1.8549   2.9097  -2.3009   C.2       1 RES1   0.0000
    49 H8A      2.3989   3.1142  -3.0275   H         1 RES1   0.0000
    50 C9A      1.2986   3.7851  -1.4332   C.2       1 RES1   0.0000
    51 H9A      1.3935   4.7096  -1.4414   H         1 RES1   0.0000
    52 C10A     0.5642   3.0367  -0.5329   C.2       1 RES1   0.0000
    53 H10A     0.0682   3.3905   0.1693   H         1 RES1   0.0000
    54 N7      -0.6194   4.5740  11.3220   N.1       2 RES2   0.0000
    55 C11     -0.2603   4.4106   7.8535   C.2       2 RES2   0.0000
    56 N8       3.0535   4.3015   8.9938   N.1       2 RES2   0.0000
    57 C12     -1.6820   4.4314   7.8855   C.2       2 RES2   0.0000
    58 H11     -2.1172   4.4651   8.7062   H         2 RES2   0.0000
    59 C13     -2.4190   4.4038   6.7452   C.2       2 RES2   0.0000
    60 H12     -3.3476   4.4169   6.7947   H         2 RES2   0.0000
    61 N9      -5.0848   4.0668   4.3424   N.1       2 RES2   0.0000
    62 N10     -1.4042   4.1391   2.0354   N.1       2 RES2   0.0000
    63 C14     -1.7799   4.3556   5.4712   C.2       2 RES2   0.0000
    64 C15     -0.3669   4.3729   5.4420   C.2       2 RES2   0.0000
    65 H13      0.0676   4.3766   4.6202   H         2 RES2   0.0000
    66 C16      0.3741   4.3844   6.5777   C.2       2 RES2   0.0000
    67 H14      1.3017   4.3757   6.5235   H         2 RES2   0.0000
    68 C17      0.4967   4.4159   9.0252   C.2       2 RES2   0.0000
    69 C18     -0.1176   4.4915  10.3008   C.1       2 RES2   0.0000
    70 C19      1.9145   4.3599   9.0047   C.1       2 RES2   0.0000
    71 C20     -2.5430   4.2545   4.2992   C.2       2 RES2  -1.0000
    72 C21     -3.9573   4.1579   4.3256   C.1       2 RES2   0.0000
    73 C22     -1.9140   4.1836   3.0362   C.1       2 RES2   0.0000
    74 N11     -0.1761   7.7132   3.5702   N.1       3 RES3   0.0000
    75 N12     -3.8507   7.5723   5.8164   N.1       3 RES3   0.0000
    76 C23     -0.5154   7.5675   7.0351   C.2       3 RES3   0.0000
    77 C24     -1.1203   7.6075   8.3229   C.2       3 RES3   0.0000
    78 H15     -2.0474   7.6306   8.3923   H         3 RES3   0.0000
    79 C25      0.9032   7.5209   6.9896   C.2       3 RES3   0.0000
    80 H16      1.3276   7.4857   6.1619   H         3 RES3   0.0000
    81 C26     -1.2963   7.5624   5.8616   C.2       3 RES3   0.0000
    82 C27     -2.7059   7.5692   5.8641   C.1       3 RES3   0.0000
    83 C28     -0.6811   7.6271   4.5876   C.1       3 RES3   0.0000
    84 N11A     0.7127   7.4202  12.8658   N.1       3 RES3   0.0000
    85 N12A     4.3873   7.5611  10.6197   N.1       3 RES3   0.0000
    86 C23A     1.0520   7.5659   9.4009   C.2       3 RES3   0.0000
    87 C24A     1.6569   7.5259   8.1132   C.2       3 RES3   0.0000
    88 H15A     2.5839   7.5028   8.0438   H         3 RES3   0.0000
    89 C25A    -0.3667   7.6125   9.4465   C.2       3 RES3   0.0000
    90 H16A    -0.7910   7.6477  10.2742   H         3 RES3   0.0000
    91 C26A     1.8329   7.5710  10.5745   C.2       3 RES3   0.0000
    92 C27A     3.2425   7.5642  10.5720   C.1       3 RES3   0.0000
    93 C28A     1.2177   7.5063  11.8484   C.1       3 RES3   0.0000
@<TRIPOS>BOND
     1     1     2    1
     2     2     3    1
     3     3     8    1
     4     4     1    1
     5     5     4    1
     6     6     1    1
     7     7     6    1
     8     8     5    1
     9     9     8    1
    10    10     3    1
    11    11    10    1
    12    12    10    2
    13    13    12    1
    14    14     2    2
    15    15    14    1
    16    16     5    1
    17    17    16    1
    18    18    16    2
    19    19    18    1
    20    20     4    2
    21    21    20    1
    22    22     7    1
    23    23    22    1
    24    24    22    2
    25    25    24    1
    26    26     6    2
    27    27    26    1
    28    28     1    1
    29    29    28    1
    30    30     1    1
    31    31    30    1
    32    32     1    1
    33    33    32    1
    34    34    29    1
    35    35    34    1
    36    36    29    1
    37    37    36    1
    38    38    36    2
    39    39    38    1
    40    40    28    2
    41    41    40    1
    42    42    31    1
    43    43    42    1
    44    44    42    2
    45    45    44    1
    46    46    30    2
    47    47    46    1
    48    48    33    1
    49    49    48    1
    50    50    48    2
    51    51    50    1
    52    52    32    2
    53    53    52    1
    54     7     8    1
    55    12    14    1
    56    18    20    1
    57    24    26    1
    58    31    34    1
    59    33    34    1
    60    38    40    1
    61    44    46    1
    62    50    52    1
    63    54    69    3
    64    55    57    1
    65    56    70    3
    66    57    58    1
    67    59    57    2
    68    60    59    1
    69    61    72    3
    70    62    73    3
    71    63    59    1
    72    64    63    1
    73    65    64    1
    74    66    55    1
    75    67    66    1
    76    68    55    2
    77    69    68    1
    78    70    68    1
    79    71    63    2
    80    72    71    1
    81    73    71    1
    82    64    66    2
    83    74    83    3
    84    75    82    3
    85    76    77    1
    86    77    78    1
    87    79    76    1
    88    80    79    1
    89    81    76    2
    90    82    81    1
    91    83    81    1
    92    84    93    3
    93    85    92    3
    94    86    87    1
    95    87    79    2
    96    88    87    1
    97    89    77    2
    98    90    89    1
    99    91    86    2
   100    92    91    1
   101    93    91    1
   102    86    89    1
@<TRIPOS>SUBSTRUCTURE
     1 RES1        1 GROUP             0 ****  ****    0  
     2 RES2       54 GROUP             0 ****  ****    0  
     3 RES3       74 GROUP             0 ****  ****    0  
@<TRIPOS>CRYSIN
    8.1933   10.2948   16.9627  102.7260   91.6310  110.3910     2     1
