@<TRIPOS>MOLECULE
EXARAY
    93   102     3     0     0
SMALL
USER_CHARGES
****
Generated from the CSD

@<TRIPOS>ATOM
     1 Fe1      0.0000   0.0000   0.0000   Fe        1 RES1   2.0000
     2 N1      -1.8127   0.6936   0.2880   N.2       1 RES1   0.0000
     3 N2      -2.4175   0.4232   1.4777   N.pl3     1 RES1   0.0000
     4 N3       0.3714   0.6297   1.8299   N.2       1 RES1   0.0000
     5 N4      -0.5017   0.3063   2.8233   N.pl3     1 RES1   0.0000
     6 N5      -0.6087  -1.6974   0.7743   N.2       1 RES1   0.0000
     7 N6      -1.3988  -1.6605   1.8806   N.pl3     1 RES1   0.0000
     8 C1      -1.7133  -0.3746   2.4518   C.3       1 RES1   0.0000
     9 H1      -2.2767  -0.4972   3.2441   H         1 RES1   0.0000
    10 C2      -3.5977   1.0592   1.5943   C.2       1 RES1   0.0000
    11 H2      -4.1756   1.0296   2.3224   H         1 RES1   0.0000
    12 C3      -3.7817   1.7590   0.4297   C.2       1 RES1   0.0000
    13 H3      -4.5104   2.2922   0.2043   H         1 RES1   0.0000
    14 C4      -2.6462   1.5056  -0.3514   C.2       1 RES1   0.0000
    15 H4      -2.4974   1.8572  -1.1996   H         1 RES1   0.0000
    16 C5      -0.1313   0.8433   4.0073   C.2       1 RES1   0.0000
    17 H5      -0.5773   0.7606   4.8196   H         1 RES1   0.0000
    18 C6       1.0228   1.5294   3.7788   C.2       1 RES1   0.0000
    19 H6       1.5286   2.0007   4.4012   H         1 RES1   0.0000
    20 C7       1.2880   1.3769   2.4183   C.2       1 RES1   0.0000
    21 H7       2.0177   1.7528   1.9808   H         1 RES1   0.0000
    22 C8      -1.7425  -2.8991   2.2920   C.2       1 RES1   0.0000
    23 H8      -2.2725  -3.1179   3.0251   H         1 RES1   0.0000
    24 C9      -1.1557  -3.7676   1.4166   C.2       1 RES1   0.0000
    25 H9      -1.2081  -4.6963   1.4333   H         1 RES1   0.0000
    26 C10     -0.4619  -2.9883   0.4937   C.2       1 RES1   0.0000
    27 H10      0.0346  -3.3235  -0.2174   H         1 RES1   0.0000
    28 N1A      1.8127  -0.6936  -0.2880   N.2       1 RES1   0.0000
    29 N2A      2.4175  -0.4232  -1.4777   N.pl3     1 RES1   0.0000
    30 N3A     -0.3714  -0.6297  -1.8299   N.2       1 RES1   0.0000
    31 N4A      0.5017  -0.3063  -2.8233   N.pl3     1 RES1   0.0000
    32 N5A      0.6087   1.6974  -0.7743   N.2       1 RES1   0.0000
    33 N6A      1.3988   1.6605  -1.8806   N.pl3     1 RES1   0.0000
    34 C1A      1.7133   0.3746  -2.4518   C.3       1 RES1   0.0000
    35 H1A      2.2767   0.4972  -3.2441   H         1 RES1   0.0000
    36 C2A      3.5977  -1.0592  -1.5943   C.2       1 RES1   0.0000
    37 H2A      4.1756  -1.0296  -2.3224   H         1 RES1   0.0000
    38 C3A      3.7817  -1.7590  -0.4297   C.2       1 RES1   0.0000
    39 H3A      4.5104  -2.2922  -0.2043   H         1 RES1   0.0000
    40 C4A      2.6462  -1.5056   0.3514   C.2       1 RES1   0.0000
    41 H4A      2.4974  -1.8572   1.1996   H         1 RES1   0.0000
    42 C5A      0.1313  -0.8433  -4.0073   C.2       1 RES1   0.0000
    43 H5A      0.5773  -0.7606  -4.8196   H         1 RES1   0.0000
    44 C6A     -1.0228  -1.5294  -3.7788   C.2       1 RES1   0.0000
    45 H6A     -1.5286  -2.0007  -4.4012   H         1 RES1   0.0000
    46 C7A     -1.2880  -1.3769  -2.4183   C.2       1 RES1   0.0000
    47 H7A     -2.0177  -1.7528  -1.9808   H         1 RES1   0.0000
    48 C8A      1.7425   2.8991  -2.2920   C.2       1 RES1   0.0000
    49 H8A      2.2725   3.1179  -3.0251   H         1 RES1   0.0000
    50 C9A      1.1557   3.7676  -1.4166   C.2       1 RES1   0.0000
    51 H9A      1.2081   4.6963  -1.4333   H         1 RES1   0.0000
    52 C10A     0.4619   2.9883  -0.4937   C.2       1 RES1   0.0000
    53 H10A    -0.0346   3.3235   0.2174   H         1 RES1   0.0000
    54 N7      -0.5564   4.7246  11.3684   N.1       2 RES2   0.0000
    55 C11     -0.2246   4.4824   7.8945   C.2       2 RES2   0.0000
    56 N8       3.1025   4.3790   9.0184   N.1       2 RES2   0.0000
    57 C12     -1.6566   4.5315   7.9440   C.2       2 RES2   0.0000
    58 H11     -2.0824   4.5945   8.7681   H         2 RES2   0.0000
    59 C13     -2.3993   4.4874   6.8159   C.2       2 RES2   0.0000
    60 H12     -3.3270   4.5223   6.8755   H         2 RES2   0.0000
    61 N9      -5.1103   4.1175   4.4798   N.1       2 RES2   0.0000
    62 N10     -1.4584   3.9609   2.0862   N.1       2 RES2   0.0000
    63 C14     -1.7792   4.3880   5.5284   C.2       2 RES2   0.0000
    64 C15     -0.3527   4.3751   5.4764   C.2       2 RES2   0.0000
    65 H13      0.0733   4.3452   4.6496   H         2 RES2   0.0000
    66 C16      0.3925   4.4062   6.6078   C.2       2 RES2   0.0000
    67 H14      1.3204   4.3778   6.5454   H         2 RES2   0.0000
    68 C17      0.5403   4.5078   9.0596   C.2       2 RES2   0.0000
    69 C18     -0.0634   4.6210  10.3409   C.1       2 RES2   0.0000
    70 C19      1.9617   4.4368   9.0307   C.1       2 RES2   0.0000
    71 C20     -2.5534   4.2502   4.3732   C.2       2 RES2  -1.0000
    72 C21     -3.9709   4.1853   4.4293   C.1       2 RES2   0.0000
    73 C22     -1.9514   4.0980   3.0991   C.1       2 RES2   0.0000
    74 N11     -0.0797   7.5650   3.5193   N.1       3 RES3   0.0000
    75 N12     -3.8022   7.5523   5.7413   N.1       3 RES3   0.0000
    76 C23     -0.4650   7.5506   6.9868   C.2       3 RES3   0.0000
    77 C24     -1.0703   7.6416   8.2711   C.2       3 RES3   0.0000
    78 H15     -1.9970   7.6794   8.3366   H         3 RES3   0.0000
    79 C25      0.9622   7.4816   6.9386   C.2       3 RES3   0.0000
    80 H16      1.3865   7.4126   6.1139   H         3 RES3   0.0000
    81 C26     -1.2350   7.5098   5.8064   C.2       3 RES3   0.0000
    82 C27     -2.6576   7.5424   5.7984   C.1       3 RES3   0.0000
    83 C28     -0.6106   7.5268   4.5344   C.1       3 RES3   0.0000
    84 N11A     0.7231   7.5917  12.8238   N.1       3 RES3   0.0000
    85 N12A     4.4456   7.6044  10.6017   N.1       3 RES3   0.0000
    86 C23A     1.1085   7.6060   9.3562   C.2       3 RES3   0.0000
    87 C24A     1.7138   7.5150   8.0720   C.2       3 RES3   0.0000
    88 H15A     2.6405   7.4772   8.0065   H         3 RES3   0.0000
    89 C25A    -0.3188   7.6750   9.4045   C.2       3 RES3   0.0000
    90 H16A    -0.7430   7.7440  10.2291   H         3 RES3   0.0000
    91 C26A     1.8785   7.6468  10.5367   C.2       3 RES3   0.0000
    92 C27A     3.3011   7.6143  10.5447   C.1       3 RES3   0.0000
    93 C28A     1.2540   7.6298  11.8087   C.1       3 RES3   0.0000
@<TRIPOS>BOND
     1     1     2    1
     2     2     3    1
     3     3     8    1
     4     4     1    1
     5     5     4    1
     6     6     1    1
     7     7     6    1
     8     8     5    1
     9     9     8    1
    10    10     3    1
    11    11    10    1
    12    12    10    2
    13    13    12    1
    14    14     2    2
    15    15    14    1
    16    16     5    1
    17    17    16    1
    18    18    16    2
    19    19    18    1
    20    20     4    2
    21    21    20    1
    22    22     7    1
    23    23    22    1
    24    24    22    2
    25    25    24    1
    26    26     6    2
    27    27    26    1
    28    28     1    1
    29    29    28    1
    30    30     1    1
    31    31    30    1
    32    32     1    1
    33    33    32    1
    34    34    29    1
    35    35    34    1
    36    36    29    1
    37    37    36    1
    38    38    36    2
    39    39    38    1
    40    40    28    2
    41    41    40    1
    42    42    31    1
    43    43    42    1
    44    44    42    2
    45    45    44    1
    46    46    30    2
    47    47    46    1
    48    48    33    1
    49    49    48    1
    50    50    48    2
    51    51    50    1
    52    52    32    2
    53    53    52    1
    54     7     8    1
    55    12    14    1
    56    18    20    1
    57    24    26    1
    58    31    34    1
    59    33    34    1
    60    38    40    1
    61    44    46    1
    62    50    52    1
    63    54    69    3
    64    55    57    1
    65    56    70    3
    66    57    58    1
    67    59    57    2
    68    60    59    1
    69    61    72    3
    70    62    73    3
    71    63    59    1
    72    64    63    1
    73    65    64    1
    74    66    55    1
    75    67    66    1
    76    68    55    2
    77    69    68    1
    78    70    68    1
    79    71    63    2
    80    72    71    1
    81    73    71    1
    82    64    66    2
    83    74    83    3
    84    75    82    3
    85    76    77    1
    86    77    78    1
    87    79    76    1
    88    80    79    1
    89    81    76    2
    90    82    81    1
    91    83    81    1
    92    84    93    3
    93    85    92    3
    94    86    87    1
    95    87    79    2
    96    88    87    1
    97    89    77    2
    98    90    89    1
    99    91    86    2
   100    92    91    1
   101    93    91    1
   102    86    89    1
@<TRIPOS>SUBSTRUCTURE
     1 RES1        1 GROUP             0 ****  ****    0  
     2 RES2       54 GROUP             0 ****  ****    0  
     3 RES3       74 GROUP             0 ****  ****    0  
@<TRIPOS>CRYSIN
    8.1625   10.1192   16.7712  101.6870   91.0460  110.8790     2     1
