@<TRIPOS>MOLECULE
EXARAY01
    93   102     3     0     0
SMALL
USER_CHARGES
****
Generated from the CSD

@<TRIPOS>ATOM
     1 Fe1      0.0000   0.0000   0.0000   Fe        1 RES1   2.0000
     2 N1      -1.8279   0.7017   0.3015   N.2       1 RES1   0.0000
     3 N2      -2.4236   0.4301   1.4966   N.pl3     1 RES1   0.0000
     4 N3       0.3694   0.6219   1.8515   N.2       1 RES1   0.0000
     5 N4      -0.5094   0.2940   2.8407   N.pl3     1 RES1   0.0000
     6 N5      -0.6245  -1.7094   0.7767   N.2       1 RES1   0.0000
     7 N6      -1.4172  -1.6645   1.8857   N.pl3     1 RES1   0.0000
     8 C1      -1.7227  -0.3757   2.4601   C.3       1 RES1   0.0000
     9 H1      -2.2869  -0.4990   3.2521   H         1 RES1   0.0000
    10 C2      -3.5925   1.0803   1.6298   C.2       1 RES1   0.0000
    11 H2      -4.1612   1.0572   2.3641   H         1 RES1   0.0000
    12 C3      -3.7793   1.7825   0.4733   C.2       1 RES1   0.0000
    13 H3      -4.5062   2.3207   0.2556   H         1 RES1   0.0000
    14 C4      -2.6518   1.5242  -0.3188   C.2       1 RES1   0.0000
    15 H4      -2.5053   1.8838  -1.1649   H         1 RES1   0.0000
    16 C5      -0.1361   0.8247   4.0281   C.2       1 RES1   0.0000
    17 H5      -0.5843   0.7421   4.8381   H         1 RES1   0.0000
    18 C6       1.0124   1.4967   3.8100   C.2       1 RES1   0.0000
    19 H6       1.5174   1.9611   4.4383   H         1 RES1   0.0000
    20 C7       1.2856   1.3554   2.4546   C.2       1 RES1   0.0000
    21 H7       2.0219   1.7303   2.0266   H         1 RES1   0.0000
    22 C8      -1.7739  -2.8950   2.2896   C.2       1 RES1   0.0000
    23 H8      -2.3048  -3.1107   3.0211   H         1 RES1   0.0000
    24 C9      -1.2001  -3.7625   1.4077   C.2       1 RES1   0.0000
    25 H9      -1.2660  -4.6903   1.4188   H         1 RES1   0.0000
    26 C10     -0.4984  -2.9958   0.4922   C.2       1 RES1   0.0000
    27 H10     -0.0088  -3.3364  -0.2212   H         1 RES1   0.0000
    28 N1A      1.8279  -0.7017  -0.3015   N.2       1 RES1   0.0000
    29 N2A      2.4236  -0.4301  -1.4966   N.pl3     1 RES1   0.0000
    30 N3A     -0.3694  -0.6219  -1.8515   N.2       1 RES1   0.0000
    31 N4A      0.5094  -0.2940  -2.8407   N.pl3     1 RES1   0.0000
    32 N5A      0.6245   1.7094  -0.7767   N.2       1 RES1   0.0000
    33 N6A      1.4172   1.6645  -1.8857   N.pl3     1 RES1   0.0000
    34 C1A      1.7227   0.3757  -2.4601   C.3       1 RES1   0.0000
    35 H1A      2.2869   0.4990  -3.2521   H         1 RES1   0.0000
    36 C2A      3.5925  -1.0803  -1.6298   C.2       1 RES1   0.0000
    37 H2A      4.1612  -1.0572  -2.3641   H         1 RES1   0.0000
    38 C3A      3.7793  -1.7825  -0.4733   C.2       1 RES1   0.0000
    39 H3A      4.5062  -2.3207  -0.2556   H         1 RES1   0.0000
    40 C4A      2.6518  -1.5242   0.3188   C.2       1 RES1   0.0000
    41 H4A      2.5053  -1.8838   1.1649   H         1 RES1   0.0000
    42 C5A      0.1361  -0.8247  -4.0281   C.2       1 RES1   0.0000
    43 H5A      0.5843  -0.7421  -4.8381   H         1 RES1   0.0000
    44 C6A     -1.0124  -1.4967  -3.8100   C.2       1 RES1   0.0000
    45 H6A     -1.5174  -1.9611  -4.4383   H         1 RES1   0.0000
    46 C7A     -1.2856  -1.3554  -2.4546   C.2       1 RES1   0.0000
    47 H7A     -2.0219  -1.7303  -2.0266   H         1 RES1   0.0000
    48 C8A      1.7739   2.8950  -2.2896   C.2       1 RES1   0.0000
    49 H8A      2.3048   3.1107  -3.0211   H         1 RES1   0.0000
    50 C9A      1.2001   3.7625  -1.4077   C.2       1 RES1   0.0000
    51 H9A      1.2660   4.6903  -1.4188   H         1 RES1   0.0000
    52 C10A     0.4984   2.9958  -0.4922   C.2       1 RES1   0.0000
    53 H10A     0.0088   3.3364   0.2212   H         1 RES1   0.0000
    54 N7      -0.5927   4.6784  11.3546   N.1       2 RES2   0.0000
    55 C11     -0.2457   4.4656   7.8838   C.2       2 RES2   0.0000
    56 N8       3.0685   4.3592   9.0186   N.1       2 RES2   0.0000
    57 C12     -1.6737   4.5116   7.9267   C.2       2 RES2   0.0000
    58 H11     -2.1040   4.5689   8.7488   H         2 RES2   0.0000
    59 C13     -2.4107   4.4732   6.7924   C.2       2 RES2   0.0000
    60 H12     -3.3383   4.4997   6.8483   H         2 RES2   0.0000
    61 N9      -5.1003   4.1270   4.4260   N.1       2 RES2   0.0000
    62 N10     -1.4379   4.0632   2.0681   N.1       2 RES2   0.0000
    63 C14     -1.7853   4.3919   5.5113   C.2       2 RES2   0.0000
    64 C15     -0.3635   4.3862   5.4687   C.2       2 RES2   0.0000
    65 H13      0.0673   4.3673   4.6447   H         2 RES2   0.0000
    66 C16      0.3752   4.4078   6.6006   C.2       2 RES2   0.0000
    67 H14      1.3034   4.3847   6.5419   H         2 RES2   0.0000
    68 C17      0.5145   4.4851   9.0507   C.2       2 RES2   0.0000
    69 C18     -0.0935   4.5819  10.3288   C.1       2 RES2   0.0000
    70 C19      1.9300   4.4163   9.0275   C.1       2 RES2   0.0000
    71 C20     -2.5535   4.2733   4.3479   C.2       2 RES2  -1.0000
    72 C21     -3.9696   4.2004   4.3914   C.1       2 RES2   0.0000
    73 C22     -1.9375   4.1547   3.0783   C.1       2 RES2   0.0000
    74 N11     -0.1135   7.6511   3.5416   N.1       3 RES3   0.0000
    75 N12     -3.8078   7.6025   5.7740   N.1       3 RES3   0.0000
    76 C23     -0.4785   7.5888   7.0084   C.2       3 RES3   0.0000
    77 C24     -1.0831   7.6597   8.2946   C.2       3 RES3   0.0000
    78 H15     -2.0103   7.6923   8.3621   H         3 RES3   0.0000
    79 C25      0.9437   7.5223   6.9586   C.2       3 RES3   0.0000
    80 H16      1.3673   7.4639   6.1324   H         3 RES3   0.0000
    81 C26     -1.2508   7.5615   5.8312   C.2       3 RES3   0.0000
    82 C27     -2.6670   7.5917   5.8293   C.1       3 RES3   0.0000
    83 C28     -0.6323   7.5939   4.5579   C.1       3 RES3   0.0000
    84 N11A     0.7246   7.5513  12.8419   N.1       3 RES3   0.0000
    85 N12A     4.4189   7.5999  10.6095   N.1       3 RES3   0.0000
    86 C23A     1.0895   7.6136   9.3751   C.2       3 RES3   0.0000
    87 C24A     1.6942   7.5427   8.0889   C.2       3 RES3   0.0000
    88 H15A     2.6214   7.5101   8.0214   H         3 RES3   0.0000
    89 C25A    -0.3326   7.6801   9.4249   C.2       3 RES3   0.0000
    90 H16A    -0.7562   7.7385  10.2512   H         3 RES3   0.0000
    91 C26A     1.8618   7.6409  10.5523   C.2       3 RES3   0.0000
    92 C27A     3.2780   7.6107  10.5543   C.1       3 RES3   0.0000
    93 C28A     1.2433   7.6085  11.8256   C.1       3 RES3   0.0000
@<TRIPOS>BOND
     1     1     2    1
     2     2     3    1
     3     3     8    1
     4     4     1    1
     5     5     4    1
     6     6     1    1
     7     7     6    1
     8     8     5    1
     9     9     8    1
    10    10     3    1
    11    11    10    1
    12    12    10    2
    13    13    12    1
    14    14     2    2
    15    15    14    1
    16    16     5    1
    17    17    16    1
    18    18    16    2
    19    19    18    1
    20    20     4    2
    21    21    20    1
    22    22     7    1
    23    23    22    1
    24    24    22    2
    25    25    24    1
    26    26     6    2
    27    27    26    1
    28    28     1    1
    29    29    28    1
    30    30     1    1
    31    31    30    1
    32    32     1    1
    33    33    32    1
    34    34    29    1
    35    35    34    1
    36    36    29    1
    37    37    36    1
    38    38    36    2
    39    39    38    1
    40    40    28    2
    41    41    40    1
    42    42    31    1
    43    43    42    1
    44    44    42    2
    45    45    44    1
    46    46    30    2
    47    47    46    1
    48    48    33    1
    49    49    48    1
    50    50    48    2
    51    51    50    1
    52    52    32    2
    53    53    52    1
    54     7     8    1
    55    12    14    1
    56    18    20    1
    57    24    26    1
    58    31    34    1
    59    33    34    1
    60    38    40    1
    61    44    46    1
    62    50    52    1
    63    54    69    3
    64    55    57    1
    65    56    70    3
    66    57    58    1
    67    59    57    2
    68    60    59    1
    69    61    72    3
    70    62    73    3
    71    63    59    1
    72    64    63    1
    73    65    64    1
    74    66    55    1
    75    67    66    1
    76    68    55    2
    77    69    68    1
    78    70    68    1
    79    71    63    2
    80    72    71    1
    81    73    71    1
    82    64    66    2
    83    74    83    3
    84    75    82    3
    85    76    77    1
    86    77    78    1
    87    79    76    1
    88    80    79    1
    89    81    76    2
    90    82    81    1
    91    83    81    1
    92    84    93    3
    93    85    92    3
    94    86    87    1
    95    87    79    2
    96    88    87    1
    97    89    77    2
    98    90    89    1
    99    91    86    2
   100    92    91    1
   101    93    91    1
   102    86    89    1
@<TRIPOS>SUBSTRUCTURE
     1 RES1        1 GROUP             0 ****  ****    0  
     2 RES2       54 GROUP             0 ****  ****    0  
     3 RES3       74 GROUP             0 ****  ****    0  
@<TRIPOS>CRYSIN
    8.1878   10.2235   16.8524  102.1580   91.2420  110.6520     2     1
