@<TRIPOS>MOLECULE
EXOCOM
    93    95     4     0     0
SMALL
NO_CHARGES
****
Generated from the CSD

@<TRIPOS>ATOM
     1 Fe1      3.0752   1.3979  11.2618   Fe        1 RES1   0.0000
     2 O1       4.1872  -0.2577  11.3112   O.3       1 RES1   0.0000
     3 O2       1.5354   1.2823  12.5375   O.3       1 RES1   0.0000
     4 O3       1.8838   0.6362   9.6165   O.3       1 RES1   0.0000
     5 O4       4.3334   2.1712  13.0188   O.3       1 RES1   0.0000
     6 N1       4.5881   2.1750  10.0463   N.2       1 RES1   0.0000
     7 N2       2.4830   3.3770  11.0393   N.2       1 RES1   0.0000
     8 C1       4.8405   3.8855   8.2384   C.ar      1 RES1   0.0000
     9 C2       4.2210   3.3742   9.3896   C.ar      1 RES1   0.0000
    10 C3       2.5037   5.1257   9.2653   C.ar      1 RES1   0.0000
    11 C4       3.0659   4.0072   9.9078   C.ar      1 RES1   0.0000
    12 C5       4.3088   5.0357   7.6528   C.ar      1 RES1   0.0000
    13 H1       4.7406   5.4145   6.8959   H         1 RES1   0.0000
    14 C6       3.1636   5.6373   8.1537   C.ar      1 RES1   0.0000
    15 H2       2.8235   6.4153   7.7280   H         1 RES1   0.0000
    16 C7       1.2197   5.7635   9.6906   C.ar      1 RES1   0.0000
    17 O5       8.2738  -0.7336  10.8284   O.2       1 RES1   0.0000
    18 C8       7.2121   3.9177   7.4740   C.ar      1 RES1   0.0000
    19 H3       7.2864   4.7932   7.8365   H         1 RES1   0.0000
    20 C9       6.3152   0.5865  10.7130   C.2       1 RES1   0.0000
    21 C10      0.0648   5.0043   9.8851   C.ar      1 RES1   0.0000
    22 H4       0.0854   4.0663   9.7357   H         1 RES1   0.0000
    23 C11      6.0139   3.2328   7.5662   C.ar      1 RES1   0.0000
    24 C12      5.4298  -0.4304  11.2159   C.2       1 RES1   0.0000
    25 C13      5.8389   1.8258  10.1865   C.2       1 RES1   0.0000
    26 H5       6.4944   2.4564   9.9119   H         1 RES1   0.0000
    27 C14      1.1463   7.1424   9.8656   C.ar      1 RES1   0.0000
    28 H6       1.9179   7.6753   9.7116   H         1 RES1   0.0000
    29 C15      1.2483   3.5508  13.1209   C.2       1 RES1   0.0000
    30 C16     -1.1211   5.6154  10.2981   C.ar      1 RES1   0.0000
    31 H7      -1.8993   5.0897  10.4426   H         1 RES1   0.0000
    32 C17      7.7579   0.3691  10.6609   C.2       1 RES1   0.0000
    33 C18      1.9603   4.0688  12.0023   C.2       1 RES1   0.0000
    34 H8       2.0629   5.0126  11.9576   H         1 RES1   0.0000
    35 C19      7.0136   1.3873   6.3869   C.ar      1 RES1   0.0000
    36 H9       6.9423   0.5167   6.0127   H         1 RES1   0.0000
    37 C20      8.2124   2.0744   6.3067   C.ar      1 RES1   0.0000
    38 H10      8.9615   1.6794   5.8762   H         1 RES1   0.0000
    39 C21     -0.0384   7.7523  10.2623   C.ar      1 RES1   0.0000
    40 H11     -0.0752   8.6953  10.3723   H         1 RES1   0.0000
    41 C22      8.3127   3.3293   6.8512   C.ar      1 RES1   0.0000
    42 H12      9.1363   3.7997   6.8041   H         1 RES1   0.0000
    43 C23      5.9180   1.9611   7.0100   C.ar      1 RES1   0.0000
    44 H13      5.0971   1.4842   7.0579   H         1 RES1   0.0000
    45 C24     -1.1666   6.9789  10.4963   C.ar      1 RES1   0.0000
    46 H14     -1.9701   7.3885  10.7945   H         1 RES1   0.0000
    47 C25      0.7454   4.5135  14.0874   C.2       1 RES1   0.0000
    48 C26      0.9984   2.1536  13.2718   C.2       1 RES1   0.0000
    49 C27      8.6796   1.5364  10.3692   C.3       1 RES1   0.0000
    50 H15      9.6033   1.2813  10.5738   H         1 RES1   0.0000
    51 H16      8.4214   2.3028  10.9213   H         1 RES1   0.0000
    52 H17      8.6100   1.7777   9.4214   H         1 RES1   0.0000
    53 C28      0.7186   5.9971  13.7601   C.3       1 RES1   0.0000
    54 H18      0.2992   6.4873  14.4979   H         1 RES1   0.0000
    55 H19      0.2037   6.1414  12.9383   H         1 RES1   0.0000
    56 H20      1.6347   6.3206  13.6321   H         1 RES1   0.0000
    57 C29      5.9037  -1.7879  11.6487   C.3       1 RES1   0.0000
    58 H21      5.1483  -2.2989  12.0088   H         1 RES1   0.0000
    59 H22      6.5900  -1.6892  12.3417   H         1 RES1   0.0000
    60 H23      6.2821  -2.2633  10.8800   H         1 RES1   0.0000
    61 C30      0.0117   1.5811  14.2598   C.3       1 RES1   0.0000
    62 H24     -0.5897   0.9596  13.7987   H         1 RES1   0.0000
    63 H25     -0.5121   2.3081  14.6569   H         1 RES1   0.0000
    64 H26      0.4958   1.1040  14.9658   H         1 RES1   0.0000
    65 C31      1.6895   1.1795   8.3444   C.3       1 RES1   0.0000
    66 H27      2.1937   2.0162   8.2658   H         1 RES1   0.0000
    67 H28      0.7356   1.3592   8.2080   H         1 RES1   0.0000
    68 H29      2.0022   0.5448   7.6665   H         1 RES1   0.0000
    69 O6       0.3307   4.1663  15.1968   O.2       1 RES1   0.0000
    70 C32      4.4935   1.6715  14.3046   C.3       1 RES1   0.0000
    71 H30      3.6499   1.2760  14.6083   H         1 RES1   0.0000
    72 H31      4.7488   2.4001  14.9081   H         1 RES1   0.0000
    73 H32      5.1942   0.9869  14.3037   H         1 RES1   0.0000
    74 H33      1.2082   0.0143   9.7915   H         1 RES1   0.0000
    75 H34      5.0859   2.6480  12.8387   H         1 RES1   0.0000
    76 O7       0.4266  -1.5047  10.1725   O.3       2 RES2   0.0000
    77 H35     -0.3365  -1.1924  10.3330   H         2 RES2   0.0000
    78 C33      0.9939  -2.0129  11.3743   C.3       2 RES2   0.0000
    79 H36      1.9420  -2.2127  11.2291   H         2 RES2   0.0000
    80 H37      0.5235  -2.8313  11.6369   H         2 RES2   0.0000
    81 H38      0.9063  -1.3434  12.0851   H         2 RES2   0.0000
    82 O8       6.4242   3.8679  12.5213   O.3       3 RES3   0.0000
    83 H39      6.3209   4.6216  12.1652   H         3 RES3   0.0000
    84 C34      7.4430   3.9396  13.4771   C.3       3 RES3   0.0000
    85 H40      8.2729   4.2353  13.0488   H         3 RES3   0.0000
    86 H41      7.5782   3.0555  13.8773   H         3 RES3   0.0000
    87 H42      7.1902   4.5791  14.1759   H         3 RES3   0.0000
    88 O9       6.0451   6.4280  11.8861   O.3       4 RES4   0.0000
    89 H43      5.6057   6.7718  12.5144   H         4 RES4   0.0000
    90 C35      5.5204   6.8697  10.6479   C.3       4 RES4   0.0000
    91 H44      4.5455   6.7747  10.6530   H         4 RES4   0.0000
    92 H45      5.8974   6.3287   9.9220   H         4 RES4   0.0000
    93 H46      5.7567   7.8108  10.5091   H         4 RES4   0.0000
@<TRIPOS>BOND
     1     1     2    1
     2     2    24    1
     3     3     1    1
     4     4     1    1
     5     5     1    1
     6     6     1    1
     7     7     1    1
     8     8     9   ar
     9     9     6    1
    10    10    11   ar
    11    11     7    1
    12    12     8   ar
    13    13    12    1
    14    14    10   ar
    15    15    14    1
    16    16    10    1
    17    17    32    2
    18    18    19    1
    19    20    24    2
    20    21    16   ar
    21    22    21    1
    22    23     8    1
    23    24    57    1
    24    25     6    2
    25    26    25    1
    26    27    16   ar
    27    28    27    1
    28    29    33    1
    29    30    21   ar
    30    31    30    1
    31    32    20    1
    32    33     7    2
    33    34    33    1
    34    35    36    1
    35    37    35   ar
    36    38    37    1
    37    39    27   ar
    38    40    39    1
    39    41    18   ar
    40    42    41    1
    41    43    23   ar
    42    44    43    1
    43    45    30   ar
    44    46    45    1
    45    47    29    1
    46    48     3    1
    47    49    32    1
    48    50    49    1
    49    51    49    1
    50    52    49    1
    51    53    47    1
    52    54    53    1
    53    55    53    1
    54    56    53    1
    55    57    58    1
    56    59    57    1
    57    60    57    1
    58    61    48    1
    59    62    61    1
    60    63    61    1
    61    64    61    1
    62    65     4    1
    63    66    65    1
    64    67    65    1
    65    68    65    1
    66    69    47    2
    67    70     5    1
    68    71    70    1
    69    72    70    1
    70    73    70    1
    71    74     4    1
    72    75     5    1
    73     9    11   ar
    74    12    14   ar
    75    18    23   ar
    76    20    25    1
    77    29    48    2
    78    35    43   ar
    79    37    41   ar
    80    39    45   ar
    81    76    77    1
    82    78    76    1
    83    79    78    1
    84    80    78    1
    85    81    78    1
    86    82    83    1
    87    84    82    1
    88    85    84    1
    89    86    84    1
    90    87    84    1
    91    88    89    1
    92    90    88    1
    93    91    90    1
    94    92    90    1
    95    93    90    1
@<TRIPOS>SUBSTRUCTURE
     1 RES1        1 GROUP             0 ****  ****    0  
     2 RES2       76 GROUP             0 ****  ****    0  
     3 RES3       82 GROUP             0 ****  ****    0  
     4 RES4       88 GROUP             0 ****  ****    0  
@<TRIPOS>CRYSIN
   10.3524   12.2557   14.5167   89.6400   84.2020   81.0140     2     1
