@<TRIPOS>MOLECULE
EXOWIX
    81    81     9     0     0
SMALL
USER_CHARGES
****
Generated from the CSD

@<TRIPOS>ATOM
     1 Fe1      5.4938   4.9626   4.5128   Fe        1 RES1   2.0000
     2 N1       7.1336   4.7606   3.4111   N.2       1 RES1   0.0000
     3 C1       7.2772   4.0623   2.2847   C.2       1 RES1   0.0000
     4 N2       8.5421   4.2037   1.7825   N.pl3     1 RES1   0.0000
     5 C2       9.1405   3.5460   0.6165   C.3       1 RES1   0.0000
     6 C3       9.2185   5.0097   2.6359   C.2       1 RES1   0.0000
     7 C4       8.3504   5.3609   3.6316   C.2       1 RES1   0.0000
     8 C5       6.2807   3.1933   1.6618   C.2       1 RES1   0.0000
     9 O1       6.4349   2.7777   0.5295   O.2       1 RES1   0.0000
    10 N3       4.7107   3.3823   3.6162   N.2       1 RES1   0.0000
    11 C6       5.1021   2.8281   2.4685   C.2       1 RES1   0.0000
    12 N4       4.2582   1.8150   2.1116   N.pl3     1 RES1   0.0000
    13 C7       4.3550   0.9306   0.9556   C.3       1 RES1   0.0000
    14 C8       3.3146   1.7254   3.0755   C.2       1 RES1   0.0000
    15 C9       3.5853   2.6896   3.9906   C.2       1 RES1   0.0000
    16 N5       6.2781   6.5504   5.3541   N.2       1 RES1   0.0000
    17 C10      6.5545   7.7189   4.7570   C.2       1 RES1   0.0000
    18 N6       7.1367   8.5683   5.6444   N.pl3     1 RES1   0.0000
    19 C11      7.4755   9.9858   5.4350   C.3       1 RES1   0.0000
    20 C12      7.2187   7.9218   6.8340   C.2       1 RES1   0.0000
    21 C13      6.6967   6.6805   6.6495   C.2       1 RES1   0.0000
    22 C14      6.3196   8.0575   3.3482   C.2       1 RES1   0.0000
    23 O2       6.8853   8.9993   2.8135   O.2       1 RES1   0.0000
    24 N7       4.7680   6.1236   3.0838   N.2       1 RES1   0.0000
    25 C15      5.3061   7.2627   2.6487   C.2       1 RES1   0.0000
    26 N8       4.6945   7.6755   1.5077   N.pl3     1 RES1   0.0000
    27 C16      4.9401   8.8985   0.7232   C.3       1 RES1   0.0000
    28 C17      3.7199   6.7701   1.2255   C.2       1 RES1   0.0000
    29 C18      3.7676   5.8185   2.1965   C.2       1 RES1   0.0000
    30 N9       6.2309   3.7153   5.8822   N.2       1 RES1   0.0000
    31 C19      5.6451   3.2479   6.9908   C.2       1 RES1   0.0000
    32 N10      6.4498   2.3509   7.6248   N.pl3     1 RES1   0.0000
    33 C20      6.2720   1.7156   8.9373   C.3       1 RES1   0.0000
    34 C21      7.5771   2.2488   6.8824   C.2       1 RES1   0.0000
    35 C22      7.4344   3.0786   5.8153   C.2       1 RES1   0.0000
    36 C23      4.2821   3.5516   7.4427   C.2       1 RES1   0.0000
    37 O3       3.7044   2.8407   8.2454   O.2       1 RES1   0.0000
    38 N11      3.9196   5.2980   5.6915   N.2       1 RES1   0.0000
    39 C24      3.6434   4.7438   6.8705   C.2       1 RES1   0.0000
    40 N12      2.6118   5.3945   7.4852   N.pl3     1 RES1   0.0000
    41 C25      2.0726   5.1594   8.8299   C.3       1 RES1   0.0000
    42 C26      2.2342   6.4077   6.6638   C.2       1 RES1   0.0000
    43 C27      3.0411   6.3461   5.5571   C.2       1 RES1   0.0000
    44 H1      10.0725   3.7191   0.5985   H         1 RES1   0.0000
    45 H2       8.9827   2.6132   0.6611   H         1 RES1   0.0000
    46 H3       8.7421   3.8950  -0.1797   H         1 RES1   0.0000
    47 H4      10.1304   5.2752   2.5567   H         1 RES1   0.0000
    48 H5       8.5589   5.9364   4.3641   H         1 RES1   0.0000
    49 H6       5.2171   0.5287   0.9338   H         1 RES1   0.0000
    50 H7       4.2295   1.4383   0.1567   H         1 RES1   0.0000
    51 H8       3.6898   0.2562   1.0047   H         1 RES1   0.0000
    52 H9       2.5984   1.1048   3.1123   H         1 RES1   0.0000
    53 H10      3.0781   2.8569   4.7786   H         1 RES1   0.0000
    54 H11      6.7423  10.4367   5.0582   H         1 RES1   0.0000
    55 H12      8.2240  10.0383   4.8289   H         1 RES1   0.0000
    56 H13      7.7279  10.3817   6.2585   H         1 RES1   0.0000
    57 H14      7.5744   8.2730   7.6398   H         1 RES1   0.0000
    58 H15      6.6343   6.0086   7.3190   H         1 RES1   0.0000
    59 H16      4.4275   8.8750  -0.0721   H         1 RES1   0.0000
    60 H17      4.7050   9.6574   1.2388   H         1 RES1   0.0000
    61 H18      5.8688   8.9428   0.5029   H         1 RES1   0.0000
    62 H19      3.1030   6.8014   0.5020   H         1 RES1   0.0000
    63 H20      3.1990   5.0555   2.2470   H         1 RES1   0.0000
    64 H21      7.1229   1.4297   9.2615   H         1 RES1   0.0000
    65 H22      5.9056   2.3494   9.5463   H         1 RES1   0.0000
    66 H23      5.6982   0.9723   8.8520   H         1 RES1   0.0000
    67 H24      8.3313   1.6960   7.0797   H         1 RES1   0.0000
    68 H25      8.0773   3.1975   5.1198   H         1 RES1   0.0000
    69 H26      2.7938   5.1100   9.4538   H         1 RES1   0.0000
    70 H27      1.4955   5.8775   9.0704   H         1 RES1   0.0000
    71 H28      1.5942   4.3417   8.8399   H         1 RES1   0.0000
    72 H29      1.5426   7.0427   6.8229   H         1 RES1   0.0000
    73 H30      2.9896   6.9175   4.8075   H         1 RES1   0.0000
    74 Cl1      8.0918   0.8020   2.8382   Cl        2 RES2  -1.0000
    75 Cl2      5.6024   5.2581   9.8868   Cl        3 RES3  -1.0000
    76 O4      -0.8361   6.2174   0.7937   O.3       4 RES4   0.0000
    77 O5      -1.1718   5.6562   4.6121   O.3       5 RES5   0.0000
    78 O6       8.4864  10.6687   0.5667   O.3       6 RES6   0.0000
    79 O7      -0.6031   2.4489   2.3950   O.3       7 RES7   0.0000
    80 O8       0.6453   4.7452   2.7981   O.3       8 RES8   0.0000
    81 O9       9.9287   6.3489  -0.7778   O.3       9 RES9   0.0000
@<TRIPOS>BOND
     1     1     2    1
     2     2     3    2
     3     3     4    1
     4     4     5    1
     5     5    44    1
     6     6     4    1
     7     7     2    1
     8     8     3    1
     9     9     8    2
    10    10     1    1
    11    11     8    1
    12    12    11    1
    13    13    12    1
    14    14    12    1
    15    15    10    1
    16    16     1    1
    17    17    16    2
    18    18    17    1
    19    19    18    1
    20    20    18    1
    21    21    16    1
    22    22    17    1
    23    23    22    2
    24    24     1    1
    25    25    22    1
    26    26    25    1
    27    27    26    1
    28    28    26    1
    29    29    24    1
    30    30     1    1
    31    31    30    2
    32    32    31    1
    33    33    32    1
    34    34    32    1
    35    35    30    1
    36    36    31    1
    37    37    36    2
    38    38     1    1
    39    39    36    1
    40    40    39    1
    41    41    40    1
    42    42    40    1
    43    43    38    1
    44    45     5    1
    45    46     5    1
    46    47     6    1
    47    48     7    1
    48    49    13    1
    49    50    13    1
    50    51    13    1
    51    52    14    1
    52    53    15    1
    53    54    19    1
    54    55    19    1
    55    56    19    1
    56    57    20    1
    57    58    21    1
    58    59    27    1
    59    60    27    1
    60    61    27    1
    61    62    28    1
    62    63    29    1
    63    64    33    1
    64    65    33    1
    65    66    33    1
    66    67    34    1
    67    68    35    1
    68    69    41    1
    69    70    41    1
    70    71    41    1
    71    72    42    1
    72    73    43    1
    73     6     7    2
    74    10    11    2
    75    14    15    2
    76    20    21    2
    77    24    25    2
    78    28    29    2
    79    34    35    2
    80    38    39    2
    81    42    43    2
@<TRIPOS>SUBSTRUCTURE
     1 RES1        1 GROUP             0 ****  ****    0  
     2 RES2       74 GROUP             0 ****  ****    0  
     3 RES3       75 GROUP             0 ****  ****    0  
     4 RES4       76 GROUP             0 ****  ****    0  
     5 RES5       77 GROUP             0 ****  ****    0  
     6 RES6       78 GROUP             0 ****  ****    0  
     7 RES7       79 GROUP             0 ****  ****    0  
     8 RES8       80 GROUP             0 ****  ****    0  
     9 RES9       81 GROUP             0 ****  ****    0  
@<TRIPOS>CRYSIN
   21.3036   13.9936   24.4634   90.0000  104.2300   90.0000    15     1
