@<TRIPOS>MOLECULE
EXUBEH
    83    93     1     0     0
SMALL
NO_CHARGES
****
Generated from the CSD

@<TRIPOS>ATOM
     1 Dy1     10.0560   0.0521   4.9179   Dy        1 RES1   0.0000
     2 Fe1     12.0248  -0.0957   2.1044   Fe        1 RES1   0.0000
     3 O1       9.1517   1.1053   6.7745   O.2       1 RES1   0.0000
     4 O2      12.2746  -0.2266   4.0761   O.3       1 RES1   0.0000
     5 O3       8.3528   1.7474   3.8538   O.3       1 RES1   0.0000
     6 O4      12.0883   0.1574   6.5908   O.3       1 RES1   0.0000
     7 N1      11.4687  -0.0995   0.1212   N.2       1 RES1   0.0000
     8 C1      13.4132  -0.0025   4.7319   C.ar      1 RES1   0.0000
     9 Cl1     12.7845   2.0621   1.8902   Cl        1 RES1   0.0000
    10 C2      14.6648  -0.1523   4.1404   C.ar      1 RES1   0.0000
    11 C3       9.5359   1.3458   0.4813   C.ar      1 RES1   0.0000
    12 C4       7.8288  -2.7306   6.2161   C.2       1 RES1   0.0000
    13 H1       7.3184  -3.4595   6.4843   H         1 RES1   0.0000
    14 O5      10.9254   2.2698   4.9835   O.2       1 RES1   0.0000
    15 C5       8.4416   1.9715   2.4706   C.ar      1 RES1   0.0000
    16 C6      11.9504   0.0378   8.0420   C.3       1 RES1   0.0000
    17 H2      12.3106  -0.8019   8.3303   H         1 RES1   0.0000
    18 H3      11.0229   0.0894   8.2808   H         1 RES1   0.0000
    19 H4      12.4296   0.7553   8.4681   H         1 RES1   0.0000
    20 C7      13.3456   0.2291   6.0636   C.ar      1 RES1   0.0000
    21 C8       7.1679   2.2195   4.5463   C.3       1 RES1   0.0000
    22 H5       7.1265   3.1775   4.4931   H         1 RES1   0.0000
    23 H6       7.2085   1.9526   5.4685   H         1 RES1   0.0000
    24 H7       6.3853   1.8418   4.1385   H         1 RES1   0.0000
    25 O6       9.8856  -1.6139   6.5577   O.2       1 RES1   0.0000
    26 C9       7.6331   2.8376   1.7542   C.ar      1 RES1   0.0000
    27 H8       7.0089   3.3663   2.1951   H         1 RES1   0.0000
    28 N2      13.9706  -0.7931   1.8681   N.2       1 RES1   0.0000
    29 C10     14.8425  -0.5980   2.7645   C.2       1 RES1   0.0000
    30 H9      15.7215  -0.7629   2.5092   H         1 RES1   0.0000
    31 O7      10.2160  -2.0470   3.9071   O.co2     1 RES1   0.0000
    32 C11      7.3182  -1.8065   5.2664   C.2       1 RES1   0.0000
    33 C12      9.4336   1.2526   1.8296   C.ar      1 RES1   0.0000
    34 O8      11.5162  -2.0973   2.1124   O.co2     1 RES1   0.0000
    35 O9       7.8664  -0.7881   4.8108   O.2       1 RES1   0.0000
    36 O10     10.1705   0.4192   2.5937   O.3       1 RES1   0.0000
    37 C13     10.4876   0.5715  -0.3582   C.2       1 RES1   0.0000
    38 H10     10.3638   0.5741  -1.2803   H         1 RES1   0.0000
    39 C14      8.6438   2.1527  -0.2553   C.ar      1 RES1   0.0000
    40 H11      8.6723   2.1540  -1.1848   H         1 RES1   0.0000
    41 F1       5.2682  -2.9987   5.2811   F         1 RES1   0.0000
    42 F2       8.7069  -4.4125   8.1632   F         1 RES1   0.0000
    43 C15     10.8463  -2.6639   2.9886   C.2       1 RES1   0.0000
    44 C16     13.7761  -0.7276  -0.6117   C.3       1 RES1   0.0000
    45 H12     14.2585  -1.0386  -1.3924   H         1 RES1   0.0000
    46 H13     13.9759   0.2153  -0.5033   H         1 RES1   0.0000
    47 F3       5.2171  -0.9731   4.7061   F         1 RES1   0.0000
    48 C17     14.2879  -1.4415   0.5603   C.3       1 RES1   0.0000
    49 H14     15.2515  -1.5208   0.4794   H         1 RES1   0.0000
    50 H15     13.9188  -2.3391   0.5621   H         1 RES1   0.0000
    51 C18     10.7293  -4.1871   2.9868   C.3       1 RES1   0.0000
    52 H16     10.6586  -4.5031   3.8906   H         1 RES1   0.0000
    53 H17     11.5092  -4.5661   2.5735   H         1 RES1   0.0000
    54 H18      9.9472  -4.4465   2.4945   H         1 RES1   0.0000
    55 C19      7.7586   2.9131   0.3876   C.ar      1 RES1   0.0000
    56 H19      7.2210   3.5010  -0.0918   H         1 RES1   0.0000
    57 C20     12.2996  -0.8724  -0.8780   C.3       1 RES1   0.0000
    58 H20     12.0571  -1.8116  -0.8358   H         1 RES1   0.0000
    59 H21     12.1020  -0.5527  -1.7726   H         1 RES1   0.0000
    60 C21      5.9058  -2.0319   4.7263   C.3       1 RES1   0.0000
    61 F4       6.0135  -2.4335   3.4570   F         1 RES1   0.0000
    62 C22      9.0869  -2.5304   6.7304   C.2       1 RES1   0.0000
    63 F5      10.0498  -3.0491   8.8171   F         1 RES1   0.0000
    64 F6       7.2375   2.1150   8.4351   F         1 RES1   0.0000
    65 F7      10.4925  -4.2677   7.2466   F         1 RES1   0.0000
    66 F8       8.5971   3.4683   9.2635   F         1 RES1   0.0000
    67 C23      9.5661  -3.5627   7.7315   C.3       1 RES1   0.0000
    68 F9       8.8384   1.4981   9.4931   F         1 RES1   0.0000
    69 C24      8.5088   2.3542   8.6647   C.3       1 RES1   0.0000
    70 C25     15.8304   0.1032   4.9009   C.ar      1 RES1   0.0000
    71 H22     16.6696   0.0478   4.5004   H         1 RES1   0.0000
    72 C26     14.4846   0.4595   6.8204   C.ar      1 RES1   0.0000
    73 H23     14.4282   0.6370   7.7315   H         1 RES1   0.0000
    74 C27     15.7287   0.4167   6.1646   C.ar      1 RES1   0.0000
    75 H24     16.4991   0.6169   6.6441   H         1 RES1   0.0000
    76 F10     12.7091   4.3080   5.3454   F         1 RES1   0.0000
    77 C28     11.5831   4.4314   5.4556   C.3       1 RES1   0.0000
    78 C29     10.8537   3.1787   5.7679   C.2       1 RES1   0.0000
    79 F11     11.3747   5.4435   6.0838   F         1 RES1   0.0000
    80 C30     10.0769   3.2543   6.9655   C.2       1 RES1   0.0000
    81 H25     10.0983   4.0310   7.4762   H         1 RES1   0.0000
    82 C31      9.3071   2.2106   7.3678   C.2       1 RES1   0.0000
    83 F12     11.3812   4.7964   4.2910   F         1 RES1   0.0000
@<TRIPOS>BOND
     1     1     3    1
     2     2     4    1
     3     3    82   un
     4     4     1    1
     5     5     1    1
     6     6     1    1
     7     7     2    1
     8     8     4    1
     9     9     2    1
    10    10     8   ar
    11    11    33   ar
    12    12    13    1
    13    14     1    1
    14    15     5    1
    15    16     6    1
    16    17    16    1
    17    18    16    1
    18    19    16    1
    19    20     6    1
    20    21     5    1
    21    22    21    1
    22    23    21    1
    23    24    21    1
    24    25     1    1
    25    26    15   ar
    26    27    26    1
    27    28     2    1
    28    29    10    1
    29    30    29    1
    30    31     1    1
    31    32    12   un
    32    33    15   ar
    33    34     2    1
    34    35     1    1
    35    36     1    1
    36    37     7    2
    37    38    37    1
    38    39    11   ar
    39    40    39    1
    40    41    60    1
    41    42    67    1
    42    43    31   un
    43    44    45    1
    44    46    44    1
    45    47    60    1
    46    48    28    1
    47    49    48    1
    48    50    48    1
    49    51    43    1
    50    52    51    1
    51    53    51    1
    52    54    51    1
    53    55    26   ar
    54    56    55    1
    55    57     7    1
    56    58    57    1
    57    59    57    1
    58    60    32    1
    59    61    60    1
    60    62    12   un
    61    63    67    1
    62    64    69    1
    63    65    67    1
    64    66    69    1
    65    67    62    1
    66    68    69    1
    67    69    82    1
    68    70    10   ar
    69    71    70    1
    70    72    20   ar
    71    73    72    1
    72    74    70   ar
    73    75    74    1
    74    76    77    1
    75    77    78    1
    76    78    14   un
    77    79    77    1
    78    80    78   un
    79    81    80    1
    80    82    80   un
    81    83    77    1
    82     2    36    1
    83     8    20   ar
    84    11    37    1
    85    25    62   un
    86    28    29    2
    87    32    35   un
    88    33    36    1
    89    34    43   un
    90    39    55   ar
    91    44    48    1
    92    44    57    1
    93    72    74   ar
@<TRIPOS>SUBSTRUCTURE
     1 RES1        1 GROUP             0 ****  ****    0  
@<TRIPOS>CRYSIN
   16.9946   12.5891   18.5684   90.0000   98.4040   90.0000    14     2
