@<TRIPOS>MOLECULE
EXUBAD
    83    93     1     0     0
SMALL
NO_CHARGES
****
Generated from the CSD

@<TRIPOS>ATOM
     1 Tb1     10.0275   0.0528   4.8989   Tb        1 RES1   0.0000
     2 Fe1     11.9900  -0.1075   2.0796   Fe        1 RES1   0.0000
     3 O1       9.1102   1.1081   6.7796   O.2       1 RES1   0.0000
     4 O2      12.2421  -0.2010   4.0362   O.3       1 RES1   0.0000
     5 O3       8.3411   1.7614   3.8143   O.3       1 RES1   0.0000
     6 O4      12.0502   0.1709   6.5706   O.3       1 RES1   0.0000
     7 N1      11.4328  -0.1093   0.0752   N.2       1 RES1   0.0000
     8 C1      13.3919  -0.0339   4.6817   C.ar      1 RES1   0.0000
     9 Cl1     12.7606   2.0541   1.8615   Cl        1 RES1   0.0000
    10 C2      14.6522  -0.1432   4.0582   C.ar      1 RES1   0.0000
    11 C3       9.5143   1.3581   0.4218   C.ar      1 RES1   0.0000
    12 C4       7.7956  -2.7074   6.1818   C.2       1 RES1   0.0000
    13 H1       7.2829  -3.4461   6.4220   H         1 RES1   0.0000
    14 O5      10.8897   2.2852   4.9935   O.2       1 RES1   0.0000
    15 C5       8.4120   1.9862   2.4702   C.ar      1 RES1   0.0000
    16 C6      11.9339   0.0427   7.9918   C.3       1 RES1   0.0000
    17 H2      12.4399  -0.7186   8.2870   H         1 RES1   0.0000
    18 H3      11.0111  -0.0741   8.2284   H         1 RES1   0.0000
    19 H4      12.2751   0.8355   8.4136   H         1 RES1   0.0000
    20 C7      13.3250   0.2136   6.0443   C.ar      1 RES1   0.0000
    21 C8       7.1470   2.2174   4.4947   C.3       1 RES1   0.0000
    22 H5       7.1863   3.1710   4.6066   H         1 RES1   0.0000
    23 H6       7.0886   1.7965   5.3548   H         1 RES1   0.0000
    24 H7       6.3744   1.9888   3.9721   H         1 RES1   0.0000
    25 O6       9.8585  -1.6207   6.5412   O.2       1 RES1   0.0000
    26 C9       7.6122   2.8518   1.7660   C.ar      1 RES1   0.0000
    27 H8       6.9901   3.3757   2.2171   H         1 RES1   0.0000
    28 N2      13.9322  -0.8015   1.8247   N.2       1 RES1   0.0000
    29 C10     14.8248  -0.6256   2.7269   C.2       1 RES1   0.0000
    30 H9      15.6960  -0.8405   2.4830   H         1 RES1   0.0000
    31 O7      10.1613  -2.0566   3.8657   O.co2     1 RES1   0.0000
    32 C11      7.2850  -1.8078   5.2667   C.2       1 RES1   0.0000
    33 C12      9.4071   1.2463   1.8045   C.ar      1 RES1   0.0000
    34 O8      11.5000  -2.1043   2.0997   O.co2     1 RES1   0.0000
    35 O9       7.8351  -0.7915   4.7973   O.2       1 RES1   0.0000
    36 O10     10.1529   0.4372   2.5527   O.3       1 RES1   0.0000
    37 C13     10.4596   0.5729  -0.3649   C.2       1 RES1   0.0000
    38 H10     10.3351   0.5729  -1.2855   H         1 RES1   0.0000
    39 C14      8.6364   2.1873  -0.2824   C.ar      1 RES1   0.0000
    40 H11      8.6709   2.2199  -1.2103   H         1 RES1   0.0000
    41 F1       5.2228  -3.0013   5.2796   F         1 RES1   0.0000
    42 F2       8.6324  -4.4122   8.1550   F         1 RES1   0.0000
    43 C15     10.7997  -2.6521   2.9965   C.2       1 RES1   0.0000
    44 C16     13.7230  -0.7312  -0.6492   C.3       1 RES1   0.0000
    45 H12     13.9241   0.2148  -0.5630   H         1 RES1   0.0000
    46 H13     14.1911  -1.0553  -1.4340   H         1 RES1   0.0000
    47 F3       5.1814  -0.9950   4.7019   F         1 RES1   0.0000
    48 C17     14.2932  -1.4485   0.5722   C.3       1 RES1   0.0000
    49 H14     13.9692  -2.3631   0.5832   H         1 RES1   0.0000
    50 H15     15.2614  -1.4787   0.4988   H         1 RES1   0.0000
    51 C18      9.2831   2.2111   7.3628   C.2       1 RES1   0.0000
    52 C19     10.7017  -4.1496   2.9708   C.3       1 RES1   0.0000
    53 H16     10.6852  -4.4851   3.8694   H         1 RES1   0.0000
    54 H17     11.4629  -4.5114   2.5087   H         1 RES1   0.0000
    55 H18      9.8970  -4.4097   2.5160   H         1 RES1   0.0000
    56 C20      7.7279   2.9498   0.3943   C.ar      1 RES1   0.0000
    57 H19      7.1834   3.5416  -0.0752   H         1 RES1   0.0000
    58 C21     12.2435  -0.8757  -0.8912   C.3       1 RES1   0.0000
    59 H20     12.0391  -0.5729  -1.7880   H         1 RES1   0.0000
    60 H21     12.0039  -1.8141  -0.8326   H         1 RES1   0.0000
    61 C22      5.8914  -2.0503   4.7093   C.3       1 RES1   0.0000
    62 F4       5.9631  -2.4322   3.4513   F         1 RES1   0.0000
    63 C23     10.0552   3.2652   6.9759   C.2       1 RES1   0.0000
    64 H22     10.0915   4.0278   7.5077   H         1 RES1   0.0000
    65 C24      9.0501  -2.5415   6.7503   C.2       1 RES1   0.0000
    66 C25     10.7889   3.2187   5.7967   C.2       1 RES1   0.0000
    67 F5      10.0180  -3.0579   8.8005   F         1 RES1   0.0000
    68 F6       7.2484   2.1156   8.4686   F         1 RES1   0.0000
    69 F7      10.4494  -4.3054   7.2124   F         1 RES1   0.0000
    70 F8       8.5640   3.4888   9.2315   F         1 RES1   0.0000
    71 F9      11.5144   4.7690   4.3076   F         1 RES1   0.0000
    72 C26      9.5756  -3.5755   7.7241   C.3       1 RES1   0.0000
    73 F10     11.3197   5.4750   6.0278   F         1 RES1   0.0000
    74 F11      8.8248   1.4749   9.4974   F         1 RES1   0.0000
    75 C27     11.5596   4.4537   5.4758   C.3       1 RES1   0.0000
    76 C28      8.4733   2.3732   8.6428   C.3       1 RES1   0.0000
    77 F12     12.7179   4.2916   5.4244   F         1 RES1   0.0000
    78 C29     15.7974   0.0829   4.8596   C.ar      1 RES1   0.0000
    79 H23     16.6393   0.0075   4.4709   H         1 RES1   0.0000
    80 C30     14.4674   0.4648   6.7961   C.ar      1 RES1   0.0000
    81 H24     14.4059   0.6696   7.7002   H         1 RES1   0.0000
    82 C31     15.7088   0.4045   6.1635   C.ar      1 RES1   0.0000
    83 H25     16.4819   0.5880   6.6476   H         1 RES1   0.0000
@<TRIPOS>BOND
     1     1     3    1
     2     2     4    1
     3     3    51   un
     4     4     1    1
     5     5     1    1
     6     6     1    1
     7     7     2    1
     8     8     4    1
     9     9     2    1
    10    10     8   ar
    11    11    33   ar
    12    12    13    1
    13    14     1    1
    14    15     5    1
    15    16     6    1
    16    17    16    1
    17    18    16    1
    18    19    16    1
    19    20     6    1
    20    21     5    1
    21    22    21    1
    22    23    21    1
    23    24    21    1
    24    25     1    1
    25    26    15   ar
    26    27    26    1
    27    28     2    1
    28    29    10    1
    29    30    29    1
    30    31     1    1
    31    32    12   un
    32    33    15   ar
    33    34     2    1
    34    35     1    1
    35    36     1    1
    36    37     7    2
    37    38    37    1
    38    39    11   ar
    39    40    39    1
    40    41    61    1
    41    42    72    1
    42    43    31   un
    43    44    45    1
    44    46    44    1
    45    47    61    1
    46    48    28    1
    47    49    48    1
    48    50    48    1
    49    51    63   un
    50    52    43    1
    51    53    52    1
    52    54    52    1
    53    55    52    1
    54    56    26   ar
    55    57    56    1
    56    58     7    1
    57    59    58    1
    58    60    58    1
    59    61    32    1
    60    62    61    1
    61    63    64    1
    62    65    12   un
    63    66    14   un
    64    67    72    1
    65    68    76    1
    66    69    72    1
    67    70    76    1
    68    71    75    1
    69    72    65    1
    70    73    75    1
    71    74    76    1
    72    75    66    1
    73    76    51    1
    74    77    75    1
    75    78    10   ar
    76    79    78    1
    77    80    20   ar
    78    81    80    1
    79    82    78   ar
    80    83    82    1
    81     2    36    1
    82     8    20   ar
    83    11    37    1
    84    25    65   un
    85    28    29    2
    86    32    35   un
    87    33    36    1
    88    34    43   un
    89    39    56   ar
    90    44    48    1
    91    44    58    1
    92    63    66   un
    93    80    82   ar
@<TRIPOS>SUBSTRUCTURE
     1 RES1        1 GROUP             0 ****  ****    0  
@<TRIPOS>CRYSIN
   16.9716   12.5632   18.5399   90.0000   98.4590   90.0000    14     2
