@<TRIPOS>MOLECULE
EXUJOZ
    83    93     1     0     0
SMALL
NO_CHARGES
****
Generated from the CSD

@<TRIPOS>ATOM
     1 Gd1     10.0592   0.0634   4.9017   Gd        1 RES1   0.0000
     2 Fe1     12.0218  -0.1118   2.0710   Fe        1 RES1   0.0000
     3 O1       9.1456   1.1407   6.7947   O.2       1 RES1   0.0000
     4 O2      12.2843  -0.2017   4.0262   O.3       1 RES1   0.0000
     5 O3       8.3729   1.7558   3.8080   O.3       1 RES1   0.0000
     6 O4      12.1000   0.1676   6.5545   O.3       1 RES1   0.0000
     7 N1      11.4593  -0.1147   0.0568   N.2       1 RES1   0.0000
     8 C1      13.4360  -0.0265   4.6734   C.ar      1 RES1   0.0000
     9 Cl1     12.7870   2.0526   1.8514   Cl        1 RES1   0.0000
    10 C2      14.6984  -0.1424   4.0464   C.ar      1 RES1   0.0000
    11 C3       9.5398   1.3474   0.4052   C.ar      1 RES1   0.0000
    12 C4       7.8303  -2.7175   6.1860   C.2       1 RES1   0.0000
    13 H1       7.3247  -3.4599   6.4299   H         1 RES1   0.0000
    14 O5      10.9265   2.3066   4.9943   O.2       1 RES1   0.0000
    15 C5       8.4370   1.9751   2.4568   C.ar      1 RES1   0.0000
    16 C6      11.9644   0.0466   7.9773   C.3       1 RES1   0.0000
    17 H2      12.4764  -0.7046   8.2853   H         1 RES1   0.0000
    18 H3      11.0408  -0.0832   8.2010   H         1 RES1   0.0000
    19 H4      12.2870   0.8470   8.3971   H         1 RES1   0.0000
    20 C7      13.3767   0.2130   6.0393   C.ar      1 RES1   0.0000
    21 C8       7.1769   2.2310   4.4809   C.3       1 RES1   0.0000
    22 H5       7.2354   3.1814   4.6038   H         1 RES1   0.0000
    23 H6       7.0985   1.8012   5.3353   H         1 RES1   0.0000
    24 H7       6.4060   2.0255   3.9456   H         1 RES1   0.0000
    25 O6       9.8837  -1.6209   6.5509   O.2       1 RES1   0.0000
    26 C9       7.6188   2.8360   1.7564   C.ar      1 RES1   0.0000
    27 H8       6.9948   3.3566   2.2075   H         1 RES1   0.0000
    28 N2      13.9617  -0.8130   1.8169   N.2       1 RES1   0.0000
    29 C10     14.8682  -0.6201   2.7153   C.2       1 RES1   0.0000
    30 H9      15.7398  -0.8180   2.4641   H         1 RES1   0.0000
    31 O7      10.2022  -2.0608   3.8704   O.co2     1 RES1   0.0000
    32 C11      7.3056  -1.8264   5.2766   C.2       1 RES1   0.0000
    33 C12      9.4311   1.2352   1.7949   C.ar      1 RES1   0.0000
    34 O8      11.5323  -2.1024   2.0883   O.co2     1 RES1   0.0000
    35 O9       7.8511  -0.8016   4.8054   O.2       1 RES1   0.0000
    36 O10     10.1781   0.4285   2.5426   O.3       1 RES1   0.0000
    37 C13     10.4749   0.5634  -0.3759   C.2       1 RES1   0.0000
    38 H10     10.3388   0.5559  -1.2962   H         1 RES1   0.0000
    39 C14      8.6600   2.1755  -0.2915   C.ar      1 RES1   0.0000
    40 H11      8.7049   2.2196  -1.2192   H         1 RES1   0.0000
    41 F1       5.2581  -3.0251   5.2803   F         1 RES1   0.0000
    42 F2       8.6790  -4.4279   8.1478   F         1 RES1   0.0000
    43 C15     10.8305  -2.6545   2.9812   C.2       1 RES1   0.0000
    44 C16     13.7520  -0.7487  -0.6637   C.3       1 RES1   0.0000
    45 H12     13.9607   0.1941  -0.5812   H         1 RES1   0.0000
    46 H13     14.2112  -1.0789  -1.4521   H         1 RES1   0.0000
    47 F3       5.2014  -1.0260   4.7009   F         1 RES1   0.0000
    48 C17     14.3198  -1.4621   0.5445   C.3       1 RES1   0.0000
    49 H14     13.9926  -2.3759   0.5537   H         1 RES1   0.0000
    50 H15     15.2866  -1.4936   0.4675   H         1 RES1   0.0000
    51 C18      9.3149   2.2398   7.3814   C.2       1 RES1   0.0000
    52 C19     10.7408  -4.1582   2.9555   C.3       1 RES1   0.0000
    53 H16     10.8009  -4.4972   3.8502   H         1 RES1   0.0000
    54 H17     11.4640  -4.5124   2.4293   H         1 RES1   0.0000
    55 H18      9.9045  -4.4229   2.5668   H         1 RES1   0.0000
    56 C20      7.7330   2.9217   0.3759   C.ar      1 RES1   0.0000
    57 H19      7.1740   3.4927  -0.0990   H         1 RES1   0.0000
    58 C21     12.2729  -0.8836  -0.8929   C.3       1 RES1   0.0000
    59 H20     12.0660  -0.5861  -1.7931   H         1 RES1   0.0000
    60 H21     12.0277  -1.8201  -0.8287   H         1 RES1   0.0000
    61 C22      5.9158  -2.0747   4.7138   C.3       1 RES1   0.0000
    62 F4       5.9887  -2.4541   3.4652   F         1 RES1   0.0000
    63 C23     10.0890   3.2847   6.9836   C.2       1 RES1   0.0000
    64 H22     10.1226   4.0485   7.5116   H         1 RES1   0.0000
    65 C24      9.0790  -2.5499   6.7507   C.2       1 RES1   0.0000
    66 C25     10.8257   3.2419   5.8157   C.2       1 RES1   0.0000
    67 F5      10.0384  -3.0654   8.7913   F         1 RES1   0.0000
    68 F6       7.2766   2.1352   8.4888   F         1 RES1   0.0000
    69 F7      10.5220  -4.2893   7.2164   F         1 RES1   0.0000
    70 F8       8.6026   3.5204   9.2332   F         1 RES1   0.0000
    71 F9      11.5770   4.7859   4.3141   F         1 RES1   0.0000
    72 C26      9.6073  -3.5960   7.7169   C.3       1 RES1   0.0000
    73 F10     11.3563   5.5031   6.0540   F         1 RES1   0.0000
    74 F11      8.8765   1.5113   9.5210   F         1 RES1   0.0000
    75 C27     11.5954   4.4935   5.4838   C.3       1 RES1   0.0000
    76 C28      8.5041   2.3986   8.6501   C.3       1 RES1   0.0000
    77 F12     12.7607   4.3347   5.4893   F         1 RES1   0.0000
    78 C29     15.8342   0.0958   4.8384   C.ar      1 RES1   0.0000
    79 H23     16.6740   0.0328   4.4442   H         1 RES1   0.0000
    80 C30     14.5269   0.4588   6.7672   C.ar      1 RES1   0.0000
    81 H24     14.4730   0.6567   7.6748   H         1 RES1   0.0000
    82 C31     15.7584   0.4096   6.1420   C.ar      1 RES1   0.0000
    83 H25     16.5319   0.5949   6.6242   H         1 RES1   0.0000
@<TRIPOS>BOND
     1     1     3    1
     2     2     4    1
     3     3    51   un
     4     4     1    1
     5     5     1    1
     6     6     1    1
     7     7     2    1
     8     8     4    1
     9     9     2    1
    10    10     8   ar
    11    11    33   ar
    12    12    13    1
    13    14     1    1
    14    15     5    1
    15    16     6    1
    16    17    16    1
    17    18    16    1
    18    19    16    1
    19    20     6    1
    20    21     5    1
    21    22    21    1
    22    23    21    1
    23    24    21    1
    24    25     1    1
    25    26    15   ar
    26    27    26    1
    27    28     2    1
    28    29    10    1
    29    30    29    1
    30    31     1    1
    31    32    12   un
    32    33    15   ar
    33    34     2    1
    34    35     1    1
    35    36     1    1
    36    37     7    2
    37    38    37    1
    38    39    11   ar
    39    40    39    1
    40    41    61    1
    41    42    72    1
    42    43    31   un
    43    44    45    1
    44    46    44    1
    45    47    61    1
    46    48    28    1
    47    49    48    1
    48    50    48    1
    49    51    63   un
    50    52    43    1
    51    53    52    1
    52    54    52    1
    53    55    52    1
    54    56    26   ar
    55    57    56    1
    56    58     7    1
    57    59    58    1
    58    60    58    1
    59    61    32    1
    60    62    61    1
    61    63    64    1
    62    65    12   un
    63    66    14   un
    64    67    72    1
    65    68    76    1
    66    69    72    1
    67    70    76    1
    68    71    75    1
    69    72    65    1
    70    73    75    1
    71    74    76    1
    72    75    66    1
    73    76    51    1
    74    77    75    1
    75    78    10   ar
    76    79    78    1
    77    80    20   ar
    78    81    80    1
    79    82    78   ar
    80    83    82    1
    81     2    36    1
    82     8    20   ar
    83    11    37    1
    84    25    65   un
    85    28    29    2
    86    32    35   un
    87    33    36    1
    88    34    43   un
    89    39    56   ar
    90    44    48    1
    91    44    58    1
    92    63    66   un
    93    80    82   ar
@<TRIPOS>SUBSTRUCTURE
     1 RES1        1 GROUP             0 ****  ****    0  
@<TRIPOS>CRYSIN
   16.9739   12.6044   18.5271   90.0000   98.2720   90.0000    14     2
