@<TRIPOS>MOLECULE
EYETEH
    89    94     1     0     0
SMALL
NO_CHARGES
****
Generated from the CSD

@<TRIPOS>ATOM
     1 Fe1      0.0000   0.0000   0.0000   Fe        1 RES1   0.0000
     2 Si1     -2.2425   1.7267   1.9286   Si        1 RES1   0.0000
     3 N1      -1.3354   0.3996   1.3146   N.2       1 RES1   0.0000
     4 C1      -0.9818  -0.8824   1.6138   C.3       1 RES1   0.0000
     5 C2      -0.9998  -1.7752   0.5296   C.3       1 RES1   0.0000
     6 H1      -0.3285  -2.4470   0.5400   H         1 RES1   0.0000
     7 C3      -1.9187  -1.8125  -0.6276   C.ar      1 RES1   0.0000
     8 C4      -1.6944  -2.7712  -1.6242   C.ar      1 RES1   0.0000
     9 H2      -0.9441  -3.3502  -1.5471   H         1 RES1   0.0000
    10 C5      -2.5290  -2.8951  -2.7126   C.ar      1 RES1   0.0000
    11 H3      -2.3352  -3.5495  -3.3735   H         1 RES1   0.0000
    12 C6      -3.6472  -2.0881  -2.8669   C.ar      1 RES1   0.0000
    13 C7      -3.8895  -1.1528  -1.8682   C.ar      1 RES1   0.0000
    14 H4      -4.6578  -0.5972  -1.9265   H         1 RES1   0.0000
    15 C8      -3.0334  -1.0150  -0.7860   C.ar      1 RES1   0.0000
    16 H5      -3.2183  -0.3502  -0.1314   H         1 RES1   0.0000
    17 C9      -4.5752  -2.2346  -4.0491   C.3       1 RES1   0.0000
    18 H6      -4.2413  -2.9419  -4.6391   H         1 RES1   0.0000
    19 H7      -4.6129  -1.3877  -4.5411   H         1 RES1   0.0000
    20 H8      -5.4727  -2.4686  -3.7342   H         1 RES1   0.0000
    21 C10     -0.4128  -1.2777   2.9899   C.3       1 RES1   0.0000
    22 C11      0.2459  -2.6680   2.9732   C.3       1 RES1   0.0000
    23 H9       0.5887  -2.8769   3.8677   H         1 RES1   0.0000
    24 H10      0.9854  -2.6706   2.3289   H         1 RES1   0.0000
    25 H11     -0.4164  -3.3406   2.7126   H         1 RES1   0.0000
    26 C12     -1.5957  -1.3297   3.9615   C.3       1 RES1   0.0000
    27 H12     -1.2744  -1.5871   4.8518   H         1 RES1   0.0000
    28 H13     -2.2490  -1.9884   3.6467   H         1 RES1   0.0000
    29 H14     -2.0175  -0.4473   4.0095   H         1 RES1   0.0000
    30 C13      0.6318  -0.2713   3.4611   C.3       1 RES1   0.0000
    31 H15      0.9800  -0.5487   4.3347   H         1 RES1   0.0000
    32 H16      0.2190   0.6137   3.5424   H         1 RES1   0.0000
    33 H17      1.3641  -0.2340   2.8127   H         1 RES1   0.0000
    34 C14     -1.6711   2.5397   3.5237   C.3       1 RES1   0.0000
    35 H18     -1.6675   1.8766   4.2451   H         1 RES1   0.0000
    36 H19     -2.2831   3.2704   3.7530   H         1 RES1   0.0000
    37 H20     -0.7664   2.8960   3.4027   H         1 RES1   0.0000
    38 C15     -3.9972   1.1728   2.2247   C.3       1 RES1   0.0000
    39 H21     -4.0098   0.4854   2.9232   H         1 RES1   0.0000
    40 H22     -4.3670   0.8044   1.3970   H         1 RES1   0.0000
    41 H23     -4.5375   1.9390   2.5124   H         1 RES1   0.0000
    42 C16     -2.2257   3.0312   0.6067   C.3       1 RES1   0.0000
    43 H24     -1.3049   3.3233   0.4462   H         1 RES1   0.0000
    44 H25     -2.7659   3.7966   0.8966   H         1 RES1   0.0000
    45 H26     -2.5990   2.6619  -0.2210   H         1 RES1   0.0000
    46 N1D      1.3354  -0.3996  -1.3146   N.2       1 RES1   0.0000
    47 Si1D     2.2425  -1.7267  -1.9286   Si        1 RES1   0.0000
    48 C14D     1.6711  -2.5397  -3.5237   C.3       1 RES1   0.0000
    49 H18D     1.6675  -1.8766  -4.2451   H         1 RES1   0.0000
    50 H19D     2.2831  -3.2704  -3.7530   H         1 RES1   0.0000
    51 H20D     0.7664  -2.8960  -3.4027   H         1 RES1   0.0000
    52 C15D     3.9972  -1.1728  -2.2247   C.3       1 RES1   0.0000
    53 H21D     4.0098  -0.4854  -2.9232   H         1 RES1   0.0000
    54 H22D     4.3670  -0.8044  -1.3970   H         1 RES1   0.0000
    55 H23D     4.5375  -1.9390  -2.5124   H         1 RES1   0.0000
    56 C16D     2.2257  -3.0312  -0.6067   C.3       1 RES1   0.0000
    57 H24D     1.3049  -3.3233  -0.4462   H         1 RES1   0.0000
    58 H25D     2.7659  -3.7966  -0.8966   H         1 RES1   0.0000
    59 H26D     2.5990  -2.6619   0.2210   H         1 RES1   0.0000
    60 C1D      0.9818   0.8824  -1.6138   C.3       1 RES1   0.0000
    61 C2D      0.9998   1.7752  -0.5296   C.3       1 RES1   0.0000
    62 C10D     0.4128   1.2777  -2.9899   C.3       1 RES1   0.0000
    63 C11D    -0.2459   2.6680  -2.9732   C.3       1 RES1   0.0000
    64 H9D     -0.5887   2.8769  -3.8677   H         1 RES1   0.0000
    65 H10D    -0.9854   2.6706  -2.3289   H         1 RES1   0.0000
    66 H11D     0.4164   3.3406  -2.7126   H         1 RES1   0.0000
    67 C12D     1.5957   1.3297  -3.9615   C.3       1 RES1   0.0000
    68 H12D     1.2744   1.5871  -4.8518   H         1 RES1   0.0000
    69 H13D     2.2490   1.9884  -3.6467   H         1 RES1   0.0000
    70 H14D     2.0175   0.4473  -4.0095   H         1 RES1   0.0000
    71 C13D    -0.6318   0.2713  -3.4611   C.3       1 RES1   0.0000
    72 H15D    -0.9800   0.5487  -4.3347   H         1 RES1   0.0000
    73 H16D    -0.2190  -0.6137  -3.5424   H         1 RES1   0.0000
    74 H17D    -1.3641   0.2340  -2.8127   H         1 RES1   0.0000
    75 H1D      0.3285   2.4470  -0.5400   H         1 RES1   0.0000
    76 C3D      1.9187   1.8125   0.6276   C.ar      1 RES1   0.0000
    77 C4D      1.6944   2.7712   1.6242   C.ar      1 RES1   0.0000
    78 H2D      0.9441   3.3502   1.5471   H         1 RES1   0.0000
    79 C5D      2.5290   2.8951   2.7126   C.ar      1 RES1   0.0000
    80 H3D      2.3352   3.5495   3.3735   H         1 RES1   0.0000
    81 C6D      3.6472   2.0881   2.8669   C.ar      1 RES1   0.0000
    82 C7D      3.8895   1.1528   1.8682   C.ar      1 RES1   0.0000
    83 H4D      4.6578   0.5972   1.9265   H         1 RES1   0.0000
    84 C8D      3.0334   1.0150   0.7860   C.ar      1 RES1   0.0000
    85 H5D      3.2183   0.3502   0.1314   H         1 RES1   0.0000
    86 C9D      4.5752   2.2346   4.0491   C.3       1 RES1   0.0000
    87 H6D      4.2413   2.9419   4.6391   H         1 RES1   0.0000
    88 H7D      4.6129   1.3877   4.5411   H         1 RES1   0.0000
    89 H8D      5.4727   2.4686   3.7342   H         1 RES1   0.0000
@<TRIPOS>BOND
     1     1     3   un
     2     2     3    1
     3     3     4   un
     4     4     1   un
     5     5     1   un
     6     6     5    1
     7     7     5    1
     8     8     7   ar
     9     9     8    1
    10    10     8   ar
    11    11    10    1
    12    12    10   ar
    13    13    12   ar
    14    14    13    1
    15    15     7   ar
    16    16    15    1
    17    17    12    1
    18    18    17    1
    19    19    17    1
    20    20    17    1
    21    21     4    1
    22    22    21    1
    23    23    22    1
    24    24    22    1
    25    25    22    1
    26    26    21    1
    27    27    26    1
    28    28    26    1
    29    29    26    1
    30    30    21    1
    31    31    30    1
    32    32    30    1
    33    33    30    1
    34    34     2    1
    35    35    34    1
    36    36    34    1
    37    37    34    1
    38    38     2    1
    39    39    38    1
    40    40    38    1
    41    41    38    1
    42    42     2    1
    43    43    42    1
    44    44    42    1
    45    45    42    1
    46    46     1   un
    47    47    46    1
    48    48    47    1
    49    49    48    1
    50    50    48    1
    51    51    48    1
    52    52    47    1
    53    53    52    1
    54    54    52    1
    55    55    52    1
    56    56    47    1
    57    57    56    1
    58    58    56    1
    59    59    56    1
    60    60     1   un
    61    61     1   un
    62    62    60    1
    63    63    62    1
    64    64    63    1
    65    65    63    1
    66    66    63    1
    67    67    62    1
    68    68    67    1
    69    69    67    1
    70    70    67    1
    71    71    62    1
    72    72    71    1
    73    73    71    1
    74    74    71    1
    75    75    61    1
    76    76    61    1
    77    77    76   ar
    78    78    77    1
    79    79    77   ar
    80    80    79    1
    81    81    79   ar
    82    82    81   ar
    83    83    82    1
    84    84    76   ar
    85    85    84    1
    86    86    81    1
    87    87    86    1
    88    88    86    1
    89    89    86    1
    90     4     5   un
    91    13    15   ar
    92    46    60   un
    93    60    61   un
    94    82    84   ar
@<TRIPOS>SUBSTRUCTURE
     1 RES1        1 GROUP             0 ****  ****    0  
@<TRIPOS>CRYSIN
   17.9490    8.6680   20.8500   90.0000   90.0000   90.0000    61     1
