@<TRIPOS>MOLECULE
EYEVAF
    87    90     1     0     0
SMALL
NO_CHARGES
****
Generated from the CSD

@<TRIPOS>ATOM
     1 Fe1      3.8066   2.9178   8.9666   Fe        1 RES1   0.0000
     2 Si1      5.9562   2.1493   6.5137   Si        1 RES1   0.0000
     3 Si2      3.0119  -0.2333   8.9314   Si        1 RES1   0.0000
     4 N1       4.4302   2.1626   7.3223   N.2       1 RES1   0.0000
     5 C1       3.1010   2.0051   7.1654   C.3       1 RES1   0.0000
     6 C2       2.4931   1.4414   8.3341   C.3       1 RES1   0.0000
     7 H1       1.6271   1.5756   8.4107   H         1 RES1   0.0000
     8 C3       2.2838   2.4124   5.9251   C.3       1 RES1   0.0000
     9 C4       3.0915   3.2235   4.9334   C.3       1 RES1   0.0000
    10 H2       2.5385   3.4546   4.1820   H         1 RES1   0.0000
    11 H3       3.8409   2.7065   4.6321   H         1 RES1   0.0000
    12 H4       3.4060   4.0253   5.3566   H         1 RES1   0.0000
    13 C5       1.8324   1.1017   5.2580   C.3       1 RES1   0.0000
    14 H5       1.3136   0.5882   5.8821   H         1 RES1   0.0000
    15 H6       2.6050   0.5964   4.9908   H         1 RES1   0.0000
    16 H7       1.2988   1.3025   4.4869   H         1 RES1   0.0000
    17 C6       1.0486   3.2154   6.3304   C.3       1 RES1   0.0000
    18 H8       0.5251   2.7065   6.9527   H         1 RES1   0.0000
    19 H9       0.5215   3.4068   5.5503   H         1 RES1   0.0000
    20 H10      1.3221   4.0393   6.7411   H         1 RES1   0.0000
    21 C7       6.5090   3.8421   5.9933   C.3       1 RES1   0.0000
    22 H11      5.8873   4.2016   5.3566   H         1 RES1   0.0000
    23 H12      7.3807   3.7861   5.5951   H         1 RES1   0.0000
    24 H13      6.5477   4.4175   6.7626   H         1 RES1   0.0000
    25 C8       7.2078   1.5301   7.7364   C.3       1 RES1   0.0000
    26 H14      6.9598   0.6501   8.0287   H         1 RES1   0.0000
    27 H15      7.2387   2.1230   8.4914   H         1 RES1   0.0000
    28 H16      8.0719   1.4974   7.3203   H         1 RES1   0.0000
    29 C9       5.9384   0.9815   5.0715   C.3       1 RES1   0.0000
    30 H17      5.2979   1.2826   4.4241   H         1 RES1   0.0000
    31 H18      5.6998   0.1027   5.3746   H         1 RES1   0.0000
    32 H19      6.8102   0.9559   4.6698   H         1 RES1   0.0000
    33 C10      4.1927  -0.3116  10.3600   C.3       1 RES1   0.0000
    34 H20      4.3858  -1.2290  10.5662   H         1 RES1   0.0000
    35 H21      3.7967   0.1120  11.1257   H         1 RES1   0.0000
    36 H22      5.0060   0.1412  10.1269   H         1 RES1   0.0000
    37 C11      1.4594  -1.1122   9.4562   C.3       1 RES1   0.0000
    38 H23      1.6821  -1.9887   9.7772   H         1 RES1   0.0000
    39 H24      0.8667  -1.1869   8.7048   H         1 RES1   0.0000
    40 H25      1.0313  -0.6139  10.1555   H         1 RES1   0.0000
    41 C12      3.7919  -1.1974   7.5624   C.3       1 RES1   0.0000
    42 H26      4.0622  -2.0588   7.8906   H         1 RES1   0.0000
    43 H27      4.5609  -0.7248   7.2360   H         1 RES1   0.0000
    44 H28      3.1589  -1.3107   6.8487   H         1 RES1   0.0000
    45 N1E      3.1830   3.6729  10.6109   N.2       1 RES1   0.0000
    46 Si1E     1.6570   3.6862  11.4195   Si        1 RES1   0.0000
    47 C7E      1.1042   1.9934  11.9399   C.3       1 RES1   0.0000
    48 H11E     1.7259   1.6339  12.5765   H         1 RES1   0.0000
    49 H12E     0.2325   2.0494  12.3380   H         1 RES1   0.0000
    50 H13E     1.0656   1.4180  11.1706   H         1 RES1   0.0000
    51 C8E      0.4055   4.3054  10.1968   C.3       1 RES1   0.0000
    52 H14E     0.6534   5.1854   9.9045   H         1 RES1   0.0000
    53 H15E     0.3745   3.7125   9.4418   H         1 RES1   0.0000
    54 H16E    -0.4587   4.3381  10.6128   H         1 RES1   0.0000
    55 C9E      1.6748   4.8540  12.8617   C.3       1 RES1   0.0000
    56 H17E     2.3153   4.5529  13.5090   H         1 RES1   0.0000
    57 H18E     1.9134   5.7328  12.5586   H         1 RES1   0.0000
    58 H19E     0.8030   4.8796  13.2634   H         1 RES1   0.0000
    59 C1E      4.5123   3.8304  10.7678   C.3       1 RES1   0.0000
    60 C2E      5.1201   4.3941   9.5991   C.3       1 RES1   0.0000
    61 Si2E     4.6013   6.0688   9.0017   Si        1 RES1   0.0000
    62 C10E     3.4205   6.1471   7.5732   C.3       1 RES1   0.0000
    63 H20E     3.2275   7.0645   7.3669   H         1 RES1   0.0000
    64 H21E     3.8165   5.7235   6.8074   H         1 RES1   0.0000
    65 H22E     2.6072   5.6943   7.8063   H         1 RES1   0.0000
    66 C11E     6.1538   6.9477   8.4770   C.3       1 RES1   0.0000
    67 H23E     5.9311   7.8242   8.1560   H         1 RES1   0.0000
    68 H24E     6.7465   7.0224   9.2284   H         1 RES1   0.0000
    69 H25E     6.5819   6.4494   7.7776   H         1 RES1   0.0000
    70 C12E     3.8213   7.0329  10.3707   C.3       1 RES1   0.0000
    71 H26E     3.5511   7.8943  10.0426   H         1 RES1   0.0000
    72 H27E     3.0524   6.5603  10.6971   H         1 RES1   0.0000
    73 H28E     4.4543   7.1462  11.0845   H         1 RES1   0.0000
    74 C3E      5.3294   3.4231  12.0080   C.3       1 RES1   0.0000
    75 C4E      4.5217   2.6120  12.9997   C.3       1 RES1   0.0000
    76 H2E      5.0747   2.3809  13.7511   H         1 RES1   0.0000
    77 H3E      3.7723   3.1290  13.3010   H         1 RES1   0.0000
    78 H4E      4.2072   1.8102  12.5765   H         1 RES1   0.0000
    79 C5E      5.7808   4.7338  12.6752   C.3       1 RES1   0.0000
    80 H5E      6.2996   5.2473  12.0511   H         1 RES1   0.0000
    81 H6E      5.0082   5.2391  12.9424   H         1 RES1   0.0000
    82 H7E      6.3144   4.5330  13.4463   H         1 RES1   0.0000
    83 C6E      6.5646   2.6201  11.6028   C.3       1 RES1   0.0000
    84 H8E      7.0881   3.1290  10.9805   H         1 RES1   0.0000
    85 H9E      7.0917   2.4287  12.3828   H         1 RES1   0.0000
    86 H10E     6.2911   1.7962  11.1921   H         1 RES1   0.0000
    87 H1E      5.9861   4.2599   9.5225   H         1 RES1   0.0000
@<TRIPOS>BOND
     1     1     4   un
     2     2     4    1
     3     3     6    1
     4     4     5   un
     5     5     1   un
     6     6     1   un
     7     7     6    1
     8     8     5    1
     9     9     8    1
    10    10     9    1
    11    11     9    1
    12    12     9    1
    13    13     8    1
    14    14    13    1
    15    15    13    1
    16    16    13    1
    17    17     8    1
    18    18    17    1
    19    19    17    1
    20    20    17    1
    21    21     2    1
    22    22    21    1
    23    23    21    1
    24    24    21    1
    25    25     2    1
    26    26    25    1
    27    27    25    1
    28    28    25    1
    29    29     2    1
    30    30    29    1
    31    31    29    1
    32    32    29    1
    33    33     3    1
    34    34    33    1
    35    35    33    1
    36    36    33    1
    37    37     3    1
    38    38    37    1
    39    39    37    1
    40    40    37    1
    41    41     3    1
    42    42    41    1
    43    43    41    1
    44    44    41    1
    45    45     1   un
    46    46    45    1
    47    47    46    1
    48    48    47    1
    49    49    47    1
    50    50    47    1
    51    51    46    1
    52    52    51    1
    53    53    51    1
    54    54    51    1
    55    55    46    1
    56    56    55    1
    57    57    55    1
    58    58    55    1
    59    59     1   un
    60    60     1   un
    61    61    60    1
    62    62    61    1
    63    63    62    1
    64    64    62    1
    65    65    62    1
    66    66    61    1
    67    67    66    1
    68    68    66    1
    69    69    66    1
    70    70    61    1
    71    71    70    1
    72    72    70    1
    73    73    70    1
    74    74    59    1
    75    75    74    1
    76    76    75    1
    77    77    75    1
    78    78    75    1
    79    79    74    1
    80    80    79    1
    81    81    79    1
    82    82    79    1
    83    83    74    1
    84    84    83    1
    85    85    83    1
    86    86    83    1
    87    87    60    1
    88     5     6   un
    89    45    59   un
    90    59    60   un
@<TRIPOS>SUBSTRUCTURE
     1 RES1        1 GROUP             0 ****  ****    0  
@<TRIPOS>CRYSIN
   15.8650   11.6710   17.9360   90.0000   91.0200   90.0000    15     1
