@<TRIPOS>MOLECULE
EYEVAF01
    87    90     1     0     0
SMALL
NO_CHARGES
****
Generated from the CSD

@<TRIPOS>ATOM
     1 Fe1      3.8163   2.8845   8.8738   Fe        1 RES1   0.0000
     2 Si1      2.9962   6.0175   8.8424   Si        1 RES1   0.0000
     3 Si2      5.9641   3.6745   6.4369   Si        1 RES1   0.0000
     4 N1       4.4333   3.6517   7.2370   N.2       1 RES1   0.0000
     5 C1       2.4777   4.3265   8.2394   C.3       1 RES1   0.0000
     6 C2       3.1032   3.7944   7.0769   C.3       1 RES1   0.0000
     7 C3       2.2999   3.3841   5.8377   C.3       1 RES1   0.0000
     8 C4       1.0764   2.5534   6.2309   C.3       1 RES1   0.0000
     9 H1       1.3591   1.7849   6.7317   H         1 RES1   0.0000
    10 H2       0.6167   2.2661   5.4379   H         1 RES1   0.0000
    11 H3       0.4859   3.0864   6.7690   H         1 RES1   0.0000
    12 C5       1.8362   4.6833   5.1614   C.3       1 RES1   0.0000
    13 H4       1.3455   4.4710   4.3642   H         1 RES1   0.0000
    14 H5       2.6022   5.2152   4.9339   H         1 RES1   0.0000
    15 H6       1.2735   5.1736   5.7644   H         1 RES1   0.0000
    16 C6       3.1304   2.5891   4.8309   C.3       1 RES1   0.0000
    17 H7       3.4695   1.7953   5.2515   H         1 RES1   0.0000
    18 H8       3.8645   3.1268   4.5257   H         1 RES1   0.0000
    19 H9       2.5796   2.3445   4.0837   H         1 RES1   0.0000
    20 C7       7.1926   4.3314   7.6604   C.3       1 RES1   0.0000
    21 H10      6.9374   5.2175   7.9261   H         1 RES1   0.0000
    22 H11      8.0632   4.3567   7.2570   H         1 RES1   0.0000
    23 H12      7.2138   3.7591   8.4302   H         1 RES1   0.0000
    24 C8       5.9349   4.8321   4.9759   C.3       1 RES1   0.0000
    25 H13      5.0700   5.2463   4.9126   H         1 RES1   0.0000
    26 H14      6.1135   4.3383   4.1725   H         1 RES1   0.0000
    27 H15      6.6062   5.5094   5.0900   H         1 RES1   0.0000
    28 C9       6.5335   1.9799   5.9299   C.3       1 RES1   0.0000
    29 H16      6.4488   1.3776   6.6731   H         1 RES1   0.0000
    30 H17      7.4517   2.0203   5.6526   H         1 RES1   0.0000
    31 H18      5.9926   1.6649   5.2018   H         1 RES1   0.0000
    32 H19      4.9642   5.7021  10.1304   H         1 RES1   0.0000
    33 H20      3.7064   5.6305  11.0692   H         1 RES1   0.0000
    34 H21      4.2507   7.0220  10.5865   H         1 RES1   0.0000
    35 C10      4.0993   6.1001  10.3339   C.3       1 RES1   0.0000
    36 C11      3.8410   6.9655   7.4888   C.3       1 RES1   0.0000
    37 H22      4.0069   7.8643   7.7841   H         1 RES1   0.0000
    38 H23      3.2791   6.9828   6.7104   H         1 RES1   0.0000
    39 H24      4.6740   6.5409   7.2712   H         1 RES1   0.0000
    40 C12      1.4276   6.9286   9.2638   C.3       1 RES1   0.0000
    41 H25      1.6406   7.8262   9.5287   H         1 RES1   0.0000
    42 H26      0.9805   6.4797   9.9848   H         1 RES1   0.0000
    43 H27      0.8526   6.9493   8.4940   H         1 RES1   0.0000
    44 H28      1.6490   4.2344   8.3219   H         1 RES1   0.0000
    45 Si1E     4.6364  -0.2485   8.9053   Si        1 RES1   0.0000
    46 Si2E     1.6685   2.0945  11.3108   Si        1 RES1   0.0000
    47 N1E      3.1993   2.1173  10.5107   N.2       1 RES1   0.0000
    48 C1E      5.1549   1.4425   9.5083   C.3       1 RES1   0.0000
    49 C2E      4.5294   1.9746  10.6708   C.3       1 RES1   0.0000
    50 C3E      5.3327   2.3849  11.9099   C.3       1 RES1   0.0000
    51 C4E      6.5562   3.2156  11.5168   C.3       1 RES1   0.0000
    52 H1E      6.2735   3.9841  11.0160   H         1 RES1   0.0000
    53 H2E      7.0159   3.5029  12.3098   H         1 RES1   0.0000
    54 H3E      7.1467   2.6826  10.9787   H         1 RES1   0.0000
    55 C5E      5.7964   1.0857  12.5863   C.3       1 RES1   0.0000
    56 H4E      6.2871   1.2980  13.3835   H         1 RES1   0.0000
    57 H5E      5.0304   0.5538  12.8138   H         1 RES1   0.0000
    58 H6E      6.3591   0.5954  11.9832   H         1 RES1   0.0000
    59 C6E      4.5022   3.1799  12.9168   C.3       1 RES1   0.0000
    60 H7E      4.1631   3.9737  12.4961   H         1 RES1   0.0000
    61 H8E      3.7681   2.6422  13.2220   H         1 RES1   0.0000
    62 H9E      5.0530   3.4245  13.6639   H         1 RES1   0.0000
    63 C7E      0.4400   1.4376  10.0873   C.3       1 RES1   0.0000
    64 H10E     0.6952   0.5515   9.8216   H         1 RES1   0.0000
    65 H11E    -0.4306   1.4123  10.4907   H         1 RES1   0.0000
    66 H12E     0.4188   2.0099   9.3175   H         1 RES1   0.0000
    67 C8E      1.6977   0.9369  12.7718   C.3       1 RES1   0.0000
    68 H13E     2.5626   0.5227  12.8351   H         1 RES1   0.0000
    69 H14E     1.5191   1.4307  13.5752   H         1 RES1   0.0000
    70 H15E     1.0264   0.2596  12.6577   H         1 RES1   0.0000
    71 C9E      1.0991   3.7891  11.8178   C.3       1 RES1   0.0000
    72 H16E     1.1838   4.3914  11.0746   H         1 RES1   0.0000
    73 H17E     0.1809   3.7487  12.0950   H         1 RES1   0.0000
    74 H18E     1.6400   4.1041  12.5458   H         1 RES1   0.0000
    75 H19E     2.6684   0.0669   7.6173   H         1 RES1   0.0000
    76 H20E     3.9262   0.1385   6.6785   H         1 RES1   0.0000
    77 H21E     3.3819  -1.2530   7.1612   H         1 RES1   0.0000
    78 C10E     3.5333  -0.3311   7.4137   C.3       1 RES1   0.0000
    79 C11E     3.7916  -1.1965  10.2589   C.3       1 RES1   0.0000
    80 H22E     3.6257  -2.0953   9.9636   H         1 RES1   0.0000
    81 H23E     4.3535  -1.2138  11.0373   H         1 RES1   0.0000
    82 H24E     2.9586  -0.7719  10.4765   H         1 RES1   0.0000
    83 C12E     6.2049  -1.1596   8.4839   C.3       1 RES1   0.0000
    84 H25E     5.9920  -2.0572   8.2190   H         1 RES1   0.0000
    85 H26E     6.6521  -0.7107   7.7628   H         1 RES1   0.0000
    86 H27E     6.7800  -1.1803   9.2536   H         1 RES1   0.0000
    87 H28E     5.9836   1.5346   9.4258   H         1 RES1   0.0000
@<TRIPOS>BOND
     1     1     4   un
     2     2     5    1
     3     3     4    1
     4     4     6   un
     5     5     1   un
     6     6     1   un
     7     7     6    1
     8     8     7    1
     9     9     8    1
    10    10     8    1
    11    11     8    1
    12    12     7    1
    13    13    12    1
    14    14    12    1
    15    15    12    1
    16    16     7    1
    17    17    16    1
    18    18    16    1
    19    19    16    1
    20    20     3    1
    21    21    20    1
    22    22    20    1
    23    23    20    1
    24    24     3    1
    25    25    24    1
    26    26    24    1
    27    27    24    1
    28    28     3    1
    29    29    28    1
    30    30    28    1
    31    31    28    1
    32    32    35    1
    33    33    35    1
    34    34    35    1
    35    35     2    1
    36    36     2    1
    37    37    36    1
    38    38    36    1
    39    39    36    1
    40    40     2    1
    41    41    40    1
    42    42    40    1
    43    43    40    1
    44    44     5    1
    45    45    48    1
    46    46    47    1
    47    47     1   un
    48    48     1   un
    49    49     1   un
    50    50    49    1
    51    51    50    1
    52    52    51    1
    53    53    51    1
    54    54    51    1
    55    55    50    1
    56    56    55    1
    57    57    55    1
    58    58    55    1
    59    59    50    1
    60    60    59    1
    61    61    59    1
    62    62    59    1
    63    63    46    1
    64    64    63    1
    65    65    63    1
    66    66    63    1
    67    67    46    1
    68    68    67    1
    69    69    67    1
    70    70    67    1
    71    71    46    1
    72    72    71    1
    73    73    71    1
    74    74    71    1
    75    75    78    1
    76    76    78    1
    77    77    78    1
    78    78    45    1
    79    79    45    1
    80    80    79    1
    81    81    79    1
    82    82    79    1
    83    83    45    1
    84    84    83    1
    85    85    83    1
    86    86    83    1
    87    87    48    1
    88     5     6   un
    89    47    49   un
    90    48    49   un
@<TRIPOS>SUBSTRUCTURE
     1 RES1        1 GROUP             0 ****  ****    0  
@<TRIPOS>CRYSIN
   15.6970   11.5380   17.7490   90.0000   90.6970   90.0000    15     1
