@<TRIPOS>MOLECULE
EYIFOH
    80    85     3     0     0
SMALL
USER_CHARGES
****
Generated from the CSD

@<TRIPOS>ATOM
     1 Fe1      4.5612  13.9650   3.4399   Fe        1 RES1   0.0000
     2 N1       6.0899  12.6891   1.0713   N.1       1 RES1   0.0000
     3 N2       3.1650  15.1095   5.9377   N.1       1 RES1   0.0000
     4 N3       3.9320  11.1466   4.4891   N.1       1 RES1   0.0000
     5 N4       2.9199  14.2705   2.4208   N.ar      1 RES1   0.0000
     6 N5       4.9684  15.7169   2.8487   N.am      1 RES1   0.0000
     7 N6       6.2812  14.1307   4.3624   N.ar      1 RES1   0.0000
     8 O1       4.0085  17.5566   1.8193   O.2       1 RES1   0.0000
     9 O2       6.6290  17.3066   2.9196   O.2       1 RES1   0.0000
    10 C1       5.4867  13.1314   1.9376   C.1       1 RES1   0.0000
    11 C2       3.6569  14.6393   5.0267   C.1       1 RES1  -1.0000
    12 C3       4.1496  12.1804   4.0724   C.1       1 RES1   0.0000
    13 C4       1.9072  13.4267   2.2084   C.ar      1 RES1   0.0000
    14 C5       0.7454  13.8193   1.5656   C.ar      1 RES1   0.0000
    15 C6       0.6309  15.1006   1.1305   C.ar      1 RES1   0.0000
    16 C7       1.6732  15.9642   1.3040   C.ar      1 RES1   0.0000
    17 C8       2.8058  15.5277   1.9508   C.ar      1 RES1   0.0000
    18 C9       3.9846  16.3991   2.1782   C.2       1 RES1   0.0000
    19 C10      6.1753  16.2365   3.2258   C.2       1 RES1   0.0000
    20 C11      6.9011  15.2936   4.1053   C.ar      1 RES1   0.0000
    21 C12      8.1213  15.5944   4.6666   C.ar      1 RES1   0.0000
    22 C13      8.6945  14.7029   5.5394   C.ar      1 RES1   0.0000
    23 C14      8.0577  13.5349   5.8115   C.ar      1 RES1   0.0000
    24 C15      6.8484  13.2571   5.1924   C.ar      1 RES1   0.0000
    25 H3       1.9919  12.4780   2.5265   H         1 RES1   0.0000
    26 H4       0.0010  13.1639   1.4210   H         1 RES1   0.0000
    27 H5      -0.2104  15.4108   0.6849   H         1 RES1   0.0000
    28 H6       1.6126  16.9050   0.9662   H         1 RES1   0.0000
    29 H7       8.5869  16.4567   4.4392   H         1 RES1   0.0000
    30 H8       9.5733  14.9096   5.9745   H         1 RES1   0.0000
    31 H9       8.4598  12.8765   6.4530   H         1 RES1   0.0000
    32 H10      6.3893  12.3833   5.3751   H         1 RES1   0.0000
    33 P1       6.2045  15.6797   9.9872   P.3       2 RES2   1.0000
    34 C16      5.7097  16.9706   8.8402   C.ar      2 RES2   0.0000
    35 C17      4.7973  17.9449   9.2122   C.ar      2 RES2   0.0000
    36 C18      4.4778  18.9402   8.3012   C.ar      2 RES2   0.0000
    37 C19      5.0386  18.9623   7.0629   C.ar      2 RES2   0.0000
    38 C20      5.9427  17.9999   6.6962   C.ar      2 RES2   0.0000
    39 C21      6.2806  17.0004   7.5835   C.ar      2 RES2   0.0000
    40 C22      5.4243  14.1272   9.5750   C.ar      2 RES2   0.0000
    41 C23      4.9410  13.8934   8.3052   C.ar      2 RES2   0.0000
    42 C24      4.3348  12.6934   8.0225   C.ar      2 RES2   0.0000
    43 C25      4.1894  11.7317   8.9992   C.ar      2 RES2   0.0000
    44 C26      4.6899  11.9715  10.2586   C.ar      2 RES2   0.0000
    45 C27      5.2965  13.1527  10.5609   C.ar      2 RES2   0.0000
    46 C28      7.9700  15.5417   9.7722   C.ar      2 RES2   0.0000
    47 C29      8.5506  14.3562   9.3713   C.ar      2 RES2   0.0000
    48 C30      9.8944  14.3549   9.0400   C.ar      2 RES2   0.0000
    49 C31     10.6335  15.5061   9.1228   C.ar      2 RES2   0.0000
    50 C32     10.0592  16.6748   9.5658   C.ar      2 RES2   0.0000
    51 C33      8.7282  16.7083   9.8879   C.ar      2 RES2   0.0000
    52 C34      5.7093  16.1317  11.6414   C.ar      2 RES2   0.0000
    53 C35      4.3721  16.0668  11.9740   C.ar      2 RES2   0.0000
    54 C36      3.9417  16.5012  13.2057   C.ar      2 RES2   0.0000
    55 C37      4.8503  16.9774  14.1114   C.ar      2 RES2   0.0000
    56 C38      6.1809  17.0296  13.7959   C.ar      2 RES2   0.0000
    57 C39      6.6340  16.6100  12.5642   C.ar      2 RES2   0.0000
    58 H11      4.3780  17.9296  10.1205   H         2 RES2   0.0000
    59 H12      3.8208  19.6497   8.5589   H         2 RES2   0.0000
    60 H13      4.7942  19.6870   6.4175   H         2 RES2   0.0000
    61 H14      6.3545  18.0190   5.7839   H         2 RES2   0.0000
    62 H15      6.9398  16.2962   7.3166   H         2 RES2   0.0000
    63 H16      5.0319  14.5971   7.5953   H         2 RES2   0.0000
    64 H17      3.9980  12.5115   7.0945   H         2 RES2   0.0000
    65 H18      3.7215  10.8698   8.7968   H         2 RES2   0.0000
    66 H19      4.6112  11.2678  10.9658   H         2 RES2   0.0000
    67 H20      5.6483  13.3205  11.4850   H         2 RES2   0.0000
    68 H21      8.0097  13.5152   9.3187   H         2 RES2   0.0000
    69 H22     10.3294  13.5021   8.7363   H         2 RES2   0.0000
    70 H23     11.6012  15.4967   8.8573   H         2 RES2   0.0000
    71 H24     10.6135  17.5029   9.6512   H         2 RES2   0.0000
    72 H25      8.3054  17.5572  10.2033   H         2 RES2   0.0000
    73 H26      3.7097  15.6969  11.3154   H         2 RES2   0.0000
    74 H27      2.9689  16.4781  13.4397   H         2 RES2   0.0000
    75 H28      4.5400  17.2914  15.0119   H         2 RES2   0.0000
    76 H29      6.8343  17.3732  14.4690   H         2 RES2   0.0000
    77 H30      7.6059  16.6464  12.3381   H         2 RES2   0.0000
    78 O3       6.0010  19.0380   0.2391   O.3       3 RES3   0.0000
    79 H1       6.6422  18.3049   0.0302   H         3 RES3   0.0000
    80 H2       5.6018  18.5782   0.9833   H         3 RES3   0.0000
@<TRIPOS>BOND
     1     1     5    1
     2     2    10    3
     3     3    11    3
     4     4    12    3
     5     5    13   ar
     6     6     1    1
     7     7     1    1
     8     8    18    2
     9     9    19    2
    10    10     1    1
    11    11     1    1
    12    12     1    1
    13    13    14   ar
    14    14    15   ar
    15    15    16   ar
    16    16    17   ar
    17    17     5   ar
    18    18     6   am
    19    19     6   am
    20    20     7   ar
    21    21    20   ar
    22    22    21   ar
    23    23    22   ar
    24    24     7   ar
    25    25    13    1
    26    26    14    1
    27    27    15    1
    28    28    16    1
    29    29    21    1
    30    30    22    1
    31    31    23    1
    32    32    24    1
    33    17    18    1
    34    19    20    1
    35    23    24   ar
    36    33    34    1
    37    34    35   ar
    38    35    36   ar
    39    36    37   ar
    40    37    38   ar
    41    38    39   ar
    42    39    34   ar
    43    40    33    1
    44    41    40   ar
    45    42    41   ar
    46    43    42   ar
    47    44    43   ar
    48    45    40   ar
    49    46    33    1
    50    47    46   ar
    51    48    47   ar
    52    49    48   ar
    53    50    49   ar
    54    51    46   ar
    55    52    33    1
    56    53    52   ar
    57    54    53   ar
    58    55    54   ar
    59    56    55   ar
    60    57    52   ar
    61    58    35    1
    62    59    36    1
    63    60    37    1
    64    61    38    1
    65    62    39    1
    66    63    41    1
    67    64    42    1
    68    65    43    1
    69    66    44    1
    70    67    45    1
    71    68    47    1
    72    69    48    1
    73    70    49    1
    74    71    50    1
    75    72    51    1
    76    73    53    1
    77    74    54    1
    78    75    55    1
    79    76    56    1
    80    77    57    1
    81    44    45   ar
    82    50    51   ar
    83    56    57   ar
    84    78    79    1
    85    80    78    1
@<TRIPOS>SUBSTRUCTURE
     1 RES1        1 GROUP             0 ****  ****    0  
     2 RES2       33 GROUP             0 ****  ****    0  
     3 RES3       78 GROUP             0 ****  ****    0  
@<TRIPOS>CRYSIN
    8.7870   15.1000   15.1580   60.2400   83.0700   80.5200     2     1
