@<TRIPOS>MOLECULE
EYUMUI
    81    88     2     0     0
SMALL
USER_CHARGES
****
Generated from the CSD

@<TRIPOS>ATOM
     1 Fe1      3.2107   4.2136   2.9605   Fe        1 RES1   0.0000
     2 Cl1      0.4380   1.9486   2.9899   Cl        1 RES1   0.0000
     3 C1       2.4163   4.9208   1.2942   C.1       1 RES1  -1.0000
     4 C2       3.3189   2.4728   2.1235   C.1       1 RES1   0.0000
     5 C3       3.9625   3.3328   4.5545   C.1       1 RES1   0.0000
     6 C4       5.9284   3.8978   1.4511   C.ar      1 RES1   0.0000
     7 H1       5.6899   2.9855   1.3307   H         1 RES1   0.0000
     8 C5       6.7566   4.1229   1.0197   C.ar      1 RES1   0.0000
     9 H2       7.1861   3.4802   0.4683   H         1 RES1   0.0000
    10 C6       7.3218   5.3461   1.1850   C.ar      1 RES1   0.0000
    11 H3       8.1616   5.5281   0.7811   H         1 RES1   0.0000
    12 C7       6.6912   6.3505   1.9442   C.ar      1 RES1   0.0000
    13 C8       5.3508   5.8304   2.5549   C.ar      1 RES1   0.0000
    14 C9       6.8193   7.6559   2.3588   C.ar      1 RES1   0.0000
    15 H4       7.5492   8.1172   1.9615   H         1 RES1   0.0000
    16 C10      6.1283   8.3716   3.1880   C.ar      1 RES1   0.0000
    17 H5       6.4294   9.2484   3.4001   H         1 RES1   0.0000
    18 C11      4.9077   7.8795   3.8099   C.ar      1 RES1   0.0000
    19 H6       4.4091   8.3956   4.4327   H         1 RES1   0.0000
    20 C12      4.5332   6.6283   3.4345   C.ar      1 RES1   0.0000
    21 C13      2.3393   6.3629   4.5131   C.2       1 RES1   0.0000
    22 C14      1.2102   5.4532   4.5066   C.ar      1 RES1   0.0000
    23 C15      0.0175   5.7963   5.1518   C.ar      1 RES1   0.0000
    24 H7      -0.0491   6.6239   5.6135   H         1 RES1   0.0000
    25 C16     -1.1027   4.9084   5.1154   C.ar      1 RES1   0.0000
    26 H8      -1.9361   5.1065   5.5253   H         1 RES1   0.0000
    27 C17     -0.8608   3.7395   4.4346   C.ar      1 RES1   0.0000
    28 H9      -1.5646   3.1046   4.3792   H         1 RES1   0.0000
    29 C18      0.3156   3.4368   3.8379   C.ar      1 RES1   0.0000
    30 N1       1.9618   5.3973   0.3631   N.1       1 RES1   0.0000
    31 N2       3.5314   1.4514   1.5828   N.1       1 RES1   0.0000
    32 N3       4.4246   2.8485   5.4863   N.1       1 RES1   0.0000
    33 N4       4.9636   4.6227   2.2411   N.ar      1 RES1   0.0000
    34 N5       3.2906   5.9018   3.7628   N.am      1 RES1   0.0000
    35 N6       1.3133   4.2580   3.8654   N.ar      1 RES1   0.0000
    36 O1       2.3680   7.4479   5.1434   O.2       1 RES1   0.0000
    37 P1       0.8549  11.9710   4.1528   P.3       2 RES2   1.0000
    38 C19      1.7928  10.9111   3.0507   C.ar      2 RES2   0.0000
    39 C20      1.3688   9.6041   2.7874   C.ar      2 RES2   0.0000
    40 H10      0.5881   9.2665   3.2101   H         2 RES2   0.0000
    41 C21      2.0809   8.8062   1.9190   C.ar      2 RES2   0.0000
    42 H11      1.7737   7.9287   1.7204   H         2 RES2   0.0000
    43 C22      3.2329   9.2734   1.3391   C.ar      2 RES2   0.0000
    44 H12      3.7193   8.7185   0.7401   H         2 RES2   0.0000
    45 C23      3.6927  10.5494   1.6164   C.ar      2 RES2   0.0000
    46 H13      4.5003  10.8620   1.2266   H         2 RES2   0.0000
    47 C24      2.9668  11.3690   2.4708   C.ar      2 RES2   0.0000
    48 H14      3.2756  12.2466   2.6601   H         2 RES2   0.0000
    49 C25      1.9874  13.1387   4.8966   C.ar      2 RES2   0.0000
    50 C26      2.6746  12.7972   6.0650   C.ar      2 RES2   0.0000
    51 H15      2.5171  11.9626   6.4901   H         2 RES2   0.0000
    52 C27      3.5901  13.6944   6.5951   C.ar      2 RES2   0.0000
    53 H16      4.0630  13.4678   7.3871   H         2 RES2   0.0000
    54 C28      3.8222  14.9098   5.9894   C.ar      2 RES2   0.0000
    55 H17      4.4244  15.5290   6.3829   H         2 RES2   0.0000
    56 C29      3.1765  15.2296   4.8016   C.ar      2 RES2   0.0000
    57 H18      3.3628  16.0546   4.3703   H         2 RES2   0.0000
    58 C30      2.2621  14.3510   4.2424   C.ar      2 RES2   0.0000
    59 H19      1.8269  14.5655   3.4259   H         2 RES2   0.0000
    60 C31     -0.4381  12.8701   3.2852   C.ar      2 RES2   0.0000
    61 C32     -0.9672  12.3749   2.1053   C.ar      2 RES2   0.0000
    62 H20     -0.6083  11.5882   1.7122   H         2 RES2   0.0000
    63 C33     -2.0289  13.0378   1.5016   C.ar      2 RES2   0.0000
    64 H21     -2.3914  12.7026   0.6898   H         2 RES2   0.0000
    65 C34     -2.5547  14.1632   2.0590   C.ar      2 RES2   0.0000
    66 H22     -3.2792  14.6061   1.6343   H         2 RES2   0.0000
    67 C35     -2.0381  14.6739   3.2552   C.ar      2 RES2   0.0000
    68 H23     -2.4085  15.4567   3.6438   H         2 RES2   0.0000
    69 C36     -0.9824  14.0235   3.8603   C.ar      2 RES2   0.0000
    70 H24     -0.6235  14.3598   4.6736   H         2 RES2   0.0000
    71 C37      0.0638  10.9499   5.4089   C.ar      2 RES2   0.0000
    72 C38      0.7910   9.9363   6.0286   C.ar      2 RES2   0.0000
    73 H25      1.6971   9.7815   5.7867   H         2 RES2   0.0000
    74 C39      0.1806   9.1524   7.0007   C.ar      2 RES2   0.0000
    75 H26      0.6752   8.4697   7.4381   H         2 RES2   0.0000
    76 C40     -1.1572   9.3666   7.3369   C.ar      2 RES2   0.0000
    77 H27     -1.5749   8.8165   7.9894   H         2 RES2   0.0000
    78 C41     -1.8655  10.3616   6.7318   C.ar      2 RES2   0.0000
    79 H28     -2.7734  10.5036   6.9707   H         2 RES2   0.0000
    80 C42     -1.2748  11.1750   5.7653   C.ar      2 RES2   0.0000
    81 H29     -1.7716  11.8714   5.3523   H         2 RES2   0.0000
@<TRIPOS>BOND
     1     1     3    1
     2     2    29    1
     3     3    30    3
     4     4     1    1
     5     5     1    1
     6     6     7    1
     7     8     6   ar
     8     9     8    1
     9    10     8   ar
    10    11    10    1
    11    12    10   ar
    12    13    12   ar
    13    14    12   ar
    14    15    14    1
    15    16    14   ar
    16    17    16    1
    17    18    16   ar
    18    19    18    1
    19    20    13   ar
    20    21    22    1
    21    22    23   ar
    22    23    24    1
    23    25    23   ar
    24    26    25    1
    25    27    25   ar
    26    28    27    1
    27    29    27   ar
    28    31     4    3
    29    32     5    3
    30    33     1    1
    31    34     1    1
    32    35     1    1
    33    36    21    2
    34     6    33   ar
    35    13    33   ar
    36    18    20   ar
    37    20    34    1
    38    21    34   am
    39    22    35   ar
    40    29    35   ar
    41    37    38    1
    42    38    39   ar
    43    39    40    1
    44    41    39   ar
    45    42    41    1
    46    43    41   ar
    47    44    43    1
    48    45    43   ar
    49    46    45    1
    50    47    38   ar
    51    48    47    1
    52    49    37    1
    53    50    49   ar
    54    51    50    1
    55    52    50   ar
    56    53    52    1
    57    54    52   ar
    58    55    54    1
    59    56    54   ar
    60    57    56    1
    61    58    49   ar
    62    59    58    1
    63    60    37    1
    64    61    60   ar
    65    62    61    1
    66    63    61   ar
    67    64    63    1
    68    65    63   ar
    69    66    65    1
    70    67    65   ar
    71    68    67    1
    72    69    60   ar
    73    70    69    1
    74    71    37    1
    75    72    71   ar
    76    73    72    1
    77    74    72   ar
    78    75    74    1
    79    76    74   ar
    80    77    76    1
    81    78    76   ar
    82    79    78    1
    83    80    71   ar
    84    81    80    1
    85    45    47   ar
    86    56    58   ar
    87    67    69   ar
    88    78    80   ar
@<TRIPOS>SUBSTRUCTURE
     1 RES1        1 GROUP             0 ****  ****    0  
     2 RES2       37 GROUP             0 ****  ****    0  
@<TRIPOS>CRYSIN
    8.4720   15.5230   28.0370   90.0000   92.3200   90.0000    14     1
