@<TRIPOS>MOLECULE
FADVUC
    85    94     1     0     0
SMALL
NO_CHARGES
****
Generated from the CSD

@<TRIPOS>ATOM
     1 Fe1      0.0000   0.0000   0.0000   Fe        1 RES1   0.0000
     2 S1      -0.1277   2.7548  -3.8203   S.2       1 RES1   0.0000
     3 N1       0.6775   1.1060   1.7939   N.ar      1 RES1   0.0000
     4 N2       2.1050  -0.5429   0.2774   N.2       1 RES1   0.0000
     5 N3       2.9146  -1.4999  -0.2873   N.2       1 RES1   0.0000
     6 N4       3.6613  -1.0166   1.7380   N.pl3     1 RES1   0.0000
     7 N5       5.6002  -3.1998   1.4145   N.ar      1 RES1   0.0000
     8 N6       0.4100   1.5653  -1.3608   N.2       1 RES1   0.0000
     9 C1      -0.0315   2.0310   2.4442   C.ar      1 RES1   0.0000
    10 H1      -0.8586   2.2778   2.0977   H         1 RES1   0.0000
    11 C2       0.3994   2.6331   3.5944   C.ar      1 RES1   0.0000
    12 H2      -0.1251   3.2765   4.0144   H         1 RES1   0.0000
    13 C3       1.6155   2.2767   4.1219   C.ar      1 RES1   0.0000
    14 H3       1.9334   2.6816   4.8960   H         1 RES1   0.0000
    15 C4       2.3630   1.2976   3.4771   C.ar      1 RES1   0.0000
    16 H4       3.1825   1.0228   3.8214   H         1 RES1   0.0000
    17 C5       1.8676   0.7441   2.3214   C.ar      1 RES1   0.0000
    18 C6       2.5525  -0.2600   1.4716   C.2       1 RES1   0.0000
    19 C7       3.8480  -1.7769   0.6053   C.2       1 RES1   0.0000
    20 C8       4.9124  -2.7692   0.3641   C.ar      1 RES1   0.0000
    21 C9       5.1239  -3.2125  -0.9299   C.ar      1 RES1   0.0000
    22 H5       4.6219  -2.8772  -1.6371   H         1 RES1   0.0000
    23 C10      6.1026  -4.1650  -1.1426   C.ar      1 RES1   0.0000
    24 H6       6.2638  -4.4918  -1.9979   H         1 RES1   0.0000
    25 C11      6.8265  -4.6172  -0.0855   C.ar      1 RES1   0.0000
    26 H7       7.4897  -5.2581  -0.2061   H         1 RES1   0.0000
    27 C12      6.5641  -4.1127   1.1656   C.ar      1 RES1   0.0000
    28 H8       7.0785  -4.4154   1.8784   H         1 RES1   0.0000
    29 C13      4.4106  -1.0682   2.9848   C.ar      1 RES1   0.0000
    30 C14      3.9200  -1.8335   4.0155   C.ar      1 RES1   0.0000
    31 H9       3.1269  -2.3090   3.9124   H         1 RES1   0.0000
    32 C15      4.6197  -1.8880   5.2096   C.ar      1 RES1   0.0000
    33 H10      4.3043  -2.4209   5.9038   H         1 RES1   0.0000
    34 C16      5.7918  -1.1528   5.3796   C.ar      1 RES1   0.0000
    35 C17      6.2498  -0.3916   4.3149   C.ar      1 RES1   0.0000
    36 H11      7.0344   0.0990   4.4114   H         1 RES1   0.0000
    37 C18      5.5687  -0.3435   3.1131   C.ar      1 RES1   0.0000
    38 H12      5.8887   0.1691   2.4069   H         1 RES1   0.0000
    39 C19      6.5454  -1.2005   6.6834   C.3       1 RES1   0.0000
    40 H13      6.0803  -1.7716   7.2996   H         1 RES1   0.0000
    41 H14      6.6062  -0.3159   7.0496   H         1 RES1   0.0000
    42 H15      7.4279  -1.5454   6.5310   H         1 RES1   0.0000
    43 C20      0.1934   2.0651  -2.3872   C.1       1 RES1   0.0000
    44 N1A     -0.6775  -1.1060  -1.7939   N.ar      1 RES1   0.0000
    45 C1A      0.0315  -2.0310  -2.4442   C.ar      1 RES1   0.0000
    46 H1A      0.8586  -2.2778  -2.0977   H         1 RES1   0.0000
    47 C2A     -0.3994  -2.6331  -3.5944   C.ar      1 RES1   0.0000
    48 H2A      0.1251  -3.2765  -4.0144   H         1 RES1   0.0000
    49 C3A     -1.6155  -2.2767  -4.1219   C.ar      1 RES1   0.0000
    50 H3A     -1.9334  -2.6816  -4.8960   H         1 RES1   0.0000
    51 C4A     -2.3630  -1.2976  -3.4771   C.ar      1 RES1   0.0000
    52 H4A     -3.1825  -1.0228  -3.8214   H         1 RES1   0.0000
    53 C5A     -1.8676  -0.7441  -2.3214   C.ar      1 RES1   0.0000
    54 C6A     -2.5525   0.2600  -1.4716   C.2       1 RES1   0.0000
    55 N2A     -2.1050   0.5429  -0.2774   N.2       1 RES1   0.0000
    56 N6A     -0.4100  -1.5653   1.3608   N.2       1 RES1   0.0000
    57 C20A    -0.1934  -2.0651   2.3872   C.1       1 RES1   0.0000
    58 S1A      0.1277  -2.7548   3.8203   S.2       1 RES1   0.0000
    59 N3A     -2.9146   1.4999   0.2873   N.2       1 RES1   0.0000
    60 C7A     -3.8480   1.7769  -0.6053   C.2       1 RES1   0.0000
    61 N4A     -3.6613   1.0166  -1.7380   N.pl3     1 RES1   0.0000
    62 C13A    -4.4106   1.0682  -2.9848   C.ar      1 RES1   0.0000
    63 C14A    -3.9200   1.8335  -4.0155   C.ar      1 RES1   0.0000
    64 H9A     -3.1269   2.3090  -3.9124   H         1 RES1   0.0000
    65 C15A    -4.6197   1.8880  -5.2096   C.ar      1 RES1   0.0000
    66 H10A    -4.3043   2.4209  -5.9038   H         1 RES1   0.0000
    67 C16A    -5.7918   1.1528  -5.3796   C.ar      1 RES1   0.0000
    68 C17A    -6.2498   0.3916  -4.3149   C.ar      1 RES1   0.0000
    69 H11A    -7.0344  -0.0990  -4.4114   H         1 RES1   0.0000
    70 C18A    -5.5687   0.3435  -3.1131   C.ar      1 RES1   0.0000
    71 H12A    -5.8887  -0.1691  -2.4069   H         1 RES1   0.0000
    72 C19A    -6.5454   1.2005  -6.6834   C.3       1 RES1   0.0000
    73 H13A    -6.0803   1.7716  -7.2996   H         1 RES1   0.0000
    74 H14A    -6.6062   0.3159  -7.0496   H         1 RES1   0.0000
    75 H15A    -7.4279   1.5454  -6.5310   H         1 RES1   0.0000
    76 C8A     -4.9124   2.7692  -0.3641   C.ar      1 RES1   0.0000
    77 N5A     -5.6002   3.1998  -1.4145   N.ar      1 RES1   0.0000
    78 C12A    -6.5641   4.1127  -1.1656   C.ar      1 RES1   0.0000
    79 C11A    -6.8265   4.6172   0.0855   C.ar      1 RES1   0.0000
    80 C10A    -6.1026   4.1650   1.1426   C.ar      1 RES1   0.0000
    81 C9A     -5.1239   3.2125   0.9299   C.ar      1 RES1   0.0000
    82 H5A     -4.6219   2.8772   1.6371   H         1 RES1   0.0000
    83 H6A     -6.2638   4.4918   1.9979   H         1 RES1   0.0000
    84 H7A     -7.4897   5.2581   0.2061   H         1 RES1   0.0000
    85 H8A     -7.0785   4.4154  -1.8784   H         1 RES1   0.0000
@<TRIPOS>BOND
     1     1     3    1
     2     2    43    2
     3     3     9   ar
     4     4     1    1
     5     5     4    1
     6     6    18    1
     7     7    20   ar
     8     8     1    1
     9     9    10    1
    10    11     9   ar
    11    12    11    1
    12    13    11   ar
    13    14    13    1
    14    15    13   ar
    15    16    15    1
    16    17     3   ar
    17    18     4    2
    18    19     5    2
    19    20    19    1
    20    21    20   ar
    21    22    21    1
    22    23    21   ar
    23    24    23    1
    24    25    23   ar
    25    26    25    1
    26    27     7   ar
    27    28    27    1
    28    29     6    1
    29    30    29   ar
    30    31    30    1
    31    32    30   ar
    32    33    32    1
    33    34    32   ar
    34    35    34   ar
    35    36    35    1
    36    37    29   ar
    37    38    37    1
    38    39    34    1
    39    40    39    1
    40    41    39    1
    41    42    39    1
    42    43     8    2
    43    44     1    1
    44    45    44   ar
    45    46    45    1
    46    47    45   ar
    47    48    47    1
    48    49    47   ar
    49    50    49    1
    50    51    49   ar
    51    52    51    1
    52    53    44   ar
    53    54    53    1
    54    55     1    1
    55    56     1    1
    56    57    56    2
    57    58    57    2
    58    59    55    1
    59    60    59    2
    60    61    54    1
    61    62    61    1
    62    63    62   ar
    63    64    63    1
    64    65    63   ar
    65    66    65    1
    66    67    65   ar
    67    68    67   ar
    68    69    68    1
    69    70    62   ar
    70    71    70    1
    71    72    67    1
    72    73    72    1
    73    74    72    1
    74    75    72    1
    75    76    60    1
    76    77    76   ar
    77    78    77   ar
    78    79    78   ar
    79    80    79   ar
    80    81    76   ar
    81    82    81    1
    82    83    80    1
    83    84    79    1
    84    85    78    1
    85     6    19    1
    86    15    17   ar
    87    17    18    1
    88    25    27   ar
    89    35    37   ar
    90    51    53   ar
    91    54    55    2
    92    60    61    1
    93    68    70   ar
    94    80    81   ar
@<TRIPOS>SUBSTRUCTURE
     1 RES1        1 GROUP             0 ****  ****    0  
@<TRIPOS>CRYSIN
    9.1200    9.2563   11.5760   76.2560   76.4050   84.9830     2     1
