@<TRIPOS>MOLECULE
FAFFOI
    92   100     2     0     0
SMALL
NO_CHARGES
****
Generated from the CSD

@<TRIPOS>ATOM
     1 Fe1     -8.3813  11.9053   3.7814   Fe        1 RES1   0.0000
     2 S1      -7.6548   9.8078   4.4872   S.3       1 RES1   0.0000
     3 S2      -8.9779  11.0032   1.8146   S.3       1 RES1   0.0000
     4 S3     -10.5299  11.4398   4.5617   S.3       1 RES1   0.0000
     5 P1      -9.1421  13.9389   3.2457   P.3       1 RES1   0.0000
     6 P2      -8.0315  12.8325   5.7873   P.3       1 RES1   0.0000
     7 O1      -5.7293  12.0940   2.6221   O.2       1 RES1   0.0000
     8 C1      -6.7680  12.0745   3.1187   C.1       1 RES1   0.0000
     9 C2      -7.7115   8.8737   3.0071   C.ar      1 RES1   0.0000
    10 C3      -7.1595   7.5769   2.9685   C.ar      1 RES1   0.0000
    11 C4      -7.2167   6.8251   1.8049   C.ar      1 RES1   0.0000
    12 C5      -7.8050   7.3196   0.6629   C.ar      1 RES1   0.0000
    13 C6      -8.3397   8.5889   0.6710   C.ar      1 RES1   0.0000
    14 C7      -8.3018   9.3508   1.8469   C.ar      1 RES1   0.0000
    15 C8     -11.3835  10.9353   3.1259   C.ar      1 RES1   0.0000
    16 C9     -12.7740  10.7546   3.1589   C.ar      1 RES1   0.0000
    17 C10    -13.4688  10.3686   2.0246   C.ar      1 RES1   0.0000
    18 C11    -12.8050  10.1604   0.8262   C.ar      1 RES1   0.0000
    19 C12    -11.4345  10.3425   0.7609   C.ar      1 RES1   0.0000
    20 C13    -10.7388  10.7141   1.9133   C.ar      1 RES1   0.0000
    21 C14    -10.3721  14.0247   1.9166   C.ar      1 RES1   0.0000
    22 C15     -9.9365  13.9091   0.5917   C.ar      1 RES1   0.0000
    23 C16    -10.8451  13.7847  -0.4413   C.ar      1 RES1   0.0000
    24 C17    -12.1988  13.7515  -0.1639   C.ar      1 RES1   0.0000
    25 C18    -12.6405  13.8744   1.1330   C.ar      1 RES1   0.0000
    26 C19    -11.7368  14.0320   2.1759   C.ar      1 RES1   0.0000
    27 C20     -9.8831  14.6710   4.7611   C.3       1 RES1   0.0000
    28 C21     -7.9471  15.2709   2.8215   C.ar      1 RES1   0.0000
    29 C22     -8.3816  16.4232   2.1736   C.ar      1 RES1   0.0000
    30 C23     -7.5243  17.4959   2.0012   C.ar      1 RES1   0.0000
    31 C24     -6.2375  17.4438   2.4951   C.ar      1 RES1   0.0000
    32 C25     -5.7850  16.3133   3.1270   C.ar      1 RES1   0.0000
    33 C26     -6.6327  15.2261   3.2931   C.ar      1 RES1   0.0000
    34 C27     -6.3182  13.1674   6.3245   C.ar      1 RES1   0.0000
    35 C28     -6.0407  14.2445   7.1612   C.ar      1 RES1   0.0000
    36 C29     -4.7269  14.5452   7.5167   C.ar      1 RES1   0.0000
    37 C30     -3.6894  13.7501   7.0556   C.ar      1 RES1   0.0000
    38 C31     -3.9580  12.6585   6.2661   C.ar      1 RES1   0.0000
    39 C32     -5.2634  12.3607   5.8996   C.ar      1 RES1   0.0000
    40 C33     -8.8192  14.5119   5.8450   C.3       1 RES1   0.0000
    41 C34     -8.7037  11.9314   7.2321   C.ar      1 RES1   0.0000
    42 C35     -7.9901  10.8558   7.7585   C.ar      1 RES1   0.0000
    43 C36     -8.4834  10.1691   8.8443   C.ar      1 RES1   0.0000
    44 C37     -9.6768  10.5363   9.4230   C.ar      1 RES1   0.0000
    45 C38    -10.3901  11.5902   8.9063   C.ar      1 RES1   0.0000
    46 C39     -9.9225  12.2856   7.8024   C.ar      1 RES1   0.0000
    47 H7      -6.7810   7.2285   3.7467   H         1 RES1   0.0000
    48 H8      -6.7828   5.9563   1.8553   H         1 RES1   0.0000
    49 H9      -7.8162   6.8671  -0.1441   H         1 RES1   0.0000
    50 H10     -8.7633   9.0067  -0.1081   H         1 RES1   0.0000
    51 H11    -13.2088  10.9150   3.9628   H         1 RES1   0.0000
    52 H12    -14.4532  10.2789   2.0715   H         1 RES1   0.0000
    53 H13    -13.3183   9.8886   0.0540   H         1 RES1   0.0000
    54 H14    -10.9488  10.1922  -0.0901   H         1 RES1   0.0000
    55 H15     -8.9695  13.8353   0.3783   H         1 RES1   0.0000
    56 H16    -10.5519  13.7197  -1.3510   H         1 RES1   0.0000
    57 H17    -12.8397  13.6619  -0.8286   H         1 RES1   0.0000
    58 H18    -13.5732  13.8932   1.3510   H         1 RES1   0.0000
    59 H19    -12.0606  14.1245   3.0982   H         1 RES1   0.0000
    60 H20    -10.6764  14.1968   4.9175   H         1 RES1   0.0000
    61 H21    -10.1187  15.5702   4.6113   H         1 RES1   0.0000
    62 H22     -9.2628  16.5533   1.9274   H         1 RES1   0.0000
    63 H23     -7.8348  18.2881   1.5851   H         1 RES1   0.0000
    64 H24     -5.6739  18.1291   2.3597   H         1 RES1   0.0000
    65 H25     -4.9837  16.2641   3.4765   H         1 RES1   0.0000
    66 H26     -6.3203  14.5004   3.7467   H         1 RES1   0.0000
    67 H27     -6.7060  14.8184   7.4933   H         1 RES1   0.0000
    68 H28     -4.6123  15.2810   8.0878   H         1 RES1   0.0000
    69 H29     -2.8103  14.0377   7.2592   H         1 RES1   0.0000
    70 H30     -3.2508  12.1728   5.9803   H         1 RES1   0.0000
    71 H31     -5.4167  11.6813   5.3318   H         1 RES1   0.0000
    72 H32     -8.1160  15.1509   5.7101   H         1 RES1   0.0000
    73 H33     -9.1738  14.6305   6.6828   H         1 RES1   0.0000
    74 H34     -7.1249  10.6259   7.4033   H         1 RES1   0.0000
    75 H35     -8.0169   9.5127   9.2045   H         1 RES1   0.0000
    76 H36     -9.9916  10.0476  10.1592   H         1 RES1   0.0000
    77 H37    -11.1811  11.8547   9.3306   H         1 RES1   0.0000
    78 H38    -10.4239  13.0980   7.4753   H         1 RES1   0.0000
    79 C40     -3.2252   7.5032   4.5032   C.ar      2 RES2   0.0000
    80 C41     -3.2252   9.0024   4.5032   C.2       2 RES2   0.0000
    81 H1      -3.9982   9.3219   4.9751   H         2 RES2   0.0000
    82 C42     -2.2478   6.8179   3.9088   C.ar      2 RES2   0.0000
    83 H4      -1.5651   7.2849   3.4837   H         2 RES2   0.0000
    84 C43     -2.2152   5.4619   3.9070   C.ar      2 RES2   0.0000
    85 H5      -1.5152   5.0007   3.5053   H         2 RES2   0.0000
    86 C44     -3.2252   4.8055   4.5032   C.ar      2 RES2   0.0000
    87 H6      -3.2252   3.8745   4.5032   H         2 RES2   0.0000
    88 H1F     -2.4521   9.3219   4.0313   H         2 RES2   0.0000
    89 C43F    -4.2351   5.4619   5.0994   C.ar      2 RES2   0.0000
    90 C42F    -4.2025   6.8179   5.0976   C.ar      2 RES2   0.0000
    91 H4F     -4.8852   7.2849   5.5227   H         2 RES2   0.0000
    92 H5F     -4.9351   5.0007   5.5011   H         2 RES2   0.0000
@<TRIPOS>BOND
     1     1     2    1
     2     2     9    1
     3     3     1    1
     4     4     1    1
     5     5     1    1
     6     6     1    1
     7     7     8    3
     8     8     1    1
     9     9    10   ar
    10    10    11   ar
    11    11    12   ar
    12    12    13   ar
    13    13    14   ar
    14    14     3    1
    15    15     4    1
    16    16    15   ar
    17    17    16   ar
    18    18    17   ar
    19    19    18   ar
    20    20     3    1
    21    21     5    1
    22    22    21   ar
    23    23    22   ar
    24    24    23   ar
    25    25    24   ar
    26    26    21   ar
    27    27     5    1
    28    28     5    1
    29    29    28   ar
    30    30    29   ar
    31    31    30   ar
    32    32    31   ar
    33    33    28   ar
    34    34     6    1
    35    35    34   ar
    36    36    35   ar
    37    37    36   ar
    38    38    37   ar
    39    39    34   ar
    40    40     6    1
    41    41     6    1
    42    42    41   ar
    43    43    42   ar
    44    44    43   ar
    45    45    44   ar
    46    46    41   ar
    47    47    10    1
    48    48    11    1
    49    49    12    1
    50    50    13    1
    51    51    16    1
    52    52    17    1
    53    53    18    1
    54    54    19    1
    55    55    22    1
    56    56    23    1
    57    57    24    1
    58    58    25    1
    59    59    26    1
    60    60    27    1
    61    61    27    1
    62    62    29    1
    63    63    30    1
    64    64    31    1
    65    65    32    1
    66    66    33    1
    67    67    35    1
    68    68    36    1
    69    69    37    1
    70    70    38    1
    71    71    39    1
    72    72    40    1
    73    73    40    1
    74    74    42    1
    75    75    43    1
    76    76    44    1
    77    77    45    1
    78    78    46    1
    79     9    14   ar
    80    15    20   ar
    81    19    20   ar
    82    25    26   ar
    83    27    40    1
    84    32    33   ar
    85    38    39   ar
    86    45    46   ar
    87    79    80    1
    88    80    81    1
    89    82    79   ar
    90    83    82    1
    91    84    82   ar
    92    85    84    1
    93    86    84   ar
    94    87    86    1
    95    88    80    1
    96    89    86   ar
    97    90    79   ar
    98    91    90    1
    99    92    89    1
   100    89    90   ar
@<TRIPOS>SUBSTRUCTURE
     1 RES1        1 GROUP             0 ****  ****    0  
     2 RES2       79 GROUP             0 ****  ****    0  
@<TRIPOS>CRYSIN
   28.4360   14.4570   22.1560   90.0000  125.6100   90.0000    15     1
