@<TRIPOS>MOLECULE
FAJSUH
   114   118     8     0     0
SMALL
USER_CHARGES
****
Generated from the CSD

@<TRIPOS>ATOM
     1 Fe1     17.0035   6.1138   3.3642   Fe        1 RES1   0.0000
     2 N1      16.8061   6.2526   1.2847   N.ar      1 RES1   0.0000
     3 C1      15.9605   7.1236   0.7302   C.ar      1 RES1   0.0000
     4 C2      15.8937   7.2892  -0.6407   C.ar      1 RES1   0.0000
     5 H1      15.3101   7.9089  -1.0146   H         1 RES1   0.0000
     6 C3      16.7183   6.5110  -1.4531   C.ar      1 RES1   0.0000
     7 C4      17.5775   5.5830  -0.8628   C.ar      1 RES1   0.0000
     8 H2      18.1217   5.0382  -1.3847   H         1 RES1   0.0000
     9 C5      17.6001   5.4909   0.5221   C.ar      1 RES1   0.0000
    10 C6      15.1364   7.8932   1.7460   C.2       1 RES1   0.0000
    11 O1      15.4326   7.6369   2.9567   O.co2     1 RES1  -1.0000
    12 O2      14.2672   8.6859   1.3554   O.co2     1 RES1   0.0000
    13 C7      16.7036   6.7016  -2.9591   C.2       1 RES1   0.0000
    14 O3      16.5640   7.8879  -3.3693   O.co2     1 RES1  -1.0000
    15 O4      16.8439   5.7050  -3.6776   O.co2     1 RES1   0.0000
    16 C8      18.5037   4.5822   1.3420   C.2       1 RES1   0.0000
    17 O5      18.4158   4.7183   2.5997   O.co2     1 RES1  -1.0000
    18 O6      19.2671   3.7983   0.7454   O.co2     1 RES1   0.0000
    19 N1A     17.2008   6.2526   5.4436   N.ar      1 RES1   0.0000
    20 C1A     18.0464   7.1236   5.9982   C.ar      1 RES1   0.0000
    21 C2A     18.1133   7.2892   7.3690   C.ar      1 RES1   0.0000
    22 H1A     18.6969   7.9089   7.7430   H         1 RES1   0.0000
    23 C3A     17.2887   6.5110   8.1814   C.ar      1 RES1   0.0000
    24 C4A     16.4295   5.5830   7.5912   C.ar      1 RES1   0.0000
    25 H2A     15.8853   5.0382   8.1130   H         1 RES1   0.0000
    26 C5A     16.4069   5.4909   6.2062   C.ar      1 RES1   0.0000
    27 C6A     18.8706   7.8932   4.9823   C.2       1 RES1   0.0000
    28 O1A     18.5743   7.6369   3.7716   O.co2     1 RES1   0.0000
    29 O2A     19.7397   8.6859   5.3730   O.co2     1 RES1   0.0000
    30 C7A     17.3033   6.7016   9.6875   C.2       1 RES1   0.0000
    31 O3A     17.4429   7.8879  10.0976   O.co2     1 RES1  -1.0000
    32 O4A     17.1631   5.7050  10.4059   O.co2     1 RES1   0.0000
    33 C8A     15.5033   4.5822   5.3863   C.2       1 RES1   0.0000
    34 O5A     15.5912   4.7183   4.1287   O.co2     1 RES1   0.0000
    35 O6A     14.7399   3.7983   5.9830   O.co2     1 RES1   0.0000
    36 C9      14.2018   8.0995   6.4001   C.2       2 RES2   0.0000
    37 N2      13.9162   7.5310   5.2438   N.pl3     2 RES2   0.0000
    38 H3      14.3343   7.6873   4.5080   H         2 RES2   0.0000
    39 C10     12.7936   6.5979   5.3782   C.3       2 RES2   0.0000
    40 H4      13.0098   5.7292   5.0059   H         2 RES2   0.0000
    41 H5      11.9952   6.9419   4.9480   H         2 RES2   0.0000
    42 C11     12.6211   6.5265   6.9053   C.3       2 RES2   0.0000
    43 H6      11.6959   6.6639   7.1617   H         2 RES2   0.0000
    44 H7      12.9248   5.6748   7.2532   H         2 RES2   0.0000
    45 N3      13.4712   7.6269   7.3762   N.pl3     2 RES2   1.0000
    46 H8      13.4869   7.9210   8.1844   H         2 RES2   0.0000
    47 C12     15.2481   9.1293   6.5690   C.ar      2 RES2   0.0000
    48 C13     15.6266   9.5412   7.8455   C.ar      2 RES2   0.0000
    49 H9      15.1997   9.1881   8.5935   H         2 RES2   0.0000
    50 C14     16.6349  10.4737   8.0026   C.ar      2 RES2   0.0000
    51 H10     16.8841  10.7433   8.8572   H         2 RES2   0.0000
    52 C9D     18.3289  12.0454   7.0566   C.2       2 RES2   0.0000
    53 N2D     18.6145  12.6139   8.2129   N.pl3     2 RES2   0.0000
    54 H3D     18.1964  12.4576   8.9487   H         2 RES2   0.0000
    55 C10D    19.7371  13.5470   8.0785   C.3       2 RES2   0.0000
    56 H4D     19.5209  14.4157   8.4508   H         2 RES2   0.0000
    57 H5D     20.5355  13.2030   8.5087   H         2 RES2   0.0000
    58 C11D    19.9096  13.6184   6.5514   C.3       2 RES2   0.0000
    59 H6D     20.8349  13.4810   6.2950   H         2 RES2   0.0000
    60 H7D     19.6059  14.4701   6.2035   H         2 RES2   0.0000
    61 N3D     19.0595  12.5180   6.0805   N.pl3     2 RES2   1.0000
    62 H8D     19.0438  12.2239   5.2723   H         2 RES2   0.0000
    63 C12D    17.2826  11.0156   6.8877   C.ar      2 RES2   0.0000
    64 C13D    16.9042  10.6037   5.6112   C.ar      2 RES2   0.0000
    65 H9D     17.3310  10.9568   4.8633   H         2 RES2   0.0000
    66 C14D    15.8958   9.6712   5.4541   C.ar      2 RES2   0.0000
    67 H10D    15.6467   9.4016   4.5995   H         2 RES2   0.0000
    68 C15      1.0571   2.9373   6.3158   C.2       3 RES3   0.0000
    69 N4       0.7772   2.4158   5.1456   N.pl3     3 RES3   0.0000
    70 H11      1.1529   2.6511   4.4084   H         3 RES3   0.0000
    71 C16     -0.2568   1.3799   5.2531   C.3       3 RES3   0.0000
    72 H12      0.0445   0.5399   4.8754   H         3 RES3   0.0000
    73 H13     -1.0768   1.6519   4.8108   H         3 RES3   0.0000
    74 C17     -0.4513   1.2707   6.7711   C.3       3 RES3   0.0000
    75 H14     -1.3845   1.3719   7.0136   H         3 RES3   0.0000
    76 H15     -0.1242   0.4210   7.1078   H         3 RES3   0.0000
    77 N5       0.3541   2.3886   7.2770   N.pl3     3 RES3   1.0000
    78 H16      0.3631   2.6491   8.0969   H         3 RES3   0.0000
    79 C18      2.0315   4.0179   6.5299   C.ar      3 RES3   0.0000
    80 C19      2.4271   4.3608   7.8193   C.ar      3 RES3   0.0000
    81 H17      2.0685   3.9081   8.5477   H         3 RES3   0.0000
    82 C20      3.3523   5.3730   8.0254   C.ar      3 RES3   0.0000
    83 H18      3.6154   5.5983   8.8882   H         3 RES3   0.0000
    84 C15F     4.8612   7.1351   7.1409   C.2       3 RES3   0.0000
    85 N4F      5.1411   7.6567   8.3111   N.pl3     3 RES3   0.0000
    86 H11F     4.7654   7.4214   9.0483   H         3 RES3   0.0000
    87 C16F     6.1751   8.6925   8.2036   C.3       3 RES3   0.0000
    88 H12F     5.8738   9.5326   8.5813   H         3 RES3   0.0000
    89 H13F     6.9951   8.4206   8.6459   H         3 RES3   0.0000
    90 C17F     6.3696   8.8017   6.6856   C.3       3 RES3   0.0000
    91 H14F     7.3028   8.7006   6.4431   H         3 RES3   0.0000
    92 H15F     6.0425   9.6514   6.3489   H         3 RES3   0.0000
    93 N5F      5.5642   7.6839   6.1797   N.pl3     3 RES3   1.0000
    94 H16F     5.5552   7.4234   5.3598   H         3 RES3   0.0000
    95 C18F     3.8868   6.0545   6.9268   C.ar      3 RES3   0.0000
    96 C19F     3.4912   5.7117   5.6374   C.ar      3 RES3   0.0000
    97 H17F     3.8498   6.1643   4.9090   H         3 RES3   0.0000
    98 C20F     2.5660   4.6994   5.4313   C.ar      3 RES3   0.0000
    99 H18F     2.3029   4.4742   4.5686   H         3 RES3   0.0000
   100 O7       1.6697   9.7967  10.1180   O.3       4 RES4   0.0000
   101 H19      1.5482  10.3867  10.7250   H         4 RES4   0.0000
   102 H20      1.0583   9.1901  10.0468   H         4 RES4   0.0000
   103 O8      -0.7670   1.8711  12.2241   O.3       5 RES5   0.0000
   104 H21     -0.9822   2.4899  12.8296   H         5 RES5   0.0000
   105 H22     -0.1047   1.3417  12.4609   H         5 RES5   0.0000
   106 O9       1.3329  20.2315  12.5635   O.3       6 RES6   0.0000
   107 H23      1.7996  20.1932  11.8190   H         6 RES6   0.0000
   108 H24      1.6960  19.7924  13.2293   H         6 RES6   0.0000
   109 O10      2.1615   2.0401   2.8363   O.3       7 RES7   0.0000
   110 H25      2.0440   2.5906   2.1665   H         7 RES7   0.0000
   111 H26      2.8987   1.5914   2.8797   H         7 RES7   0.0000
   112 O11      6.0925   6.9421   3.6458   O.3       8 RES8   0.0000
   113 H27      6.2580   6.1019   3.4987   H         8 RES8   0.0000
   114 H28      6.3850   7.5140   3.0816   H         8 RES8   0.0000
@<TRIPOS>BOND
     1     1     2    1
     2     2     3   ar
     3     3     4   ar
     4     4     5    1
     5     6     4   ar
     6     7     6   ar
     7     8     7    1
     8     9     2   ar
     9    10     3    1
    10    11     1    1
    11    12    10    2
    12    13     6    1
    13    14    13    1
    14    15    13    2
    15    16     9    1
    16    17     1    1
    17    18    16    2
    18    19     1    1
    19    20    19   ar
    20    21    20   ar
    21    22    21    1
    22    23    21   ar
    23    24    23   ar
    24    25    24    1
    25    26    19   ar
    26    27    20    1
    27    28     1    1
    28    29    27    2
    29    30    23    1
    30    31    30    1
    31    32    30    2
    32    33    26    1
    33    34     1    1
    34    35    33    2
    35     7     9   ar
    36    10    11    1
    37    16    17    1
    38    24    26   ar
    39    27    28    1
    40    33    34    1
    41    36    37    1
    42    37    38    1
    43    39    37    1
    44    40    39    1
    45    41    39    1
    46    42    39    1
    47    43    42    1
    48    44    42    1
    49    45    36    2
    50    46    45    1
    51    47    36    1
    52    48    47   ar
    53    49    48    1
    54    50    48   ar
    55    51    50    1
    56    52    53    1
    57    53    54    1
    58    55    53    1
    59    56    55    1
    60    57    55    1
    61    58    55    1
    62    59    58    1
    63    60    58    1
    64    61    52    2
    65    62    61    1
    66    63    50   ar
    67    64    63   ar
    68    65    64    1
    69    66    47   ar
    70    67    66    1
    71    42    45    1
    72    52    63    1
    73    58    61    1
    74    64    66   ar
    75    68    69    1
    76    69    70    1
    77    71    69    1
    78    72    71    1
    79    73    71    1
    80    74    71    1
    81    75    74    1
    82    76    74    1
    83    77    68    2
    84    78    77    1
    85    79    68    1
    86    80    79   ar
    87    81    80    1
    88    82    80   ar
    89    83    82    1
    90    84    85    1
    91    85    86    1
    92    87    85    1
    93    88    87    1
    94    89    87    1
    95    90    87    1
    96    91    90    1
    97    92    90    1
    98    93    84    2
    99    94    93    1
   100    95    82   ar
   101    96    95   ar
   102    97    96    1
   103    98    79   ar
   104    99    98    1
   105    74    77    1
   106    84    95    1
   107    90    93    1
   108    96    98   ar
   109   100   101    1
   110   102   100    1
   111   103   104    1
   112   105   103    1
   113   106   107    1
   114   108   106    1
   115   109   110    1
   116   111   109    1
   117   112   113    1
   118   114   112    1
@<TRIPOS>SUBSTRUCTURE
     1 RES1        1 GROUP             0 ****  ****    0  
     2 RES2       36 GROUP             0 ****  ****    0  
     3 RES3       68 GROUP             0 ****  ****    0  
     4 RES4      100 GROUP             0 ****  ****    0  
     5 RES5      103 GROUP             0 ****  ****    0  
     6 RES6      106 GROUP             0 ****  ****    0  
     7 RES7      109 GROUP             0 ****  ****    0  
     8 RES8      112 GROUP             0 ****  ****    0  
@<TRIPOS>CRYSIN
   17.7416   20.1449   13.7768   90.0000  102.3750   90.0000    15     1
