@<TRIPOS>MOLECULE
FAMHUZ
    82    84     1     0     0
SMALL
NO_CHARGES
****
Generated from the CSD

@<TRIPOS>ATOM
     1 Fe1      0.7226   4.1268  15.0357   Fe        1 RES1   0.0000
     2 P1       0.6995   5.4284  13.2405   P.3       1 RES1   0.0000
     3 P2       1.6547   5.6869  16.3501   P.3       1 RES1   0.0000
     4 P3       0.0588   2.8523  16.7194   P.3       1 RES1   0.0000
     5 Si1     -3.8871   5.7122  15.5961   Si        1 RES1   0.0000
     6 F1       2.3796   0.2284  11.9618   F         1 RES1   0.0000
     7 N1       2.4983   3.3546  14.7740   N.2       1 RES1   0.0000
     8 H1       3.3027   3.6151  15.1843   H         1 RES1   0.0000
     9 C1      -1.0661   4.7521  15.1858   C.1       1 RES1   0.0000
    10 C2      -2.2213   5.1254  15.2852   C.1       1 RES1   0.0000
    11 C3      -4.6383   6.3974  14.0312   C.3       1 RES1   0.0000
    12 H2      -4.1277   7.1814  13.7397   H         1 RES1   0.0000
    13 H3      -5.5676   6.6570  14.2010   H         1 RES1   0.0000
    14 H4      -4.6136   5.7127  13.3313   H         1 RES1   0.0000
    15 C4      -3.8369   7.0263  16.9108   C.3       1 RES1   0.0000
    16 H5      -3.5392   6.6309  17.7564   H         1 RES1   0.0000
    17 H6      -4.7322   7.4079  17.0261   H         1 RES1   0.0000
    18 H7      -3.2134   7.7337  16.6433   H         1 RES1   0.0000
    19 C5      -4.9652   4.3371  16.2350   C.3       1 RES1   0.0000
    20 H8      -5.0625   3.6499  15.5431   H         1 RES1   0.0000
    21 H9      -5.8482   4.6953  16.4656   H         1 RES1   0.0000
    22 H10     -4.5544   3.9426  17.0325   H         1 RES1   0.0000
    23 C6       0.2868   2.6320  13.8096   C.ar      1 RES1   0.0000
    24 C7      -0.9546   2.2325  13.2727   C.ar      1 RES1   0.0000
    25 H11     -1.7435   2.6865  13.5475   H         1 RES1   0.0000
    26 C8      -1.0579   1.1983  12.3569   C.ar      1 RES1   0.0000
    27 H12     -1.9128   0.9530  12.0245   H         1 RES1   0.0000
    28 C9       0.0678   0.5136  11.9156   C.ar      1 RES1   0.0000
    29 H13     -0.0049  -0.1847  11.2765   H         1 RES1   0.0000
    30 C10      1.2785   0.8742  12.4271   C.ar      1 RES1   0.0000
    31 C11      1.4262   1.8931  13.3819   C.ar      1 RES1   0.0000
    32 C12      2.6647   2.3307  13.9804   C.2       1 RES1   0.0000
    33 C13      4.0418   1.7870  13.7581   C.ar      1 RES1   0.0000
    34 C14      5.0080   2.6461  13.1830   C.ar      1 RES1   0.0000
    35 H14      4.7531   3.5193  12.9069   H         1 RES1   0.0000
    36 C15      6.3208   2.2335  13.0173   C.ar      1 RES1   0.0000
    37 H15      6.9686   2.8206  12.6443   H         1 RES1   0.0000
    38 C16      6.6686   0.9650  13.4015   C.ar      1 RES1   0.0000
    39 H16      7.5652   0.6760  13.2801   H         1 RES1   0.0000
    40 C17      5.7691   0.1066  13.9500   C.ar      1 RES1   0.0000
    41 H17      6.0442  -0.7666  14.2042   H         1 RES1   0.0000
    42 C18      4.4209   0.5070  14.1446   C.ar      1 RES1   0.0000
    43 C19      3.4654  -0.4228  14.7529   C.3       1 RES1   0.0000
    44 H18      2.8851   0.0645  15.3733   H         1 RES1   0.0000
    45 H19      3.9533  -1.1185  15.2404   H         1 RES1   0.0000
    46 H20      2.9204  -0.8363  14.0520   H         1 RES1   0.0000
    47 C20      0.2462   7.1924  13.4386   C.3       1 RES1   0.0000
    48 H21     -0.6448   7.2580  13.8390   H         1 RES1   0.0000
    49 H22      0.2436   7.6291  12.5610   H         1 RES1   0.0000
    50 H23      0.8998   7.6344  14.0216   H         1 RES1   0.0000
    51 C21     -0.4881   5.0116  11.9117   C.3       1 RES1   0.0000
    52 H24     -0.2474   4.1465  11.5184   H         1 RES1   0.0000
    53 H25     -0.4613   5.7057  11.2189   H         1 RES1   0.0000
    54 H26     -1.3920   4.9601  12.2855   H         1 RES1   0.0000
    55 C22      2.2455   5.5002  12.2615   C.3       1 RES1   0.0000
    56 H27      2.9699   5.8503  12.8204   H         1 RES1   0.0000
    57 H28      2.1153   6.0873  11.4879   H         1 RES1   0.0000
    58 H29      2.4787   4.5994  11.9524   H         1 RES1   0.0000
    59 C23      3.0453   6.6505  15.6305   C.3       1 RES1   0.0000
    60 H30      3.7470   6.0368  15.3285   H         1 RES1   0.0000
    61 H31      3.4107   7.2546  16.3102   H         1 RES1   0.0000
    62 H32      2.7195   7.1744  14.8688   H         1 RES1   0.0000
    63 C24      2.6029   5.0981  17.8210   C.3       1 RES1   0.0000
    64 H33      1.9862   4.6918  18.4659   H         1 RES1   0.0000
    65 H34      3.0598   5.8573  18.2401   H         1 RES1   0.0000
    66 H35      3.2648   4.4339  17.5386   H         1 RES1   0.0000
    67 C25      0.6266   7.0101  17.0867   C.3       1 RES1   0.0000
    68 H36      0.1935   7.5229  16.3727   H         1 RES1   0.0000
    69 H37      1.1945   7.6065  17.6187   H         1 RES1   0.0000
    70 H38     -0.0578   6.6099  17.6619   H         1 RES1   0.0000
    71 C26     -0.6540   3.6506  18.2090   C.3       1 RES1   0.0000
    72 H39      0.0222   4.2214  18.6293   H         1 RES1   0.0000
    73 H40     -0.9396   2.9618  18.8439   H         1 RES1   0.0000
    74 H41     -1.4264   4.1952  17.9502   H         1 RES1   0.0000
    75 C27      1.2906   1.7197  17.4617   C.3       1 RES1   0.0000
    76 H42      1.6215   1.1028  16.7763   H         1 RES1   0.0000
    77 H43      0.8711   1.2091  18.1856   H         1 RES1   0.0000
    78 H44      2.0389   2.2405  17.8205   H         1 RES1   0.0000
    79 C28     -1.3028   1.6814  16.3935   C.3       1 RES1   0.0000
    80 H45     -2.0933   2.1760  16.0940   H         1 RES1   0.0000
    81 H46     -1.5154   1.1917  17.2151   H         1 RES1   0.0000
    82 H47     -1.0289   1.0488  15.6968   H         1 RES1   0.0000
@<TRIPOS>BOND
     1     1     2    1
     2     2    47    1
     3     3     1    1
     4     4     1    1
     5     5    10    1
     6     6    30    1
     7     7     1    1
     8     8     7    1
     9     9     1    1
    10    10     9    3
    11    11     5    1
    12    12    11    1
    13    13    11    1
    14    14    11    1
    15    15     5    1
    16    16    15    1
    17    17    15    1
    18    18    15    1
    19    19     5    1
    20    20    19    1
    21    21    19    1
    22    22    19    1
    23    23     1    1
    24    24    23   ar
    25    25    24    1
    26    26    24   ar
    27    27    26    1
    28    28    26   ar
    29    29    28    1
    30    30    28   ar
    31    31    23   ar
    32    32     7    2
    33    33    32    1
    34    34    33   ar
    35    35    34    1
    36    36    34   ar
    37    37    36    1
    38    38    36   ar
    39    39    38    1
    40    40    38   ar
    41    41    40    1
    42    42    33   ar
    43    43    42    1
    44    44    43    1
    45    45    43    1
    46    46    43    1
    47    47    48    1
    48    49    47    1
    49    50    47    1
    50    51     2    1
    51    52    51    1
    52    53    51    1
    53    54    51    1
    54    55     2    1
    55    56    55    1
    56    57    55    1
    57    58    55    1
    58    59     3    1
    59    60    59    1
    60    61    59    1
    61    62    59    1
    62    63     3    1
    63    64    63    1
    64    65    63    1
    65    66    63    1
    66    67     3    1
    67    68    67    1
    68    69    67    1
    69    70    67    1
    70    71     4    1
    71    72    71    1
    72    73    71    1
    73    74    71    1
    74    75     4    1
    75    76    75    1
    76    77    75    1
    77    78    75    1
    78    79     4    1
    79    80    79    1
    80    81    79    1
    81    82    79    1
    82    30    31   ar
    83    31    32    1
    84    40    42   ar
@<TRIPOS>SUBSTRUCTURE
     1 RES1        1 GROUP             0 ****  ****    0  
@<TRIPOS>CRYSIN
   11.4867   17.4221   16.0246   90.0000   91.9270   90.0000   231     1
