@<TRIPOS>MOLECULE
FANCUS
    54    58     4     0     0
SMALL
USER_CHARGES
****
Generated from the CSD

@<TRIPOS>ATOM
     1 Fe1      5.2319   4.1585   0.0000   Fe        1 RES1   0.0000
     2 N1       6.5846   3.5264  -1.2414   N.ar      1 RES1   0.0000
     3 N2       5.2375   5.5890  -1.2567   N.2       1 RES1   0.0000
     4 N3       4.0035   8.5499  -2.6098   N.1       1 RES1   0.0000
     5 N4       1.9123   8.1340   0.9918   N.1       1 RES1   0.0000
     6 N5       3.8622   5.2896   0.9239   N.2       1 RES1   0.0000
     7 N6       1.5637   3.6927   1.3049   N.ar      1 RES1   1.0000
     8 C1       7.3193   2.4286  -1.1691   C.ar      1 RES1   0.0000
     9 C2       8.2896   2.0460  -2.1412   C.ar      1 RES1   0.0000
    10 C3       8.4403   2.8610  -3.2666   C.ar      1 RES1   0.0000
    11 C4       7.6867   4.0254  -3.3761   C.ar      1 RES1   0.0000
    12 C5       6.7918   4.3747  -2.3427   C.ar      1 RES1   0.0000
    13 C6       6.0194   5.5391  -2.2814   C.2       1 RES1   0.0000
    14 C7       4.3520   6.6037  -0.9305   C.2       1 RES1   0.0000
    15 C8       4.1354   7.6849  -1.8632   C.1       1 RES1   0.0000
    16 C9       3.6832   6.4041   0.2540   C.2       1 RES1   0.0000
    17 C10      2.7130   7.4021   0.6130   C.1       1 RES1   0.0000
    18 C11      3.2876   5.1732   2.2485   C.3       1 RES1   0.0000
    19 C12      2.3927   3.9589   2.3448   C.ar      1 RES1   0.0000
    20 C13      2.2796   3.1937   3.4965   C.ar      1 RES1   0.0000
    21 C14      1.3659   2.1292   3.5643   C.ar      1 RES1   0.0000
    22 C15      0.5652   1.8963   2.4302   C.ar      1 RES1   0.0000
    23 C16      0.6688   2.6781   1.3443   C.ar      1 RES1   0.0000
    24 N1B      6.5846   4.7906   1.2414   N.ar      1 RES1   0.0000
    25 N2B      5.2375   2.7280   1.2567   N.2       1 RES1   0.0000
    26 N5B      3.8622   3.0274  -0.9239   N.2       1 RES1   0.0000
    27 C1B      7.3193   5.8884   1.1691   C.ar      1 RES1   0.0000
    28 C5B      6.7918   3.9423   2.3427   C.ar      1 RES1   0.0000
    29 C6B      6.0194   2.7779   2.2814   C.2       1 RES1   0.0000
    30 C7B      4.3520   1.7133   0.9305   C.2       1 RES1   0.0000
    31 C9B      3.6832   1.9129  -0.2540   C.2       1 RES1   0.0000
    32 C11B     3.2876   3.1438  -2.2485   C.3       1 RES1   0.0000
    33 C2B      8.2896   6.2710   2.1412   C.ar      1 RES1   0.0000
    34 C4B      7.6867   4.2916   3.3761   C.ar      1 RES1   0.0000
    35 C8B      4.1354   0.6321   1.8632   C.1       1 RES1   0.0000
    36 C10B     2.7130   0.9149  -0.6130   C.1       1 RES1   0.0000
    37 C12B     2.3927   4.3581  -2.3448   C.ar      1 RES1   0.0000
    38 C3B      8.4403   5.4560   3.2666   C.ar      1 RES1   0.0000
    39 N3B      4.0035  -0.2329   2.6098   N.1       1 RES1   0.0000
    40 N4B      1.9123   0.1830  -0.9918   N.1       1 RES1   0.0000
    41 N6B      1.5637   4.6243  -1.3049   N.ar      1 RES1   0.0000
    42 C13B     2.2796   5.1233  -3.4965   C.ar      1 RES1   0.0000
    43 C16B     0.6688   5.6389  -1.3443   C.ar      1 RES1   0.0000
    44 C14B     1.3659   6.1878  -3.5643   C.ar      1 RES1   0.0000
    45 C15B     0.5652   6.4207  -2.4302   C.ar      1 RES1   0.0000
    46 P1       1.8181   8.1473   5.4735   P.3       2 RES2  -1.0000
    47 F1       1.7804   8.1673   4.0285   F         2 RES2   0.0000
    48 F2       1.6297   9.7143   5.4735   F         2 RES2   0.0000
    49 F3       0.2920   8.0010   5.4735   F         2 RES2   0.0000
    50 F4       1.9499   6.5871   5.4735   F         2 RES2   0.0000
    51 F5       3.4195   8.2671   5.4735   F         2 RES2   0.0000
    52 F1E      1.7804   8.1673   6.9185   F         2 RES2   0.0000
    53 O1       5.7933   6.6370   5.4735   O.3       3 RES3   0.0000
    54 O2       4.8513   4.2749   5.4735   O.3       4 RES4   0.0000
@<TRIPOS>BOND
     1     1     2    1
     2     2     8   ar
     3     3     1    1
     4     4    15    3
     5     5    17    3
     6     6     1    1
     7     7    19   ar
     8     8     9   ar
     9     9    10   ar
    10    10    11   ar
    11    11    12   ar
    12    12     2   ar
    13    13     3    2
    14    14     3    1
    15    15    14    1
    16    16     6    1
    17    17    16    1
    18    18     6    1
    19    19    18    1
    20    20    19   ar
    21    21    20   ar
    22    22    21   ar
    23    23     7   ar
    24    24     1    1
    25    25     1    1
    26    26     1    1
    27    27    24   ar
    28    28    24   ar
    29    29    25    2
    30    30    25    1
    31    31    26    1
    32    32    26    1
    33    33    27   ar
    34    34    28   ar
    35    35    30    1
    36    36    31    1
    37    37    32    1
    38    38    33   ar
    39    39    35    3
    40    40    36    3
    41    41    37   ar
    42    42    37   ar
    43    43    41   ar
    44    44    42   ar
    45    45    43   ar
    46    12    13    1
    47    14    16    2
    48    22    23   ar
    49    28    29    1
    50    30    31    2
    51    34    38   ar
    52    44    45   ar
    53    46    47    1
    54    48    46    1
    55    49    46    1
    56    50    46    1
    57    51    46    1
    58    52    46    1
@<TRIPOS>SUBSTRUCTURE
     1 RES1        1 GROUP             0 ****  ****    0  
     2 RES2       46 GROUP             0 ****  ****    0  
     3 RES3       53 GROUP             0 ****  ****    0  
     4 RES4       54 GROUP             0 ****  ****    0  
@<TRIPOS>CRYSIN
    9.4200   16.6340   21.8940   90.0000   90.0000   90.0000    57     1
