@<TRIPOS>MOLECULE
FANCUS01
    53    58     3     0     0
SMALL
USER_CHARGES
****
Generated from the CSD

@<TRIPOS>ATOM
     1 Fe1     -2.5046   4.1675   3.3565   Fe        1 RES1   0.0000
     2 N1      -1.1240   2.7809   3.5888   N.ar      1 RES1   0.0000
     3 N2      -2.3646   4.1675   5.2550   N.2       1 RES1   0.0000
     4 N3      -3.1043   5.3600   8.4396   N.1       1 RES1   0.0000
     5 N4      -5.6440   7.4881   6.0216   N.1       1 RES1   0.0000
     6 N5      -3.9042   5.5066   3.7311   N.2       1 RES1   0.0000
     7 N6      -3.2377   7.7636   2.1992   N.ar      1 RES1   1.0000
     8 C1      -0.4988   2.0366   2.6543   C.ar      1 RES1   0.0000
     9 C2       0.4790   1.1019   2.9202   C.ar      1 RES1   0.0000
    10 C3       0.8288   0.9310   4.2386   C.ar      1 RES1   0.0000
    11 C4       0.2253   1.6575   5.2442   C.ar      1 RES1   0.0000
    12 C5      -0.7554   2.5773   4.8911   C.ar      1 RES1   0.0000
    13 C6      -1.4844   3.3897   5.8269   C.2       1 RES1   0.0000
    14 C7      -3.2023   5.0360   5.8981   C.2       1 RES1   0.0000
    15 C8      -3.1619   5.2405   7.3145   C.1       1 RES1   0.0000
    16 C9      -4.0479   5.7233   5.0240   C.2       1 RES1   0.0000
    17 C10     -4.9713   6.7009   5.5691   C.1       1 RES1   0.0000
    18 C11     -4.8790   6.0501   2.8155   C.3       1 RES1   0.0000
    19 C12     -4.2578   6.9727   1.8058   C.ar      1 RES1   0.0000
    20 C13     -4.7225   7.0754   0.5088   C.ar      1 RES1   0.0000
    21 C14     -4.1253   7.9719  -0.3826   C.ar      1 RES1   0.0000
    22 C15     -3.1089   8.7609   0.0604   C.ar      1 RES1   0.0000
    23 C16     -2.6956   8.6199   1.3386   C.ar      1 RES1   0.0000
    24 N1A     -3.8852   2.7809   3.1243   N.ar      1 RES1   0.0000
    25 N2A     -2.6446   4.1675   1.4581   N.2       1 RES1   0.0000
    26 N5A     -1.1050   5.5066   2.9819   N.2       1 RES1   0.0000
    27 C1A     -4.5104   2.0366   4.0587   C.ar      1 RES1   0.0000
    28 C5A     -4.2538   2.5773   1.8219   C.ar      1 RES1   0.0000
    29 C6A     -3.5248   3.3897   0.8861   C.2       1 RES1   0.0000
    30 C7A     -1.8069   5.0360   0.8150   C.2       1 RES1   0.0000
    31 C9A     -0.9613   5.7233   1.6890   C.2       1 RES1   0.0000
    32 C11A    -0.1302   6.0501   3.8976   C.3       1 RES1   0.0000
    33 C2A     -5.4882   1.1019   3.7929   C.ar      1 RES1   0.0000
    34 C4A     -5.2345   1.6575   1.4688   C.ar      1 RES1   0.0000
    35 C8A     -1.8474   5.2405  -0.6015   C.1       1 RES1   0.0000
    36 C10A    -0.0379   6.7009   1.1439   C.1       1 RES1   0.0000
    37 C12A    -0.7514   6.9727   4.9072   C.ar      1 RES1   0.0000
    38 C3A     -5.8380   0.9310   2.4744   C.ar      1 RES1   0.0000
    39 N3A     -1.9049   5.3600  -1.7266   N.1       1 RES1   0.0000
    40 N4A      0.6348   7.4881   0.6914   N.1       1 RES1   0.0000
    41 N6A     -1.7715   7.7636   4.5139   N.ar      1 RES1   0.0000
    42 C13A    -0.2868   7.0754   6.2042   C.ar      1 RES1   0.0000
    43 C16A    -2.3136   8.6199   5.3745   C.ar      1 RES1   0.0000
    44 C14A    -0.8839   7.9719   7.0957   C.ar      1 RES1   0.0000
    45 C15A    -1.9003   8.7609   6.6526   C.ar      1 RES1   0.0000
    46 P1      -0.8388   1.7406  10.0696   P.3       2 RES2  -1.0000
    47 F1      -0.8388   0.2624  10.0696   F         2 RES2   0.0000
    48 F2      -0.8388   3.1796  10.0696   F         2 RES2   0.0000
    49 F3      -0.0479   1.7061   8.7162   F         2 RES2   0.0000
    50 F4      -2.1135   1.7173   9.3714   F         2 RES2   0.0000
    51 F3A     -1.6298   1.7061  11.4229   F         2 RES2   0.0000
    52 F4A      0.4358   1.7173  10.7677   F         2 RES2   0.0000
    53 O1      -2.2618   5.4160  11.2967   O.3       3 RES3   0.0000
@<TRIPOS>BOND
     1     1     2    1
     2     2     8   ar
     3     3     1    1
     4     4    15    3
     5     5    17    3
     6     6     1    1
     7     7    19   ar
     8     8     9   ar
     9     9    10   ar
    10    10    11   ar
    11    11    12   ar
    12    12     2   ar
    13    13     3    2
    14    14     3    1
    15    15    14    1
    16    16     6    1
    17    17    16    1
    18    18     6    1
    19    19    18    1
    20    20    19   ar
    21    21    20   ar
    22    22    21   ar
    23    23     7   ar
    24    24     1    1
    25    25     1    1
    26    26     1    1
    27    27    24   ar
    28    28    24   ar
    29    29    25    2
    30    30    25    1
    31    31    26    1
    32    32    26    1
    33    33    27   ar
    34    34    28   ar
    35    35    30    1
    36    36    31    1
    37    37    32    1
    38    38    33   ar
    39    39    35    3
    40    40    36    3
    41    41    37   ar
    42    42    37   ar
    43    43    41   ar
    44    44    42   ar
    45    45    43   ar
    46    12    13    1
    47    14    16    2
    48    22    23   ar
    49    28    29    1
    50    30    31    2
    51    34    38   ar
    52    44    45   ar
    53    46    47    1
    54    48    46    1
    55    49    46    1
    56    50    46    1
    57    51    46    1
    58    52    46    1
@<TRIPOS>SUBSTRUCTURE
     1 RES1        1 GROUP             0 ****  ****    0  
     2 RES2       46 GROUP             0 ****  ****    0  
     3 RES3       53 GROUP             0 ****  ****    0  
@<TRIPOS>CRYSIN
   13.3500    9.3380   16.7520   90.0000  126.7300   90.0000    13     1
