@<TRIPOS>MOLECULE
FANSAR
    75    77     1     0     0
SMALL
NO_CHARGES
****
Generated from the CSD

@<TRIPOS>ATOM
     1 Fe1      8.7997   3.6088  11.1370   Fe        1 RES1   0.0000
     2 H1       8.8401   2.4240  11.9765   H         1 RES1   0.0000
     3 P1       6.8553   2.7119  10.5548   P.3       1 RES1   0.0000
     4 P2      10.5522   4.1221  12.3713   P.3       1 RES1   0.0000
     5 O1      10.3356   2.0108   9.2887   O.2       1 RES1   0.0000
     6 O2       6.5048   6.0499  10.7709   O.2       1 RES1   0.0000
     7 N1       7.6855   4.4646  12.6784   N.3       1 RES1   0.0000
     8 H2       7.2534   5.2646  12.2625   H         1 RES1   0.0000
     9 N2       8.6506   5.4845  10.1414   N.am      1 RES1   0.0000
    10 C1       9.7056   2.6954   9.9940   C.1       1 RES1   0.0000
    11 C2       5.7211   3.1864  11.9259   C.3       1 RES1   0.0000
    12 H3       5.1363   3.9307  11.6367   H         1 RES1   0.0000
    13 H4       5.1477   2.4168  12.1712   H         1 RES1   0.0000
    14 C3       6.5524   3.6174  13.1281   C.3       1 RES1   0.0000
    15 H5       5.9854   4.1261  13.7610   H         1 RES1   0.0000
    16 H6       6.8995   2.8179  13.5979   H         1 RES1   0.0000
    17 C4       8.4120   5.0025  13.8633   C.3       1 RES1   0.0000
    18 H7       8.4217   4.3194  14.5799   H         1 RES1   0.0000
    19 H8       7.9368   5.7994  14.2057   H         1 RES1   0.0000
    20 C5       9.8463   5.3837  13.5089   C.3       1 RES1   0.0000
    21 H9      10.3927   5.4353  14.3329   H         1 RES1   0.0000
    22 H10      9.8592   6.2725  13.0724   H         1 RES1   0.0000
    23 C6       6.6700   0.8659  10.5136   C.3       1 RES1   0.0000
    24 H11      5.6927   0.6798  10.4106   H         1 RES1   0.0000
    25 C7       7.1041   0.2024  11.8247   C.3       1 RES1   0.0000
    26 H12      6.9067  -0.7569  11.7864   H         1 RES1   0.0000
    27 H13      6.6166   0.6068  12.5724   H         1 RES1   0.0000
    28 H14      8.0666   0.3332  11.9541   H         1 RES1   0.0000
    29 C8       7.3688   0.1981   9.3269   C.3       1 RES1   0.0000
    30 H15      8.3375   0.3281   9.4031   H         1 RES1   0.0000
    31 H16      7.0504   0.5996   8.4914   H         1 RES1   0.0000
    32 H17      7.1673  -0.7610   9.3267   H         1 RES1   0.0000
    33 C9       5.9360   3.3099   9.0540   C.3       1 RES1   0.0000
    34 H18      5.6517   4.2444   9.2668   H         1 RES1   0.0000
    35 C10      6.8411   3.4238   7.8219   C.3       1 RES1   0.0000
    36 H19      7.0777   2.5269   7.5063   H         1 RES1   0.0000
    37 H20      7.6570   3.9132   8.0602   H         1 RES1   0.0000
    38 H21      6.3670   3.9050   7.1111   H         1 RES1   0.0000
    39 C11      4.6429   2.5462   8.7432   C.3       1 RES1   0.0000
    40 H22      4.1209   3.0442   8.0797   H         1 RES1   0.0000
    41 H23      4.1169   2.4467   9.5648   H         1 RES1   0.0000
    42 H24      4.8653   1.6599   8.3866   H         1 RES1   0.0000
    43 C12     11.2700   2.7844  13.4511   C.3       1 RES1   0.0000
    44 H25     12.1507   3.1110  13.7925   H         1 RES1   0.0000
    45 C13     10.3961   2.4588  14.6647   C.3       1 RES1   0.0000
    46 H26      9.5142   2.1566  14.3614   H         1 RES1   0.0000
    47 H27     10.2930   3.2612  15.2177   H         1 RES1   0.0000
    48 H28     10.8201   1.7504  15.1922   H         1 RES1   0.0000
    49 C14     11.5263   1.4937  12.6662   C.3       1 RES1   0.0000
    50 H29     11.9993   0.8526  13.2371   H         1 RES1   0.0000
    51 H30     12.0723   1.6938  11.8777   H         1 RES1   0.0000
    52 H31     10.6717   1.1087  12.3822   H         1 RES1   0.0000
    53 C15     12.0695   4.9833  11.7279   C.3       1 RES1   0.0000
    54 H32     11.7466   5.7089  11.1202   H         1 RES1   0.0000
    55 C16     12.9096   5.6668  12.8088   C.3       1 RES1   0.0000
    56 H33     13.2171   4.9972  13.4556   H         1 RES1   0.0000
    57 H34     12.3651   6.3393  13.2685   H         1 RES1   0.0000
    58 H35     13.6838   6.1017  12.3942   H         1 RES1   0.0000
    59 C17     12.9431   4.0574  10.8736   C.3       1 RES1   0.0000
    60 H36     13.6132   4.5899  10.3956   H         1 RES1   0.0000
    61 H37     12.3802   3.5831  10.2265   H         1 RES1   0.0000
    62 H38     13.3932   3.4072  11.4526   H         1 RES1   0.0000
    63 C18      7.5823   6.2772  10.1702   C.2       1 RES1   0.0000
    64 H39      7.6405   7.0942   9.6890   H         1 RES1   0.0000
    65 C19      9.7589   6.0884   9.4808   C.ar      1 RES1   0.0000
    66 C20     10.4501   5.4160   8.4738   C.ar      1 RES1   0.0000
    67 H40     10.1705   4.5478   8.2084   H         1 RES1   0.0000
    68 C21     11.5477   6.0079   7.8556   C.ar      1 RES1   0.0000
    69 H41     12.0093   5.5402   7.1709   H         1 RES1   0.0000
    70 C22     11.9728   7.2728   8.2297   C.ar      1 RES1   0.0000
    71 H42     12.7325   7.6639   7.8162   H         1 RES1   0.0000
    72 C23     11.2853   7.9603   9.2058   C.ar      1 RES1   0.0000
    73 H43     11.5610   8.8353   9.4525   H         1 RES1   0.0000
    74 C24     10.1868   7.3784   9.8338   C.ar      1 RES1   0.0000
    75 H44      9.7213   7.8593  10.5079   H         1 RES1   0.0000
@<TRIPOS>BOND
     1     1     2    1
     2     3     1    1
     3     4     1    1
     4     5    10    3
     5     6    63    2
     6     7     1    1
     7     8     7    1
     8     9     1    1
     9    10     1    1
    10    11     3    1
    11    12    11    1
    12    13    11    1
    13    14     7    1
    14    15    14    1
    15    16    14    1
    16    17     7    1
    17    18    17    1
    18    19    17    1
    19    20     4    1
    20    21    20    1
    21    22    20    1
    22    23     3    1
    23    24    23    1
    24    25    23    1
    25    26    25    1
    26    27    25    1
    27    28    25    1
    28    29    23    1
    29    30    29    1
    30    31    29    1
    31    32    29    1
    32    33     3    1
    33    34    33    1
    34    35    33    1
    35    36    35    1
    36    37    35    1
    37    38    35    1
    38    39    33    1
    39    40    39    1
    40    41    39    1
    41    42    39    1
    42    43     4    1
    43    44    43    1
    44    45    43    1
    45    46    45    1
    46    47    45    1
    47    48    45    1
    48    49    43    1
    49    50    49    1
    50    51    49    1
    51    52    49    1
    52    53     4    1
    53    54    53    1
    54    55    53    1
    55    56    55    1
    56    57    55    1
    57    58    55    1
    58    59    53    1
    59    60    59    1
    60    61    59    1
    61    62    59    1
    62    63     9   am
    63    64    63    1
    64    65     9    1
    65    66    65   ar
    66    67    66    1
    67    68    66   ar
    68    69    68    1
    69    70    68   ar
    70    71    70    1
    71    72    70   ar
    72    73    72    1
    73    74    65   ar
    74    75    74    1
    75    11    14    1
    76    17    20    1
    77    72    74   ar
@<TRIPOS>SUBSTRUCTURE
     1 RES1        1 GROUP             0 ****  ****    0  
@<TRIPOS>CRYSIN
   17.5157   10.2844   15.8238   90.0000  108.9000   90.0000    14     1
