@<TRIPOS>MOLECULE
FAPBUV
    93   103     3     0     0
SMALL
NO_CHARGES
****
Generated from the CSD

@<TRIPOS>ATOM
     1 I1       5.6689  15.9551   0.9506   I         1 RES1   0.0000
     2 I2       1.8752  15.8529   0.9756   I         1 RES1   0.0000
     3 Fe1      3.8177  13.6804  -2.8107   Fe        1 RES1   0.0000
     4 O1       6.3589  14.2537  -1.5667   O.3       1 RES1   0.0000
     5 O2       1.2337  14.4738  -1.7489   O.3       1 RES1   0.0000
     6 O3       6.1338  15.0235  -3.8758   O.3       1 RES1   0.0000
     7 O4       1.2197  13.6113  -4.0771   O.3       1 RES1   0.0000
     8 O5       6.4438  12.6361  -3.4135   O.3       1 RES1   0.0000
     9 O6       1.4909  12.0759  -2.1841   O.3       1 RES1   0.0000
    10 N1       4.9899  14.3053  -1.4497   N.2       1 RES1   0.0000
    11 N2       2.5928  14.5623  -1.6347   N.2       1 RES1   0.0000
    12 N3       4.7979  14.8087  -4.0037   N.2       1 RES1   0.0000
    13 N4       2.5463  13.9515  -4.2104   N.2       1 RES1   0.0000
    14 N5       5.1254  12.3434  -3.1714   N.2       1 RES1   0.0000
    15 N6       2.8439  12.0801  -2.4017   N.2       1 RES1   0.0000
    16 F1       8.1097  14.1789  -3.0272   F         1 RES1   0.0000
    17 F2      -0.4807  13.2048  -2.6165   F         1 RES1   0.0000
    18 B1       6.7721  14.0347  -2.9484   B         1 RES1   0.0000
    19 B2       0.8555  13.3354  -2.7009   B         1 RES1   0.0000
    20 C1       4.5112  15.0277  -0.4733   C.2       1 RES1   0.0000
    21 C2       3.0579  15.0783  -0.5413   C.2       1 RES1   0.0000
    22 C3       4.2323  15.1078  -5.1760   C.2       1 RES1   0.0000
    23 C4       2.8631  14.7034  -5.2494   C.2       1 RES1   0.0000
    24 C5       4.8272  11.0765  -2.9484   C.2       1 RES1   0.0000
    25 C6       3.4327  10.9385  -2.5812   C.2       1 RES1   0.0000
    26 C7       4.9640  15.8070  -6.2694   C.ar      1 RES1   0.0000
    27 C8       4.8302  15.3089  -7.5613   C.ar      1 RES1   0.0000
    28 H1       4.3527  14.5012  -7.7109   H         1 RES1   0.0000
    29 C9       5.3935  15.9934  -8.6329   C.ar      1 RES1   0.0000
    30 H2       5.3022  15.6533  -9.5142   H         1 RES1   0.0000
    31 C10      6.0907  17.1750  -8.4126   C.ar      1 RES1   0.0000
    32 H3       6.4753  17.6436  -9.1443   H         1 RES1   0.0000
    33 C11      6.2246  17.6731  -7.1207   C.ar      1 RES1   0.0000
    34 H4       6.7005  18.4809  -6.9711   H         1 RES1   0.0000
    35 C12      5.6613  16.9886  -6.0490   C.ar      1 RES1   0.0000
    36 H5       5.7526  17.3288  -5.1678   H         1 RES1   0.0000
    37 C13      1.9529  15.0404  -6.3727   C.ar      1 RES1   0.0000
    38 C14      1.2626  14.0294  -7.0309   C.ar      1 RES1   0.0000
    39 H6       1.2979  13.1385  -6.7045   H         1 RES1   0.0000
    40 C15      0.5223  14.3232  -8.1706   C.ar      1 RES1   0.0000
    41 H7       0.0502  13.6324  -8.6221   H         1 RES1   0.0000
    42 C16      0.4706  15.6270  -8.6493   C.ar      1 RES1   0.0000
    43 H8      -0.0368  15.8281  -9.4271   H         1 RES1   0.0000
    44 C17      1.1593  16.6379  -7.9883   C.ar      1 RES1   0.0000
    45 H9       1.1240  17.5288  -8.3147   H         1 RES1   0.0000
    46 C18      1.9012  16.3441  -6.8514   C.ar      1 RES1   0.0000
    47 H10      2.3718  17.0349  -6.3999   H         1 RES1   0.0000
    48 C19      5.8253   9.9686  -3.0000   C.ar      1 RES1   0.0000
    49 C20      5.8251   9.0114  -1.9910   C.ar      1 RES1   0.0000
    50 H11      5.2283   9.0935  -1.2566   H         1 RES1   0.0000
    51 C21      6.6999   7.9330  -2.0590   C.ar      1 RES1   0.0000
    52 H12      6.7010   7.2780  -1.3708   H         1 RES1   0.0000
    53 C22      7.5732   7.8119  -3.1333   C.ar      1 RES1   0.0000
    54 H13      8.1712   7.0747  -3.1796   H         1 RES1   0.0000
    55 C23      7.5733   8.7692  -4.1397   C.ar      1 RES1   0.0000
    56 H14      8.1701   8.6870  -4.8740   H         1 RES1   0.0000
    57 C24      6.6986   9.8475  -4.0744   C.ar      1 RES1   0.0000
    58 H15      6.6975  10.5026  -4.7625   H         1 RES1   0.0000
    59 C25      2.7223   9.6180  -2.4941   C.ar      1 RES1   0.0000
    60 C26      1.7881   9.3863  -1.4905   C.ar      1 RES1   0.0000
    61 H16      1.6025  10.0624  -0.8513   H         1 RES1   0.0000
    62 C27      1.1256   8.1657  -1.4279   C.ar      1 RES1   0.0000
    63 H17      0.4871   8.0078  -0.7425   H         1 RES1   0.0000
    64 C28      1.3989   7.1769  -2.3636   C.ar      1 RES1   0.0000
    65 H18      0.9460   6.3428  -2.3201   H         1 RES1   0.0000
    66 C29      2.3331   7.4086  -3.3672   C.ar      1 RES1   0.0000
    67 H19      2.5203   6.7325  -4.0091   H         1 RES1   0.0000
    68 C30      2.9956   8.6291  -3.4325   C.ar      1 RES1   0.0000
    69 H20      3.6341   8.7871  -4.1179   H         1 RES1   0.0000
    70 C31      3.5695   9.7833  -8.4425   C.ar      2 RES2   0.0000
    71 H21      3.1836   9.1736  -9.0600   H         2 RES2   0.0000
    72 C32      4.8640  10.2498  -8.6438   C.ar      2 RES2   0.0000
    73 H22      5.3606   9.9581  -9.3999   H         2 RES2   0.0000
    74 C33      5.4296  11.1418  -7.7408   C.ar      2 RES2   0.0000
    75 H23      6.3137  11.4609  -7.8795   H         2 RES2   0.0000
    76 C34      4.7007  11.5683  -6.6365   C.ar      2 RES2   0.0000
    77 H24      5.0881  12.1791  -6.0191   H         2 RES2   0.0000
    78 C35      3.4076  11.1028  -6.4353   C.ar      2 RES2   0.0000
    79 H25      2.9095  11.3945  -5.6791   H         2 RES2   0.0000
    80 C36      2.8420  10.2098  -7.3383   C.ar      2 RES2   0.0000
    81 H26      1.9565   9.8918  -7.1996   H         2 RES2   0.0000
    82 C37     -3.3406   9.3505  -1.6537   C.ar      3 RES3   0.0000
    83 H27     -2.7823   8.5838  -1.7027   H         3 RES3   0.0000
    84 C38     -2.8046  10.6152  -1.8631   C.ar      3 RES3   0.0000
    85 H28     -1.8797  10.7142  -2.0562   H         3 RES3   0.0000
    86 C39     -3.6215  11.7379  -1.7870   C.ar      3 RES3   0.0000
    87 H29     -3.2549  12.6024  -1.9311   H         3 RES3   0.0000
    88 C40     -4.9745  11.5946  -1.5041   C.ar      3 RES3   0.0000
    89 H30     -5.5328  12.3613  -1.4524   H         3 RES3   0.0000
    90 C41     -5.5105  10.3299  -1.2947   C.ar      3 RES3   0.0000
    91 H31     -6.4355  10.2319  -1.0988   H         3 RES3   0.0000
    92 C42     -4.6936   9.2073  -1.3681   C.ar      3 RES3   0.0000
    93 H32     -5.0587   8.3427  -1.2240   H         3 RES3   0.0000
@<TRIPOS>BOND
     1     1    20    1
     2     2    21    1
     3     3    10    1
     4     4    10    1
     5     5    11    1
     6     6    12    1
     7     7    13    1
     8     8    14    1
     9     9    15    1
    10    10    20    2
    11    11     3    1
    12    12     3    1
    13    13     3    1
    14    14     3    1
    15    15     3    1
    16    16    18    1
    17    17    19    1
    18    18     4    1
    19    19     5    1
    20    20    21    1
    21    21    11    2
    22    22    12    2
    23    23    13    2
    24    24    14    2
    25    25    15    2
    26    26    22    1
    27    27    26   ar
    28    28    27    1
    29    29    27   ar
    30    30    29    1
    31    31    29   ar
    32    32    31    1
    33    33    31   ar
    34    34    33    1
    35    35    26   ar
    36    36    35    1
    37    37    23    1
    38    38    37   ar
    39    39    38    1
    40    40    38   ar
    41    41    40    1
    42    42    40   ar
    43    43    42    1
    44    44    42   ar
    45    45    44    1
    46    46    37   ar
    47    47    46    1
    48    48    24    1
    49    49    48   ar
    50    50    49    1
    51    51    49   ar
    52    52    51    1
    53    53    51   ar
    54    54    53    1
    55    55    53   ar
    56    56    55    1
    57    57    48   ar
    58    58    57    1
    59    59    25    1
    60    60    59   ar
    61    61    60    1
    62    62    60   ar
    63    63    62    1
    64    64    62   ar
    65    65    64    1
    66    66    64   ar
    67    67    66    1
    68    68    59   ar
    69    69    68    1
    70     6    18    1
    71     7    19    1
    72     8    18    1
    73     9    19    1
    74    22    23    1
    75    24    25    1
    76    33    35   ar
    77    44    46   ar
    78    55    57   ar
    79    66    68   ar
    80    70    71    1
    81    72    70   ar
    82    73    72    1
    83    74    72   ar
    84    75    74    1
    85    76    74   ar
    86    77    76    1
    87    78    76   ar
    88    79    78    1
    89    80    70   ar
    90    81    80    1
    91    78    80   ar
    92    82    83    1
    93    84    82   ar
    94    85    84    1
    95    86    84   ar
    96    87    86    1
    97    88    86   ar
    98    89    88    1
    99    90    88   ar
   100    91    90    1
   101    92    82   ar
   102    93    92    1
   103    90    92   ar
@<TRIPOS>SUBSTRUCTURE
     1 RES1        1 GROUP             0 ****  ****    0  
     2 RES2       70 GROUP             0 ****  ****    0  
     3 RES3       82 GROUP             0 ****  ****    0  
@<TRIPOS>CRYSIN
   15.2660   10.5310   27.2060   90.0000   91.3070   90.0000    14     1
