@<TRIPOS>MOLECULE
FAPKOZ
   111   121     1     0     0
SMALL
NO_CHARGES
****
Generated from the CSD

@<TRIPOS>ATOM
     1 Fe1      4.3285   0.8213   5.5756   Fe        1 RES1   0.0000
     2 P1       6.1619   1.8356   4.7762   P.3       1 RES1   0.0000
     3 C1       6.0576   1.9410   2.8970   C.3       1 RES1   0.0000
     4 C2       5.3195   0.7223   2.4021   C.3       1 RES1   0.0000
     5 P2       3.7627   0.6287   3.4204   P.3       1 RES1   0.0000
     6 C3       2.9390  -0.8856   2.7681   C.ar      1 RES1   0.0000
     7 C4       1.6203  -1.1354   3.1083   C.ar      1 RES1   0.0000
     8 C5       0.9181  -2.2199   2.5705   C.ar      1 RES1   0.0000
     9 C6       1.5628  -3.0709   1.6753   C.ar      1 RES1   0.0000
    10 C7       2.8854  -2.8525   1.3454   C.ar      1 RES1   0.0000
    11 C8       3.5731  -1.7636   1.8695   C.ar      1 RES1   0.0000
    12 H1       4.4571  -1.6155   1.6152   H         1 RES1   0.0000
    13 H2       3.3093  -3.4353   0.7767   H         1 RES1   0.0000
    14 H3       1.1056  -3.7922   1.3110   H         1 RES1   0.0000
    15 H4       0.0218  -2.3594   2.8111   H         1 RES1   0.0000
    16 H5       1.1909  -0.5634   3.6960   H         1 RES1   0.0000
    17 C9       2.7756   1.8934   2.5138   C.ar      1 RES1   0.0000
    18 C10      1.9334   1.6166   1.4416   C.ar      1 RES1   0.0000
    19 C11      1.2400   2.6254   0.7612   C.ar      1 RES1   0.0000
    20 C12      1.3930   3.9392   1.1873   C.ar      1 RES1   0.0000
    21 C13      2.2341   4.2431   2.2234   C.ar      1 RES1   0.0000
    22 C14      2.9145   3.2299   2.8764   C.ar      1 RES1   0.0000
    23 H6       3.4846   3.4418   3.5963   H         1 RES1   0.0000
    24 H7       2.3635   5.1341   2.4983   H         1 RES1   0.0000
    25 H8       0.9591   4.6118   0.7268   H         1 RES1   0.0000
    26 H9       0.6774   2.4189   0.0636   H         1 RES1   0.0000
    27 H10      1.8069   0.7342   1.1804   H         1 RES1   0.0000
    28 H11      5.8537  -0.0703   2.5499   H         1 RES1   0.0000
    29 H12      5.1152   0.8175   1.4571   H         1 RES1   0.0000
    30 H13      6.9530   1.9658   2.5155   H         1 RES1   0.0000
    31 H14      5.5725   2.7281   2.6444   H         1 RES1   0.0000
    32 C15      6.7188   3.5662   5.1427   C.ar      1 RES1   0.0000
    33 C16      6.3609   4.6496   4.3334   C.ar      1 RES1   0.0000
    34 C17      6.7085   5.9732   4.6822   C.ar      1 RES1   0.0000
    35 C18      7.4676   6.2143   5.8163   C.ar      1 RES1   0.0000
    36 C19      7.8471   5.1643   6.6153   C.ar      1 RES1   0.0000
    37 C20      7.4694   3.8624   6.2819   C.ar      1 RES1   0.0000
    38 H15      7.7169   3.1715   6.8627   H         1 RES1   0.0000
    39 H16      8.3800   5.3114   7.3593   H         1 RES1   0.0000
    40 H17      7.7009   7.0934   6.0225   H         1 RES1   0.0000
    41 H18      6.4380   6.6749   4.1324   H         1 RES1   0.0000
    42 H19      5.8631   4.4950   3.5568   H         1 RES1   0.0000
    43 C21      7.8113   0.9343   4.8438   C.ar      1 RES1   0.0000
    44 C22      7.8074  -0.4293   4.5534   C.ar      1 RES1   0.0000
    45 C23      8.9760  -1.1689   4.4726   C.ar      1 RES1   0.0000
    46 C24     10.1929  -0.5623   4.6977   C.ar      1 RES1   0.0000
    47 C25     10.2288   0.7980   4.9984   C.ar      1 RES1   0.0000
    48 C26      9.0522   1.5128   5.0585   C.ar      1 RES1   0.0000
    49 H20      9.0917   2.4243   5.2424   H         1 RES1   0.0000
    50 H21     11.0479   1.1981   5.1908   H         1 RES1   0.0000
    51 H22     10.9852  -1.0629   4.6547   H         1 RES1   0.0000
    52 H23      8.9493  -2.0718   4.2767   H         1 RES1   0.0000
    53 H24      6.9907  -0.8834   4.4245   H         1 RES1   0.0000
    54 P3       4.8777   0.7895   7.7239   P.3       1 RES1   0.0000
    55 C27      3.3204   0.7364   8.7167   C.3       1 RES1   0.0000
    56 C28      2.4142   1.8426   8.1840   C.3       1 RES1   0.0000
    57 P4       2.5693   1.9602   6.2948   P.3       1 RES1   0.0000
    58 C29      2.1748   3.8127   6.2321   C.ar      1 RES1   0.0000
    59 C30      3.1213   4.7394   5.8592   C.ar      1 RES1   0.0000
    60 C31      2.8984   6.0986   5.9692   C.ar      1 RES1   0.0000
    61 C32      1.6815   6.5690   6.4795   C.ar      1 RES1   0.0000
    62 C33      0.7217   5.6261   6.8902   C.ar      1 RES1   0.0000
    63 C34      0.9664   4.2463   6.7613   C.ar      1 RES1   0.0000
    64 H25      0.3203   3.6343   7.0620   H         1 RES1   0.0000
    65 H26     -0.0784   5.9115   7.2321   H         1 RES1   0.0000
    66 H27      1.5174   7.4827   6.5637   H         1 RES1   0.0000
    67 H28      3.5391   6.7106   5.6874   H         1 RES1   0.0000
    68 H29      3.9503   4.4312   5.5379   H         1 RES1   0.0000
    69 C35      0.9266   1.2889   5.7630   C.ar      1 RES1   0.0000
    70 C36      0.2163   1.8296   4.7011   C.ar      1 RES1   0.0000
    71 C37     -0.9759   1.2824   4.2870   C.ar      1 RES1   0.0000
    72 C38     -1.4623   0.1200   4.8867   C.ar      1 RES1   0.0000
    73 C39     -0.7639  -0.4293   5.9572   C.ar      1 RES1   0.0000
    74 C40      0.4165   0.1373   6.3799   C.ar      1 RES1   0.0000
    75 H30      0.8833  -0.2401   7.0947   H         1 RES1   0.0000
    76 H31     -1.0815  -1.1981   6.3764   H         1 RES1   0.0000
    77 H32     -2.2667  -0.2552   4.6118   H         1 RES1   0.0000
    78 H33     -1.4532   1.6695   3.5843   H         1 RES1   0.0000
    79 H34      0.5349   2.6070   4.2785   H         1 RES1   0.0000
    80 H35      2.7277   2.6881   8.5380   H         1 RES1   0.0000
    81 H36      1.4961   1.6868   8.4194   H         1 RES1   0.0000
    82 H37      3.5111   0.8921   9.6686   H         1 RES1   0.0000
    83 H38      2.8951  -0.1254   8.6188   H         1 RES1   0.0000
    84 C41      5.6828   2.1940   8.6050   C.ar      1 RES1   0.0000
    85 C42      6.6510   2.0599   9.6205   C.ar      1 RES1   0.0000
    86 C43      7.1448   3.1672  10.2425   C.ar      1 RES1   0.0000
    87 C44      6.6939   4.4442   9.9607   C.ar      1 RES1   0.0000
    88 C45      5.7273   4.6042   8.9796   C.ar      1 RES1   0.0000
    89 C46      5.2670   3.4851   8.2665   C.ar      1 RES1   0.0000
    90 H39      4.6641   3.6062   7.5792   H         1 RES1   0.0000
    91 H40      5.3982   5.4476   8.7992   H         1 RES1   0.0000
    92 H41      7.0521   5.1697  10.4092   H         1 RES1   0.0000
    93 H42      7.8019   3.0536  10.8954   H         1 RES1   0.0000
    94 H43      6.9357   1.2154   9.8576   H         1 RES1   0.0000
    95 C47      5.8314  -0.6261   8.3902   C.ar      1 RES1   0.0000
    96 C48      5.2847  -1.6112   9.2287   C.ar      1 RES1   0.0000
    97 C49      6.0461  -2.6741   9.6755   C.ar      1 RES1   0.0000
    98 C50      7.3729  -2.7844   9.2992   C.ar      1 RES1   0.0000
    99 C51      7.9482  -1.8220   8.4744   C.ar      1 RES1   0.0000
   100 C52      7.1782  -0.7764   8.0174   C.ar      1 RES1   0.0000
   101 H44      7.5794  -0.1330   7.4469   H         1 RES1   0.0000
   102 H45      8.8528  -1.8890   8.2373   H         1 RES1   0.0000
   103 H46      7.8829  -3.5034   9.6102   H         1 RES1   0.0000
   104 H47      5.6599  -3.3283  10.2185   H         1 RES1   0.0000
   105 H48      4.3892  -1.5333   9.4985   H         1 RES1   0.0000
   106 C53      4.7821  -1.2132   5.3833   C.2       1 RES1   0.0000
   107 C54      3.4863  -1.0402   5.9726   C.2       1 RES1   0.0000
   108 H49      2.7132  -1.3257   5.4383   H         1 RES1   0.0000
   109 H50      3.3553  -1.3116   6.9022   H         1 RES1   0.0000
   110 H51      5.5214  -1.5549   5.9537   H         1 RES1   0.0000
   111 H52      4.8542  -1.6003   4.4881   H         1 RES1   0.0000
@<TRIPOS>BOND
     1     1     2    1
     2     2     3    1
     3     3     4    1
     4     4     5    1
     5     5     1    1
     6     6     5    1
     7     7     6   ar
     8     8     7   ar
     9     9     8   ar
    10    10     9   ar
    11    11     6   ar
    12    12    11    1
    13    13    10    1
    14    14     9    1
    15    15     8    1
    16    16     7    1
    17    17     5    1
    18    18    17   ar
    19    19    18   ar
    20    20    19   ar
    21    21    20   ar
    22    22    17   ar
    23    23    22    1
    24    24    21    1
    25    25    20    1
    26    26    19    1
    27    27    18    1
    28    28     4    1
    29    29     4    1
    30    30     3    1
    31    31     3    1
    32    32     2    1
    33    33    32   ar
    34    34    33   ar
    35    35    34   ar
    36    36    35   ar
    37    37    32   ar
    38    38    37    1
    39    39    36    1
    40    40    35    1
    41    41    34    1
    42    42    33    1
    43    43     2    1
    44    44    43   ar
    45    45    44   ar
    46    46    45   ar
    47    47    46   ar
    48    48    43   ar
    49    49    48    1
    50    50    47    1
    51    51    46    1
    52    52    45    1
    53    53    44    1
    54    54     1    1
    55    55    54    1
    56    56    55    1
    57    57     1    1
    58    58    57    1
    59    59    58   ar
    60    60    59   ar
    61    61    60   ar
    62    62    61   ar
    63    63    58   ar
    64    64    63    1
    65    65    62    1
    66    66    61    1
    67    67    60    1
    68    68    59    1
    69    69    57    1
    70    70    69   ar
    71    71    70   ar
    72    72    71   ar
    73    73    72   ar
    74    74    69   ar
    75    75    74    1
    76    76    73    1
    77    77    72    1
    78    78    71    1
    79    79    70    1
    80    80    56    1
    81    81    56    1
    82    82    55    1
    83    83    55    1
    84    84    54    1
    85    85    84   ar
    86    86    85   ar
    87    87    86   ar
    88    88    87   ar
    89    89    84   ar
    90    90    89    1
    91    91    88    1
    92    92    87    1
    93    93    86    1
    94    94    85    1
    95    95    54    1
    96    96    95   ar
    97    97    96   ar
    98    98    97   ar
    99    99    98   ar
   100   100    95   ar
   101   101   100    1
   102   102    99    1
   103   103    98    1
   104   104    97    1
   105   105    96    1
   106   106     1   un
   107   107     1   un
   108   108   107    1
   109   109   107    1
   110   110   106    1
   111   111   106    1
   112    10    11   ar
   113    21    22   ar
   114    36    37   ar
   115    47    48   ar
   116    56    57    1
   117    62    63   ar
   118    73    74   ar
   119    88    89   ar
   120    99   100   ar
   121   106   107    2
@<TRIPOS>SUBSTRUCTURE
     1 RES1        1 GROUP             0 ****  ****    0  
@<TRIPOS>CRYSIN
   23.2750   10.8131   17.8960   90.0000  106.2330   90.0000    14     1
