@<TRIPOS>MOLECULE
FAQBEH
    85    92     1     0     0
SMALL
NO_CHARGES
****
Generated from the CSD

@<TRIPOS>ATOM
     1 C1      11.1833   8.8032  11.4918   C.2       1 RES1   0.0000
     2 C2      12.1755   9.3719  10.6592   C.2       1 RES1   0.0000
     3 C3      11.0686   9.2901   7.6609   C.2       1 RES1   0.0000
     4 C4      10.0312  10.2450   7.8111   C.2       1 RES1   0.0000
     5 C5      13.4109   6.6058  10.2374   C.3       1 RES1   0.0000
     6 C6      15.1889   9.0462  10.7149   C.3       1 RES1   0.0000
     7 C7      13.3548   9.3895   5.6473   C.3       1 RES1   0.0000
     8 C8      13.2576  11.4510   7.8741   C.3       1 RES1   0.0000
     9 C9       7.5289   7.4069   8.6351   C.ar      1 RES1   0.0000
    10 C10      7.8711   7.6038   7.2970   C.ar      1 RES1   0.0000
    11 C11      6.9022   7.6159   6.2991   C.ar      1 RES1   0.0000
    12 C12      5.5732   7.4718   6.6328   C.ar      1 RES1   0.0000
    13 C13      5.2145   7.2685   7.9396   C.ar      1 RES1   0.0000
    14 C14      6.1873   7.2117   8.9358   C.ar      1 RES1   0.0000
    15 C15      9.5012   5.8394   9.9886   C.ar      1 RES1   0.0000
    16 C16     10.0108   5.3174  11.1782   C.ar      1 RES1   0.0000
    17 C17     10.5888   4.0515  11.2040   C.ar      1 RES1   0.0000
    18 C18     10.6693   3.2962  10.0551   C.ar      1 RES1   0.0000
    19 C19     10.1664   3.7962   8.8690   C.ar      1 RES1   0.0000
    20 C20      9.5943   5.0641   8.8342   C.ar      1 RES1   0.0000
    21 C21      7.9027   7.6343  11.4909   C.3       1 RES1   0.0000
    22 C22      7.1061   8.9186  11.7428   C.3       1 RES1   0.0000
    23 C23      7.9660  10.1422  12.0632   C.3       1 RES1   0.0000
    24 C24      7.6802  11.6818   9.6838   C.ar      1 RES1   0.0000
    25 C25      6.8216  10.9443   8.8749   C.ar      1 RES1   0.0000
    26 C26      5.8091  11.5635   8.1501   C.ar      1 RES1   0.0000
    27 C27      5.6762  12.9383   8.1912   C.ar      1 RES1   0.0000
    28 C28      6.5276  13.6819   8.9743   C.ar      1 RES1   0.0000
    29 C29      7.5292  13.0688   9.7252   C.ar      1 RES1   0.0000
    30 C30      9.8719  12.1716  11.4261   C.ar      1 RES1   0.0000
    31 C31      9.7247  12.5715  12.7477   C.ar      1 RES1   0.0000
    32 C32     10.4545  13.6519  13.2451   C.ar      1 RES1   0.0000
    33 C33     11.3261  14.3354  12.4235   C.ar      1 RES1   0.0000
    34 C34     11.4741  13.9585  11.1039   C.ar      1 RES1   0.0000
    35 C35     10.7697  12.8707  10.6161   C.ar      1 RES1   0.0000
    36 Fe1     10.3801   9.2929   9.6230   Fe        1 RES1   0.0000
    37 P1       8.8449   7.5569   9.9071   P.3       1 RES1   0.0000
    38 H1       9.2340   5.3656   8.0551   H         1 RES1   0.0000
    39 H2      10.1717   3.2841   8.0975   H         1 RES1   0.0000
    40 H3      11.0160   2.3938  10.0551   H         1 RES1   0.0000
    41 H4      10.9109   3.7590  11.9986   H         1 RES1   0.0000
    42 H5       9.9629   5.7994  11.9858   H         1 RES1   0.0000
    43 P2       8.9696  10.7813  10.6446   P.3       1 RES1   0.0000
    44 H6       9.0867  12.1483  13.3221   H         1 RES1   0.0000
    45 H7      10.3571  13.8874  14.1257   H         1 RES1   0.0000
    46 H8      11.8348  15.0631  12.7457   H         1 RES1   0.0000
    47 H9      12.0923  14.4181  10.5275   H         1 RES1   0.0000
    48 H10     10.8958  12.6079   9.7085   H         1 RES1   0.0000
    49 H11      6.9210  10.0208   8.8164   H         1 RES1   0.0000
    50 H12      5.2398  11.0577   7.6200   H         1 RES1   0.0000
    51 H13      4.9709  13.3385   7.7073   H         1 RES1   0.0000
    52 H14      6.4353  14.6250   9.0307   H         1 RES1   0.0000
    53 H15      8.1201  13.5983  10.2425   H         1 RES1   0.0000
    54 H16      8.5920   9.9431  12.7997   H         1 RES1   0.0000
    55 H17      7.4376  10.8413  12.3504   H         1 RES1   0.0000
    56 H18      6.4983   8.7608  12.5172   H         1 RES1   0.0000
    57 H19      6.5037   9.0902  10.9858   H         1 RES1   0.0000
    58 H20      8.5895   7.5693  12.1963   H         1 RES1   0.0000
    59 H21      7.3627   6.9224  11.5622   H         1 RES1   0.0000
    60 H22      5.9388   7.0608   9.8087   H         1 RES1   0.0000
    61 H23      4.3273   7.1750   8.1668   H         1 RES1   0.0000
    62 H24      4.9192   7.4820   5.9396   H         1 RES1   0.0000
    63 H25      7.1661   7.6897   5.4082   H         1 RES1   0.0000
    64 H26      8.7776   7.7352   7.0269   H         1 RES1   0.0000
    65 H27      9.1173  10.0567   7.4955   H         1 RES1   0.0000
    66 H28     10.2567  11.2125   7.8305   H         1 RES1   0.0000
    67 Si1     12.8525   9.6939   7.4100   Si        1 RES1   0.0000
    68 O1      13.7620   8.6857   8.3414   O.3       1 RES1   0.0000
    69 Si2     13.6008   8.4333   9.9522   Si        1 RES1   0.0000
    70 H29     11.1856   7.8323  11.6636   H         1 RES1   0.0000
    71 H30     10.8244   9.3135  12.2656   H         1 RES1   0.0000
    72 H31     12.3353  10.2270  10.7727   H         1 RES1   0.0000
    73 H32     13.3541   6.3731  11.1642   H         1 RES1   0.0000
    74 H33     14.1465   6.1569   9.8651   H         1 RES1   0.0000
    75 H34     12.5854   6.2423   9.8279   H         1 RES1   0.0000
    76 H35     15.1908   8.9689  11.6341   H         1 RES1   0.0000
    77 H36     15.8950   8.6769  10.3401   H         1 RES1   0.0000
    78 H37     15.2831   9.9890  10.5404   H         1 RES1   0.0000
    79 H38     14.1906  11.6472   7.7317   H         1 RES1   0.0000
    80 H39     13.1409  11.6363   8.7753   H         1 RES1   0.0000
    81 H40     12.7995  12.0774   7.4107   H         1 RES1   0.0000
    82 H41     10.7872   8.4148   7.3170   H         1 RES1   0.0000
    83 H42     13.1479   8.4935   5.4095   H         1 RES1   0.0000
    84 H43     14.2888   9.5345   5.5558   H         1 RES1   0.0000
    85 H44     12.8842   9.9863   5.0757   H         1 RES1   0.0000
@<TRIPOS>BOND
     1     1     2    2
     2     2    36   un
     3     3     4    2
     4     4    36   un
     5     5    69    1
     6     6    69    1
     7     7    67    1
     8     8    67    1
     9     9    10   ar
    10    10    11   ar
    11    11    12   ar
    12    12    13   ar
    13    13    14   ar
    14    14     9   ar
    15    15    16   ar
    16    16    17   ar
    17    17    18   ar
    18    18    19   ar
    19    19    20   ar
    20    20    15   ar
    21    21    22    1
    22    22    23    1
    23    23    43    1
    24    24    25   ar
    25    25    26   ar
    26    26    27   ar
    27    27    28   ar
    28    28    29   ar
    29    29    24   ar
    30    30    31   ar
    31    31    32   ar
    32    32    33   ar
    33    33    34   ar
    34    34    35   ar
    35    35    30   ar
    36    36     1   un
    37    37     9    1
    38    38    20    1
    39    39    19    1
    40    40    18    1
    41    41    17    1
    42    42    16    1
    43    43    24    1
    44    44    31    1
    45    45    32    1
    46    46    33    1
    47    47    34    1
    48    48    35    1
    49    49    25    1
    50    50    26    1
    51    51    27    1
    52    52    28    1
    53    53    29    1
    54    54    23    1
    55    55    23    1
    56    56    22    1
    57    57    22    1
    58    58    21    1
    59    59    21    1
    60    60    14    1
    61    61    13    1
    62    62    12    1
    63    63    11    1
    64    64    10    1
    65    65     4    1
    66    66     4    1
    67    67     3    1
    68    68    67    1
    69    69     2    1
    70    70     1    1
    71    71     1    1
    72    72     2    1
    73    73     5    1
    74    74     5    1
    75    75     5    1
    76    76     6    1
    77    77     6    1
    78    78     6    1
    79    79     8    1
    80    80     8    1
    81    81     8    1
    82    82     3    1
    83    83     7    1
    84    84     7    1
    85    85     7    1
    86     3    36   un
    87    15    37    1
    88    21    37    1
    89    30    43    1
    90    36    37    1
    91    36    43    1
    92    68    69    1
@<TRIPOS>SUBSTRUCTURE
     1 RES1        1 GROUP             0 ****  ****    0  
@<TRIPOS>CRYSIN
   11.8587   11.8767   13.4547   76.8500   74.7490   69.1610     2     1
