@<TRIPOS>MOLECULE
FAQBIL
    82    89     1     0     0
SMALL
NO_CHARGES
****
Generated from the CSD

@<TRIPOS>ATOM
     1 Si1      5.9695  11.7165   4.9196   Si        1 RES1   0.0000
     2 Si2      6.2592  13.9322   6.8699   Si        1 RES1   0.0000
     3 C1       8.4475  10.2798   5.1558   C.2       1 RES1   0.0000
     4 C2       7.8045  11.5099   4.9099   C.2       1 RES1   0.0000
     5 C3       7.2467  12.7087   7.8430   C.2       1 RES1   0.0000
     6 C4       8.5425  12.9466   8.3724   C.2       1 RES1   0.0000
     7 C5       5.1609  10.3504   5.8869   C.3       1 RES1   0.0000
     8 C6       5.3151  11.7198   3.1751   C.3       1 RES1   0.0000
     9 C7       4.8330  14.5653   7.8954   C.3       1 RES1   0.0000
    10 C8       7.2288  15.3984   6.2897   C.3       1 RES1   0.0000
    11 C9      11.5374  13.7338   6.8479   C.ar      1 RES1   0.0000
    12 C10     10.8669  14.7408   6.1687   C.ar      1 RES1   0.0000
    13 C11     11.3061  16.0610   6.2240   C.ar      1 RES1   0.0000
    14 C12     12.4142  16.3825   6.9845   C.ar      1 RES1   0.0000
    15 C13     13.0883  15.3919   7.6655   C.ar      1 RES1   0.0000
    16 C14     12.6600  14.0716   7.5929   C.ar      1 RES1   0.0000
    17 C15      8.5920   9.8042   9.8344   C.ar      1 RES1   0.0000
    18 C16      7.2040   9.8026  10.0040   C.ar      1 RES1   0.0000
    19 C17      6.6451   9.8665  11.2640   C.ar      1 RES1   0.0000
    20 C18      7.4533   9.9649  12.3875   C.ar      1 RES1   0.0000
    21 C19      8.8161   9.9813  12.2319   C.ar      1 RES1   0.0000
    22 C20      9.3844   9.8879  10.9736   C.ar      1 RES1   0.0000
    23 C21      9.0065   8.0002   7.6624   C.ar      1 RES1   0.0000
    24 C22      8.2544   7.0981   8.4104   C.ar      1 RES1   0.0000
    25 C23      8.1203   5.7681   8.0181   C.ar      1 RES1   0.0000
    26 C24      8.7468   5.3236   6.8721   C.ar      1 RES1   0.0000
    27 C25      9.4945   6.2010   6.1082   C.ar      1 RES1   0.0000
    28 C26      9.6108   7.5295   6.4971   C.ar      1 RES1   0.0000
    29 C27     11.0809   9.7895   8.3188   C.3       1 RES1   0.0000
    30 C28     11.6340  11.2065   8.2116   C.3       1 RES1   0.0000
    31 C29     11.8468  11.3491   5.3176   C.ar      1 RES1   0.0000
    32 C30     12.8975  10.4406   5.4272   C.ar      1 RES1   0.0000
    33 C31     13.5370   9.9567   4.2847   C.ar      1 RES1   0.0000
    34 C32     13.1471  10.3766   3.0299   C.ar      1 RES1   0.0000
    35 C33     12.1036  11.2868   2.9124   C.ar      1 RES1   0.0000
    36 C34     11.4584  11.7510   4.0462   C.ar      1 RES1   0.0000
    37 Fe1      8.6318  11.5653   6.7985   Fe        1 RES1   0.0000
    38 P1      10.8886  12.0150   6.7370   P.3       1 RES1   0.0000
    39 H1      10.7561  12.3545   3.9632   H         1 RES1   0.0000
    40 H2      11.8393  11.5870   2.0585   H         1 RES1   0.0000
    41 H3      13.5791  10.0633   2.2590   H         1 RES1   0.0000
    42 H4      14.2285   9.3319   4.3729   H         1 RES1   0.0000
    43 H5      13.1704  10.1486   6.2689   H         1 RES1   0.0000
    44 H6      10.1085  14.5210   5.6553   H         1 RES1   0.0000
    45 H7      10.8550  16.7154   5.7245   H         1 RES1   0.0000
    46 H8      12.7050  17.2763   7.0467   H         1 RES1   0.0000
    47 H9      13.8355  15.6198   8.1978   H         1 RES1   0.0000
    48 H10     13.1187  13.4107   8.0716   H         1 RES1   0.0000
    49 P2       9.2420   9.7688   8.1259   P.3       1 RES1   0.0000
    50 H11      6.6564   9.7567   9.2400   H         1 RES1   0.0000
    51 H12      5.7121   9.8485  11.3660   H         1 RES1   0.0000
    52 H13      7.0845  10.0273  13.2551   H         1 RES1   0.0000
    53 H14      9.3614  10.0601  12.9907   H         1 RES1   0.0000
    54 H15     10.3136   9.8731  10.8855   H         1 RES1   0.0000
    55 H16     10.0926   8.1150   5.9544   H         1 RES1   0.0000
    56 H17      9.9184   5.9157   5.3287   H         1 RES1   0.0000
    57 H18      8.6643   4.4249   6.6181   H         1 RES1   0.0000
    58 H19      7.6142   5.1760   8.5331   H         1 RES1   0.0000
    59 H20      7.8433   7.3884   9.2020   H         1 RES1   0.0000
    60 H21     11.3240   9.3909   9.1605   H         1 RES1   0.0000
    61 H22     11.4564   9.2499   7.5791   H         1 RES1   0.0000
    62 H23     12.6059  11.1835   8.1235   H         1 RES1   0.0000
    63 H24     11.3811  11.7165   8.9894   H         1 RES1   0.0000
    64 H25      8.9783  13.8109   8.2030   H         1 RES1   0.0000
    65 H26      8.7624  12.6103   9.2504   H         1 RES1   0.0000
    66 O1       5.6000  13.1853   5.5634   O.3       1 RES1   0.0000
    67 H27      7.9168   9.4795   5.3235   H         1 RES1   0.0000
    68 H28      9.2722  10.0601   4.6771   H         1 RES1   0.0000
    69 H29      8.2824  12.0839   4.2709   H         1 RES1   0.0000
    70 H30      4.2413  10.5980   6.0287   H         1 RES1   0.0000
    71 H31      5.2272   9.5271   5.3995   H         1 RES1   0.0000
    72 H32      5.6080  10.2667   6.7425   H         1 RES1   0.0000
    73 H33      5.6827  12.4693   2.6963   H         1 RES1   0.0000
    74 H34      4.3531  11.7739   3.1924   H         1 RES1   0.0000
    75 H35      5.5829  10.9080   2.7585   H         1 RES1   0.0000
    76 H36      6.6522  16.0397   5.8818   H         1 RES1   0.0000
    77 H37      7.8852  15.1344   5.6329   H         1 RES1   0.0000
    78 H38      7.6674  15.8199   7.0432   H         1 RES1   0.0000
    79 H39      4.3032  15.1606   7.3544   H         1 RES1   0.0000
    80 H40      5.1790  15.0475   8.6507   H         1 RES1   0.0000
    81 H41      4.3030  13.8191   8.1961   H         1 RES1   0.0000
    82 H42      6.6918  12.1298   8.4156   H         1 RES1   0.0000
@<TRIPOS>BOND
     1     1     4    1
     2     2     5    1
     3     3     4    2
     4     4    37   un
     5     5     6    2
     6     6    37   un
     7     7     1    1
     8     8     1    1
     9     9     2    1
    10    10     2    1
    11    11    12   ar
    12    12    13   ar
    13    13    14   ar
    14    14    15   ar
    15    15    16   ar
    16    16    11   ar
    17    17    18   ar
    18    18    19   ar
    19    19    20   ar
    20    20    21   ar
    21    21    22   ar
    22    22    17   ar
    23    23    24   ar
    24    24    25   ar
    25    25    26   ar
    26    26    27   ar
    27    27    28   ar
    28    28    23   ar
    29    29    30    1
    30    30    38    1
    31    31    32   ar
    32    32    33   ar
    33    33    34   ar
    34    34    35   ar
    35    35    36   ar
    36    36    31   ar
    37    37     3   un
    38    38    11    1
    39    39    36    1
    40    40    35    1
    41    41    34    1
    42    42    33    1
    43    43    32    1
    44    44    12    1
    45    45    13    1
    46    46    14    1
    47    47    15    1
    48    48    16    1
    49    49    17    1
    50    50    18    1
    51    51    19    1
    52    52    20    1
    53    53    21    1
    54    54    22    1
    55    55    28    1
    56    56    27    1
    57    57    26    1
    58    58    25    1
    59    59    24    1
    60    60    29    1
    61    61    29    1
    62    62    30    1
    63    63    30    1
    64    64     6    1
    65    65     6    1
    66    66     1    1
    67    67     3    1
    68    68     3    1
    69    69     4    1
    70    70     7    1
    71    71     7    1
    72    72     7    1
    73    73     8    1
    74    74     8    1
    75    75     8    1
    76    76    10    1
    77    77    10    1
    78    78    10    1
    79    79     9    1
    80    80     9    1
    81    81     9    1
    82    82     5    1
    83     2    66    1
    84     5    37   un
    85    23    49    1
    86    29    49    1
    87    31    38    1
    88    37    38    1
    89    37    49    1
@<TRIPOS>SUBSTRUCTURE
     1 RES1        1 GROUP             0 ****  ****    0  
@<TRIPOS>CRYSIN
   11.8727   16.4005   17.2880   90.0000   91.2260   90.0000   231     1
