@<TRIPOS>MOLECULE
FAYWEI
   107   113     3     0     0
SMALL
USER_CHARGES
****
Generated from the CSD

@<TRIPOS>ATOM
     1 Fe1      8.4675  10.0578  15.2182   Fe        1 RES1   0.0000
     2 N1       9.6773  11.2551  14.2027   N.ar      1 RES1   0.0000
     3 N2       9.3451   8.6972  14.1934   N.am      1 RES1   0.0000
     4 N3       7.5470   8.8256  16.4022   N.am      1 RES1  -1.0000
     5 N4       7.3651  11.4031  16.2048   N.ar      1 RES1   0.0000
     6 N5      10.6794  10.1736  17.4156   N.1       1 RES1   0.0000
     7 N6       6.2772  10.4225  13.0280   N.1       1 RES1   0.0000
     8 O1      10.2489   6.6015  14.1263   O.2       1 RES1   0.0000
     9 O2       6.5940   6.8294  16.9835   O.2       1 RES1   0.0000
    10 C1       9.9437  12.5373  14.3986   C.ar      1 RES1   0.0000
    11 H1       9.5125  12.9890  15.1137   H         1 RES1   0.0000
    12 C2      10.8428  13.2588  13.5853   C.ar      1 RES1   0.0000
    13 H2      10.9995  14.1815  13.7510   H         1 RES1   0.0000
    14 C3      11.4874  12.6315  12.5620   C.ar      1 RES1   0.0000
    15 H3      12.0654  13.1175  11.9871   H         1 RES1   0.0000
    16 C4      11.2840  11.2543  12.3707   C.ar      1 RES1   0.0000
    17 C5      10.3816  10.5839  13.2234   C.ar      1 RES1   0.0000
    18 C6      11.9420  10.4857  11.3774   C.ar      1 RES1   0.0000
    19 H4      12.5410  10.9050  10.7698   H         1 RES1   0.0000
    20 C7      11.7119   9.1418  11.2953   C.ar      1 RES1   0.0000
    21 H5      12.1265   8.6447  10.6011   H         1 RES1   0.0000
    22 C8      10.8817   8.4757  12.2075   C.ar      1 RES1   0.0000
    23 H6      10.7750   7.5346  12.1460   H         1 RES1   0.0000
    24 C9      10.2115   9.1807  13.2024   C.ar      1 RES1   0.0000
    25 C10      9.3469   7.3666  14.4779   C.2       1 RES1   0.0000
    26 C11      8.1153   6.7416  15.1649   C.3       1 RES1   0.0000
    27 C12      7.3708   7.4899  16.2787   C.2       1 RES1   0.0000
    28 C13      7.0285   9.4873  17.5322   C.ar      1 RES1   0.0000
    29 C14      6.6595   8.9424  18.7527   C.ar      1 RES1   0.0000
    30 H7       6.7695   8.0120  18.9072   H         1 RES1   0.0000
    31 C15      6.1205   9.7630  19.7692   C.ar      1 RES1   0.0000
    32 H8       5.9138   9.3770  20.6129   H         1 RES1   0.0000
    33 C16      5.8893  11.0960  19.5747   C.ar      1 RES1   0.0000
    34 H9       5.4870  11.6182  20.2582   H         1 RES1   0.0000
    35 C17      6.2538  11.6873  18.3470   C.ar      1 RES1   0.0000
    36 C18      6.8985  10.8801  17.3766   C.ar      1 RES1   0.0000
    37 C19      5.9916  13.0327  17.9930   C.ar      1 RES1   0.0000
    38 H10      5.5692  13.6140  18.6145   H         1 RES1   0.0000
    39 C20      6.3394  13.4900  16.7730   C.ar      1 RES1   0.0000
    40 H11      6.1049  14.3713  16.5113   H         1 RES1   0.0000
    41 C21      7.0541  12.6572  15.8862   C.ar      1 RES1   0.0000
    42 H12      7.3197  13.0005  15.0400   H         1 RES1   0.0000
    43 C22      9.8537  10.1550  16.6121   C.1       1 RES1   0.0000
    44 C23      7.0963  10.2419  13.8088   C.1       1 RES1   0.0000
    45 C24      7.0063   6.5898  14.0565   C.3       1 RES1   0.0000
    46 H13      6.2049   6.1906  14.4798   H         1 RES1   0.0000
    47 H14      6.7540   7.4982  13.7510   H         1 RES1   0.0000
    48 C25      7.3441   5.7704  12.8402   C.ar      1 RES1   0.0000
    49 C26      6.9718   4.4245  12.7659   C.ar      1 RES1   0.0000
    50 H15      6.5584   4.0185  13.5184   H         1 RES1   0.0000
    51 C27      7.1885   3.6688  11.6265   C.ar      1 RES1   0.0000
    52 H16      6.9296   2.7550  11.6033   H         1 RES1   0.0000
    53 C28      7.7742   4.2428  10.5402   C.ar      1 RES1   0.0000
    54 H17      7.9187   3.7290   9.7540   H         1 RES1   0.0000
    55 C29      8.1588   5.5580  10.5742   C.ar      1 RES1   0.0000
    56 H18      8.5745   5.9491   9.8141   H         1 RES1   0.0000
    57 C30      7.9410   6.3333  11.7240   C.ar      1 RES1   0.0000
    58 H19      8.2044   7.2470  11.7370   H         1 RES1   0.0000
    59 C31      8.5022   5.3450  15.6931   C.3       1 RES1   0.0000
    60 H20      7.6864   4.9157  16.0558   H         1 RES1   0.0000
    61 H21      8.8056   4.7988  14.9257   H         1 RES1   0.0000
    62 C32      9.5725   5.2936  16.7598   C.ar      1 RES1   0.0000
    63 C33     10.0015   6.3969  17.4950   C.ar      1 RES1   0.0000
    64 H22      9.6403   7.2547  17.3060   H         1 RES1   0.0000
    65 C34     10.9528   6.2627  18.5044   C.ar      1 RES1   0.0000
    66 H23     11.2307   7.0265  18.9944   H         1 RES1   0.0000
    67 C35     11.4952   5.0273  18.7967   C.ar      1 RES1   0.0000
    68 H24     12.1298   4.9387  19.4984   H         1 RES1   0.0000
    69 C36     11.1107   3.9186  18.0612   C.ar      1 RES1   0.0000
    70 H25     11.4930   3.0675  18.2403   H         1 RES1   0.0000
    71 C37     10.1604   4.0660  17.0579   C.ar      1 RES1   0.0000
    72 H26      9.9015   3.3014  16.5578   H         1 RES1   0.0000
    73 N7       8.1938  18.3622  15.6479   N.4       2 RES2   1.0000
    74 C38      7.5231  18.4571  16.9996   C.3       2 RES2   0.0000
    75 H27      7.1496  17.5673  17.2227   H         2 RES2   0.0000
    76 H28      6.7629  19.0876  16.9242   H         2 RES2   0.0000
    77 C39      8.4044  18.9093  18.1570   C.3       2 RES2   0.0000
    78 H29      9.1068  18.2441  18.3121   H         2 RES2   0.0000
    79 H30      7.8587  19.0033  18.9653   H         2 RES2   0.0000
    80 H31      8.8145  19.7721  17.9380   H         2 RES2   0.0000
    81 C40      8.7667  19.6992  15.2223   C.3       2 RES2   0.0000
    82 H32      9.4658  19.9638  15.8697   H         2 RES2   0.0000
    83 H33      9.2035  19.5880  14.3403   H         2 RES2   0.0000
    84 C41      7.7542  20.8221  15.1195   C.3       2 RES2   0.0000
    85 H34      7.0185  20.5466  14.5341   H         2 RES2   0.0000
    86 H35      8.1866  21.6183  14.7473   H         2 RES2   0.0000
    87 H36      7.4019  21.0278  16.0112   H         2 RES2   0.0000
    88 C42      9.3624  17.3949  15.6778   C.3       2 RES2   0.0000
    89 H37      9.8392  17.4504  14.8113   H         2 RES2   0.0000
    90 H38      9.9915  17.6843  16.3834   H         2 RES2   0.0000
    91 C43      8.9901  15.9480  15.9288   C.3       2 RES2   0.0000
    92 H39      8.4689  15.8840  16.7555   H         2 RES2   0.0000
    93 H40      9.8059  15.4105  16.0151   H         2 RES2   0.0000
    94 H41      8.4555  15.6137  15.1777   H         2 RES2   0.0000
    95 C44      7.1274  17.9011  14.6832   C.3       2 RES2   0.0000
    96 H42      6.7940  17.0190  14.9819   H         2 RES2   0.0000
    97 H43      6.3694  18.5355  14.7260   H         2 RES2   0.0000
    98 C45      7.5709  17.7839  13.2606   C.3       2 RES2   0.0000
    99 H44      7.8409  18.6659  12.9291   H         2 RES2   0.0000
   100 H45      6.8318  17.4427  12.7159   H         2 RES2   0.0000
   101 H46      8.3299  17.1666  13.2063   H         2 RES2   0.0000
   102 N8       7.5586  14.3924  12.8070   N.1       3 RES3   0.0000
   103 C46      7.5442  13.6428  11.9231   C.1       3 RES3   0.0000
   104 C47      7.5086  12.7110  10.8376   C.3       3 RES3   0.0000
   105 H47      8.4200  12.5538  10.5119   H         3 RES3   0.0000
   106 H48      6.9607  13.0753  10.1107   H         3 RES3   0.0000
   107 H49      7.1219  11.8656  11.1458   H         3 RES3   0.0000
@<TRIPOS>BOND
     1     1     2    1
     2     2    10   ar
     3     3     1    1
     4     4     1    1
     5     5     1    1
     6     6    43    3
     7     7    44    3
     8     8    25    2
     9     9    27    2
    10    10    11    1
    11    12    10   ar
    12    13    12    1
    13    14    12   ar
    14    15    14    1
    15    16    14   ar
    16    17     2   ar
    17    18    16   ar
    18    19    18    1
    19    20    18   ar
    20    21    20    1
    21    22    20   ar
    22    23    22    1
    23    24     3    1
    24    25     3   am
    25    26    25    1
    26    27     4   am
    27    28     4    1
    28    29    28   ar
    29    30    29    1
    30    31    29   ar
    31    32    31    1
    32    33    31   ar
    33    34    33    1
    34    35    33   ar
    35    36     5   ar
    36    37    35   ar
    37    38    37    1
    38    39    37   ar
    39    40    39    1
    40    41     5   ar
    41    42    41    1
    42    43     1    1
    43    44     1    1
    44    45    26    1
    45    46    45    1
    46    47    45    1
    47    48    45    1
    48    49    48   ar
    49    50    49    1
    50    51    49   ar
    51    52    51    1
    52    53    51   ar
    53    54    53    1
    54    55    53   ar
    55    56    55    1
    56    57    48   ar
    57    58    57    1
    58    59    26    1
    59    60    59    1
    60    61    59    1
    61    62    59    1
    62    63    62   ar
    63    64    63    1
    64    65    63   ar
    65    66    65    1
    66    67    65   ar
    67    68    67    1
    68    69    67   ar
    69    70    69    1
    70    71    62   ar
    71    72    71    1
    72    16    17   ar
    73    17    24   ar
    74    22    24   ar
    75    26    27    1
    76    28    36   ar
    77    35    36   ar
    78    39    41   ar
    79    55    57   ar
    80    69    71   ar
    81    73    74    1
    82    74    75    1
    83    76    74    1
    84    77    74    1
    85    78    77    1
    86    79    77    1
    87    80    77    1
    88    81    73    1
    89    82    81    1
    90    83    81    1
    91    84    81    1
    92    85    84    1
    93    86    84    1
    94    87    84    1
    95    88    73    1
    96    89    88    1
    97    90    88    1
    98    91    88    1
    99    92    91    1
   100    93    91    1
   101    94    91    1
   102    95    73    1
   103    96    95    1
   104    97    95    1
   105    98    95    1
   106    99    98    1
   107   100    98    1
   108   101    98    1
   109   102   103    3
   110   103   104    1
   111   104   105    1
   112   106   104    1
   113   107   104    1
@<TRIPOS>SUBSTRUCTURE
     1 RES1        1 GROUP             0 ****  ****    0  
     2 RES2       73 GROUP             0 ****  ****    0  
     3 RES3      102 GROUP             0 ****  ****    0  
@<TRIPOS>CRYSIN
   11.1140   19.1720   19.3840   90.0000   90.0000   90.0000    29     5
