@<TRIPOS>MOLECULE
FECHUQ
    57    61     2     0     0
SMALL
USER_CHARGES
****
Generated from the CSD

@<TRIPOS>ATOM
     1 Fe1     -0.4269   3.6641   5.3901   Fe        1 RES1   0.0000
     2 P1      -0.8261   1.8904   4.0931   P.3       1 RES1   0.0000
     3 P2      -0.1219   5.5893   6.4848   P.3       1 RES1   0.0000
     4 O1      -2.1332   2.6564   7.5156   O.2       1 RES1   0.0000
     5 O2      -1.9846   5.2063   3.5282   O.2       1 RES1   0.0000
     6 O3      -3.1100   4.2641   5.1291   O.3       1 RES1   0.0000
     7 N1       1.7389   2.2386   6.9350   N.1       1 RES1   0.0000
     8 N2       0.5238   4.9646   2.9997   N.2       1 RES1   1.0000
     9 C1       0.5244   0.6411   3.9718   C.3       1 RES1   0.0000
    10 C2      -1.2439   2.1812   2.3382   C.3       1 RES1   0.0000
    11 C3      -2.2467   0.8561   4.6255   C.3       1 RES1   0.0000
    12 C4       0.2424   7.0659   5.5323   C.3       1 RES1   0.0000
    13 C5       1.3932   5.6548   7.6109   C.3       1 RES1   0.0000
    14 C6      -1.3287   6.0317   7.6931   C.3       1 RES1   0.0000
    15 C7       0.9578   2.8161   6.3269   C.1       1 RES1   0.0000
    16 C8       2.7483   1.5054   7.6826   C.3       1 RES1   0.0000
    17 C9       3.7027   2.4987   8.3859   C.3       1 RES1   0.0000
    18 C10      4.5615   2.9267   7.5208   C.3       1 RES1   0.0000
    19 C11      5.5430   1.6712   6.9428   C.3       1 RES1   0.0000
    20 C12      4.3044   1.0773   6.0086   C.3       1 RES1   0.0000
    21 C13      3.4976   0.5346   6.7262   C.3       1 RES1   0.0000
    22 C14     -1.4887   3.0844   6.6492   C.1       1 RES1   0.0000
    23 C15      0.8904   4.2498   4.0370   C.2       1 RES1   0.0000
    24 C16      1.3983   5.3455   1.7797   C.3       1 RES1   0.0000
    25 C17      0.5680   5.2698   0.5689   C.3       1 RES1   0.0000
    26 C18      1.4403   5.7285  -0.6798   C.3       1 RES1   0.0000
    27 C19      1.8373   7.1069  -0.3875   C.3       1 RES1   0.0000
    28 C20      2.7310   7.1417   0.8298   C.3       1 RES1   0.0000
    29 C21      1.8186   6.7055   2.0616   C.3       1 RES1   0.0000
    30 C22      2.3715   3.9774   4.0827   C.3       1 RES1   0.0000
    31 C23     -1.9170   4.4710   4.5263   C.2       1 RES1   0.0000
    32 C24     -4.3358   4.8704   4.5185   C.3       1 RES1   0.0000
    33 B1       2.1953   0.2458  13.2671   B         2 RES2  -1.0000
    34 C25      3.3678  -0.2151  12.1450   C.ar      2 RES2   0.0000
    35 C26      2.9837  -0.9626  11.0320   C.ar      2 RES2   0.0000
    36 C27      3.9370  -1.3620  10.0952   C.ar      2 RES2   0.0000
    37 C28      5.2759  -1.0118  10.2726   C.ar      2 RES2   0.0000
    38 C29      5.6615  -0.2642  11.3869   C.ar      2 RES2   0.0000
    39 C30      4.7067   0.1331  12.3225   C.ar      2 RES2   0.0000
    40 C31      0.9631   1.0343  12.4216   C.ar      2 RES2   0.0000
    41 C32     -0.3699   0.9524  12.8287   C.ar      2 RES2   0.0000
    42 C33     -1.3596   1.6262  12.1124   C.ar      2 RES2   0.0000
    43 C34     -1.0183   2.3819  10.9903   C.ar      2 RES2   0.0000
    44 C35      0.3145   2.4639  10.5845   C.ar      2 RES2   0.0000
    45 C36      1.3045   1.7900  11.2995   C.ar      2 RES2   0.0000
    46 C37      1.5635  -1.0753  14.0800   C.ar      2 RES2   0.0000
    47 C38      1.4325  -2.3144  13.4537   C.ar      2 RES2   0.0000
    48 C39      0.8095  -3.3712  14.1205   C.ar      2 RES2   0.0000
    49 C40      0.3193  -3.1868  15.4135   C.ar      2 RES2   0.0000
    50 C41      0.4503  -1.9477  16.0398   C.ar      2 RES2   0.0000
    51 C42      1.0733  -0.8909  15.3731   C.ar      2 RES2   0.0000
    52 C43      2.8455   1.3005  14.3606   C.ar      2 RES2   0.0000
    53 C44      2.5521   2.6646  14.3201   C.ar      2 RES2   0.0000
    54 C45      3.1262   3.5289  15.2517   C.ar      2 RES2   0.0000
    55 C46      3.9917   3.0312  16.2251   C.ar      2 RES2   0.0000
    56 C47      4.2849   1.6692  16.2669   C.ar      2 RES2   0.0000
    57 C48      3.7128   0.8029  15.3339   C.ar      2 RES2   0.0000
@<TRIPOS>BOND
     1     1     2    1
     2     2     9    1
     3     3     1    1
     4     4    22    3
     5     5    31    2
     6     6    31    1
     7     7    15    3
     8     8    23    2
     9    10     2    1
    10    11     2    1
    11    12     3    1
    12    13     3    1
    13    14     3    1
    14    15     1    1
    15    16     7    1
    16    17    16    1
    17    18    17    1
    18    19    18    1
    19    20    19    1
    20    21    16    1
    21    22     1    1
    22    23     1    1
    23    24     8    1
    24    25    24    1
    25    26    25    1
    26    27    26    1
    27    28    27    1
    28    29    24    1
    29    30    23    1
    30    31     1    1
    31    32     6    1
    32    20    21    1
    33    28    29    1
    34    33    34    1
    35    34    35   ar
    36    35    36   ar
    37    36    37   ar
    38    37    38   ar
    39    38    39   ar
    40    39    34   ar
    41    40    33    1
    42    41    40   ar
    43    42    41   ar
    44    43    42   ar
    45    44    43   ar
    46    45    40   ar
    47    46    33    1
    48    47    46   ar
    49    48    47   ar
    50    49    48   ar
    51    50    49   ar
    52    51    46   ar
    53    52    33    1
    54    53    52   ar
    55    54    53   ar
    56    55    54   ar
    57    56    55   ar
    58    57    52   ar
    59    44    45   ar
    60    50    51   ar
    61    56    57   ar
@<TRIPOS>SUBSTRUCTURE
     1 RES1        1 GROUP             0 ****  ****    0  
     2 RES2       33 GROUP             0 ****  ****    0  
@<TRIPOS>CRYSIN
   17.8740   20.4810   13.2360   90.0000   99.6700   90.0000   231     1
