@<TRIPOS>MOLECULE
FECOSP10
    75    82     1     0     0
SMALL
NO_CHARGES
****
Generated from the CSD

@<TRIPOS>ATOM
     1 C1       1.1145   5.1360   2.4687   C.1       1 RES1   0.0000
     2 C2       3.3023   7.9320   2.0148   C.ar      1 RES1   0.0000
     3 C3       3.1592   7.6513   3.3887   C.ar      1 RES1   0.0000
     4 C4       2.9935   8.7298   4.2578   C.ar      1 RES1   0.0000
     5 C5       3.0504  10.0318   3.7941   C.ar      1 RES1   0.0000
     6 C6       3.3014  10.2922   2.4493   C.ar      1 RES1   0.0000
     7 C7       3.3916   9.2432   1.5560   C.ar      1 RES1   0.0000
     8 C8       3.2877   6.2403   3.9276   C.2       1 RES1   0.0000
     9 C9       4.4957   5.5072   3.5805   C.2       1 RES1   0.0000
    10 C10      2.0081   6.5968  -0.2694   C.ar      1 RES1   0.0000
    11 C11      0.8691   7.3595  -0.0243   C.ar      1 RES1   0.0000
    12 C12     -0.1751   7.3318  -0.9370   C.ar      1 RES1   0.0000
    13 C13     -0.0836   6.5561  -2.0828   C.ar      1 RES1   0.0000
    14 C14      1.0437   5.8193  -2.3352   C.ar      1 RES1   0.0000
    15 C15      2.0927   5.8359  -1.4225   C.ar      1 RES1   0.0000
    16 C16      4.8498   6.4601   0.0680   C.ar      1 RES1   0.0000
    17 C17      5.0528   7.4722  -0.8666   C.ar      1 RES1   0.0000
    18 C18      6.2929   7.6088  -1.4832   C.ar      1 RES1   0.0000
    19 C19      7.3237   6.7334  -1.1895   C.ar      1 RES1   0.0000
    20 C20      7.1071   5.6900  -0.3059   C.ar      1 RES1   0.0000
    21 C21      5.8779   5.5459   0.3350   C.ar      1 RES1   0.0000
    22 C22      3.2060   3.6290   1.2283   C.1       1 RES1   0.0000
    23 C23      2.8113   3.5403   5.7337   C.ar      1 RES1   0.0000
    24 C24      1.9117   4.3769   6.4328   C.ar      1 RES1   0.0000
    25 C25      2.2206   4.7297   7.7655   C.ar      1 RES1   0.0000
    26 C26      3.3765   4.2994   8.3796   C.ar      1 RES1   0.0000
    27 C27      4.2679   3.5052   7.6829   C.ar      1 RES1   0.0000
    28 C28      3.9888   3.1266   6.3745   C.ar      1 RES1   0.0000
    29 C29      0.6674   4.8959   5.7846   C.2       1 RES1   0.0000
    30 C30      0.0657   6.0316   6.1609   C.2       1 RES1   0.0000
    31 C31      1.0482   2.1589   3.8694   C.ar      1 RES1   0.0000
    32 C32      0.4871   1.8985   2.6289   C.ar      1 RES1   0.0000
    33 C33     -0.6385   1.0804   2.5100   C.ar      1 RES1   0.0000
    34 C34     -1.2013   0.5263   3.6072   C.ar      1 RES1   0.0000
    35 C35     -0.6844   0.7904   4.8719   C.ar      1 RES1   0.0000
    36 C36      0.4491   1.6104   4.9909   C.ar      1 RES1   0.0000
    37 C37      3.8330   1.7729   3.7334   C.ar      1 RES1   0.0000
    38 C38      5.0968   2.0647   3.2431   C.ar      1 RES1   0.0000
    39 C39      6.0552   1.0693   3.1314   C.ar      1 RES1   0.0000
    40 C40      5.7481  -0.2345   3.4519   C.ar      1 RES1   0.0000
    41 C41      4.5003  -0.5411   3.9058   C.ar      1 RES1   0.0000
    42 C42      3.5360   0.4543   4.0611   C.ar      1 RES1   0.0000
    43 Fe1      2.8437   4.7978   2.4797   Fe        1 RES1   0.0000
    44 H1       2.8398   8.5322   5.3161   H         1 RES1   0.0000
    45 H2       2.9523  10.8592   4.4908   H         1 RES1   0.0000
    46 H3       3.3586  11.3209   2.0876   H         1 RES1   0.0000
    47 H4       3.5421   9.4371   0.5098   H         1 RES1   0.0000
    48 H5       0.7956   7.9597   0.8739   H         1 RES1   0.0000
    49 H6      -1.0645   7.9228  -0.7525   H         1 RES1   0.0000
    50 H7      -0.8970   6.5377  -2.7916   H         1 RES1   0.0000
    51 H8       1.1023   5.2264  -3.2285   H         1 RES1   0.0000
    52 H9       2.9816   5.2449  -1.6264   H         1 RES1   0.0000
    53 H10      4.2493   8.1629  -1.0924   H         1 RES1   0.0000
    54 H11      6.4484   8.4214  -2.1847   H         1 RES1   0.0000
    55 H12      8.2872   6.8332  -1.6750   H         1 RES1   0.0000
    56 H13      7.9145   4.9864  -0.0971   H         1 RES1   0.0000
    57 H14      5.7088   4.7463   1.0438   H         1 RES1   0.0000
    58 H15      1.5182   5.3557   8.3019   H         1 RES1   0.0000
    59 H16      3.5931   4.5985   9.3943   H         1 RES1   0.0000
    60 H17      5.1812   3.1580   8.1563   H         1 RES1   0.0000
    61 H18      4.6786   2.4932   5.8259   H         1 RES1   0.0000
    62 H19      0.9447   2.3270   1.7478   H         1 RES1   0.0000
    63 H20     -1.0600   0.8680   1.5293   H         1 RES1   0.0000
    64 H21     -2.0692  -0.1108   3.4955   H         1 RES1   0.0000
    65 H22     -1.1467   0.3509   5.7531   H         1 RES1   0.0000
    66 H23      0.8737   1.8283   5.9716   H         1 RES1   0.0000
    67 H24      5.3338   3.0842   2.9858   H         1 RES1   0.0000
    68 H25      7.0510   1.3112   2.7673   H         1 RES1   0.0000
    69 H26      6.4985  -1.0157   3.3499   H         1 RES1   0.0000
    70 H27      4.2570  -1.5698   4.1752   H         1 RES1   0.0000
    71 H28      2.5364   0.2031   4.4180   H         1 RES1   0.0000
    72 O1      -0.0193   5.3816   2.4566   O.2       1 RES1   0.0000
    73 O2       3.3965   2.8884   0.3398   O.2       1 RES1   0.0000
    74 P1       3.2878   6.3944   1.0254   P.3       1 RES1   0.0000
    75 P2       2.6015   3.1222   3.9451   P.3       1 RES1   0.0000
@<TRIPOS>BOND
     1     1    43    1
     2     2     3   ar
     3     3     4   ar
     4     4     5   ar
     5     5     6   ar
     6     6     7   ar
     7     7     2   ar
     8     8     3    1
     9     9     8    2
    10    10    11   ar
    11    11    12   ar
    12    12    13   ar
    13    13    14   ar
    14    14    15   ar
    15    15    10   ar
    16    16    17   ar
    17    17    18   ar
    18    18    19   ar
    19    19    20   ar
    20    20    21   ar
    21    21    16   ar
    22    22    43    1
    23    23    24   ar
    24    24    25   ar
    25    25    26   ar
    26    26    27   ar
    27    27    28   ar
    28    28    23   ar
    29    29    24    1
    30    30    29    2
    31    31    32   ar
    32    32    33   ar
    33    33    34   ar
    34    34    35   ar
    35    35    36   ar
    36    36    31   ar
    37    37    38   ar
    38    38    39   ar
    39    39    40   ar
    40    40    41   ar
    41    41    42   ar
    42    42    37   ar
    43    43     8   un
    44    44     4    1
    45    45     5    1
    46    46     6    1
    47    47     7    1
    48    48    11    1
    49    49    12    1
    50    50    13    1
    51    51    14    1
    52    52    15    1
    53    53    17    1
    54    54    18    1
    55    55    19    1
    56    56    20    1
    57    57    21    1
    58    58    25    1
    59    59    26    1
    60    60    27    1
    61    61    28    1
    62    62    32    1
    63    63    33    1
    64    64    34    1
    65    65    35    1
    66    66    36    1
    67    67    38    1
    68    68    39    1
    69    69    40    1
    70    70    41    1
    71    71    42    1
    72    72     1    3
    73    73    22    3
    74    74     2    1
    75    75    23    1
    76     9    43   un
    77    10    74    1
    78    16    74    1
    79    31    75    1
    80    37    75    1
    81    43    74    1
    82    43    75    1
@<TRIPOS>SUBSTRUCTURE
     1 RES1        1 GROUP             0 ****  ****    0  
