@<TRIPOS>MOLECULE
FEDFED
   116   121     3     0     0
SMALL
USER_CHARGES
****
Generated from the CSD

@<TRIPOS>ATOM
     1 Fe1      4.3598  11.2309   6.7132   Fe        1 RES1   2.0000
     2 S1       1.3040   9.8528   6.5050   S.3       1 RES1   0.0000
     3 S2       2.3391  11.2448   7.6620   S.3       1 RES1   0.0000
     4 S3       1.5557  13.0572   6.9949   S.3       1 RES1   0.0000
     5 N1       4.5750   9.7818   4.2919   N.ar      1 RES1   0.0000
     6 N2       3.6775  10.0689   5.2638   N.ar      1 RES1   0.0000
     7 C1       2.4510   9.5424   5.2129   C.ar      1 RES1   0.0000
     8 C2       2.0204   8.6943   4.1642   C.ar      1 RES1   0.0000
     9 C3       2.9390   8.4341   3.1821   C.ar      1 RES1   0.0000
    10 H1       2.7059   7.8841   2.4423   H         1 RES1   0.0000
    11 C4       4.2346   8.9878   3.2762   C.ar      1 RES1   0.0000
    12 C5       0.6381   8.1165   4.1630   C.3       1 RES1   0.0000
    13 H2       0.5054   7.5898   3.3472   H         1 RES1   0.0000
    14 H3      -0.0188   8.8432   4.1931   H         1 RES1   0.0000
    15 H4       0.5242   7.5404   4.9476   H         1 RES1   0.0000
    16 C6       5.3042   8.7502   2.2166   C.3       1 RES1   0.0000
    17 C7       5.1307   7.3865   1.5451   C.3       1 RES1   0.0000
    18 H5       5.1584   6.6824   2.2248   H         1 RES1   0.0000
    19 H6       5.8537   7.2461   0.8996   H         1 RES1   0.0000
    20 H7       4.2681   7.3585   1.0808   H         1 RES1   0.0000
    21 C8       5.1500   9.8490   1.1520   C.3       1 RES1   0.0000
    22 H8       4.2501   9.8068   0.7666   H         1 RES1   0.0000
    23 H9       5.8149   9.7147   0.4458   H         1 RES1   0.0000
    24 H10      5.2853  10.7255   1.5669   H         1 RES1   0.0000
    25 C9       6.7016   8.8299   2.8128   C.3       1 RES1   0.0000
    26 H11      6.8511   9.7282   3.1753   H         1 RES1   0.0000
    27 H12      7.3660   8.6433   2.1173   H         1 RES1   0.0000
    28 H13      6.7885   8.1693   3.5325   H         1 RES1   0.0000
    29 N3       4.8299  13.2728   4.8053   N.ar      1 RES1   0.0000
    30 N4       3.8894  12.8557   5.6792   N.ar      1 RES1   0.0000
    31 C10      2.7431  13.5374   5.7999   C.ar      1 RES1   0.0000
    32 C11      2.4563  14.6958   5.0357   C.ar      1 RES1   0.0000
    33 C12      3.4319  15.0988   4.1645   C.ar      1 RES1   0.0000
    34 H14      3.3012  15.8714   3.6278   H         1 RES1   0.0000
    35 C13      4.6307  14.3656   4.0636   C.ar      1 RES1   0.0000
    36 C14      1.1572  15.4283   5.2034   C.3       1 RES1   0.0000
    37 H15      1.1056  16.1545   4.5475   H         1 RES1   0.0000
    38 H16      1.1066  15.7996   6.1090   H         1 RES1   0.0000
    39 H17      0.4122  14.8068   5.0631   H         1 RES1   0.0000
    40 C15      5.7771  14.7403   3.1322   C.3       1 RES1   0.0000
    41 C16      5.4214  15.9449   2.2499   C.3       1 RES1   0.0000
    42 H18      4.6146  15.7434   1.7320   H         1 RES1   0.0000
    43 H19      6.1643  16.1320   1.6380   H         1 RES1   0.0000
    44 H20      5.2588  16.7272   2.8155   H         1 RES1   0.0000
    45 C17      7.0019  15.1122   3.9887   C.3       1 RES1   0.0000
    46 H21      6.7825  15.8804   4.5569   H         1 RES1   0.0000
    47 H22      7.7520  15.3436   3.4022   H         1 RES1   0.0000
    48 H23      7.2511  14.3485   4.5515   H         1 RES1   0.0000
    49 C18      6.1172  13.5312   2.2497   C.3       1 RES1   0.0000
    50 H24      6.3832  12.7785   2.8169   H         1 RES1   0.0000
    51 H25      6.8550  13.7623   1.6474   H         1 RES1   0.0000
    52 H26      5.3308  13.2816   1.7213   H         1 RES1   0.0000
    53 S1B      7.4157  12.6089   6.9214   S.3       1 RES1   0.0000
    54 S2B      6.3806  11.2169   5.7644   S.3       1 RES1   0.0000
    55 S3B      7.1639   9.4045   6.4315   S.3       1 RES1   0.0000
    56 N1B      4.1447  12.6799   9.1345   N.ar      1 RES1   0.0000
    57 N2B      5.0422  12.3928   8.1626   N.ar      1 RES1   0.0000
    58 C1B      6.2686  12.9193   8.2135   C.ar      1 RES1   0.0000
    59 C2B      6.6992  13.7674   9.2622   C.ar      1 RES1   0.0000
    60 C3B      5.7807  14.0276  10.2443   C.ar      1 RES1   0.0000
    61 H1B      6.0138  14.5776  10.9841   H         1 RES1   0.0000
    62 C4B      4.4851  13.4739  10.1502   C.ar      1 RES1   0.0000
    63 C5B      8.0816  14.3452   9.2634   C.3       1 RES1   0.0000
    64 H2B      8.2143  14.8719  10.0792   H         1 RES1   0.0000
    65 H3B      8.7385  13.6185   9.2333   H         1 RES1   0.0000
    66 H4B      8.1955  14.9213   8.4788   H         1 RES1   0.0000
    67 C6B      3.4155  13.7115  11.2098   C.3       1 RES1   0.0000
    68 C7B      3.5890  15.0752  11.8813   C.3       1 RES1   0.0000
    69 H5B      3.5613  15.7793  11.2016   H         1 RES1   0.0000
    70 H6B      2.8659  15.2156  12.5268   H         1 RES1   0.0000
    71 H7B      4.4515  15.1032  12.3456   H         1 RES1   0.0000
    72 C8B      3.5697  12.6127  12.2744   C.3       1 RES1   0.0000
    73 H8B      4.4696  12.6549  12.6597   H         1 RES1   0.0000
    74 H9B      2.9048  12.7470  12.9806   H         1 RES1   0.0000
    75 H10B     3.4344  11.7362  11.8595   H         1 RES1   0.0000
    76 C9B      2.0181  13.6318  10.6136   C.3       1 RES1   0.0000
    77 H11B     1.8686  12.7335  10.2510   H         1 RES1   0.0000
    78 H12B     1.3537  13.8184  11.3090   H         1 RES1   0.0000
    79 H13B     1.9312  14.2924   9.8939   H         1 RES1   0.0000
    80 N3B      3.8898   9.1889   8.6211   N.ar      1 RES1   0.0000
    81 N4B      4.8303   9.6060   7.7472   N.ar      1 RES1   0.0000
    82 C10B     5.9766   8.9243   7.6265   C.ar      1 RES1   0.0000
    83 C11B     6.2634   7.7659   8.3907   C.ar      1 RES1   0.0000
    84 C12B     5.2878   7.3629   9.2619   C.ar      1 RES1   0.0000
    85 H14B     5.4185   6.5903   9.7986   H         1 RES1   0.0000
    86 C13B     4.0890   8.0961   9.3628   C.ar      1 RES1   0.0000
    87 C14B     7.5625   7.0334   8.2230   C.3       1 RES1   0.0000
    88 H15B     7.6141   6.3072   8.8789   H         1 RES1   0.0000
    89 H16B     7.6131   6.6621   7.3174   H         1 RES1   0.0000
    90 H17B     8.3075   7.6549   8.3633   H         1 RES1   0.0000
    91 C15B     2.9426   7.7214  10.2941   C.3       1 RES1   0.0000
    92 C16B     3.2983   6.5168  11.1765   C.3       1 RES1   0.0000
    93 H18B     4.1051   6.7183  11.6944   H         1 RES1   0.0000
    94 H19B     2.5554   6.3297  11.7884   H         1 RES1   0.0000
    95 H20B     3.4609   5.7345  10.6109   H         1 RES1   0.0000
    96 C17B     1.7178   7.3495   9.4377   C.3       1 RES1   0.0000
    97 H21B     1.9372   6.5813   8.8695   H         1 RES1   0.0000
    98 H22B     0.9677   7.1181  10.0241   H         1 RES1   0.0000
    99 H23B     1.4686   8.1132   8.8748   H         1 RES1   0.0000
   100 C18B     2.6024   8.9305  11.1767   C.3       1 RES1   0.0000
   101 H24B     2.3365   9.6832  10.6095   H         1 RES1   0.0000
   102 H25B     1.8647   8.6994  11.7790   H         1 RES1   0.0000
   103 H26B     3.3888   9.1801  11.7051   H         1 RES1   0.0000
   104 O1       4.6838  19.2373   7.2030   O.2       2 RES2   0.0000
   105 O2       2.8828  17.7903   6.4742   O.2       2 RES2   0.0000
   106 O3       4.9636  17.7531   5.3179   O.3       2 RES2  -1.0000
   107 S4       4.2885  18.0403   6.5510   S.o2      2 RES2   0.0000
   108 C19      4.9115  16.7418   7.6571   C.3       2 RES2   0.0000
   109 F1       4.7059  15.5161   7.1965   F         2 RES2   0.0000
   110 F2       6.2325  16.8234   7.8309   F         2 RES2   0.0000
   111 F3       4.4161  16.8180   8.8621   F         2 RES2   0.0000
   112 C20      5.2029  21.8251   8.8211   C.3       3 RES3   0.0000
   113 H27      4.8707  21.0983   8.2210   H         3 RES3   0.0000
   114 Cl1      4.9110  23.3838   8.0525   Cl        3 RES3   0.0000
   115 Cl2      6.9320  21.5947   9.1085   Cl        3 RES3   0.0000
   116 Cl3      4.3470  21.7339  10.3744   Cl        3 RES3   0.0000
@<TRIPOS>BOND
     1     1     3    1
     2     2     3    1
     3     3     4    1
     4     4    31    1
     5     5     6   ar
     6     6     1    1
     7     7     2    1
     8     8     7   ar
     9     9     8   ar
    10    10     9    1
    11    11     5   ar
    12    12     8    1
    13    13    12    1
    14    14    12    1
    15    15    12    1
    16    16    11    1
    17    17    16    1
    18    18    17    1
    19    19    17    1
    20    20    17    1
    21    21    16    1
    22    22    21    1
    23    23    21    1
    24    24    21    1
    25    25    16    1
    26    26    25    1
    27    27    25    1
    28    28    25    1
    29    29    30   ar
    30    30     1    1
    31    31    30   ar
    32    32    31   ar
    33    33    32   ar
    34    34    33    1
    35    35    29   ar
    36    36    32    1
    37    37    36    1
    38    38    36    1
    39    39    36    1
    40    40    35    1
    41    41    40    1
    42    42    41    1
    43    43    41    1
    44    44    41    1
    45    45    40    1
    46    46    45    1
    47    47    45    1
    48    48    45    1
    49    49    40    1
    50    50    49    1
    51    51    49    1
    52    52    49    1
    53    53    54    1
    54    54     1    1
    55    55    54    1
    56    56    57   ar
    57    57     1    1
    58    58    53    1
    59    59    58   ar
    60    60    59   ar
    61    61    60    1
    62    62    56   ar
    63    63    59    1
    64    64    63    1
    65    65    63    1
    66    66    63    1
    67    67    62    1
    68    68    67    1
    69    69    68    1
    70    70    68    1
    71    71    68    1
    72    72    67    1
    73    73    72    1
    74    74    72    1
    75    75    72    1
    76    76    67    1
    77    77    76    1
    78    78    76    1
    79    79    76    1
    80    80    81   ar
    81    81     1    1
    82    82    55    1
    83    83    82   ar
    84    84    83   ar
    85    85    84    1
    86    86    80   ar
    87    87    83    1
    88    88    87    1
    89    89    87    1
    90    90    87    1
    91    91    86    1
    92    92    91    1
    93    93    92    1
    94    94    92    1
    95    95    92    1
    96    96    91    1
    97    97    96    1
    98    98    96    1
    99    99    96    1
   100   100    91    1
   101   101   100    1
   102   102   100    1
   103   103   100    1
   104     6     7   ar
   105     9    11   ar
   106    33    35   ar
   107    57    58   ar
   108    60    62   ar
   109    81    82   ar
   110    84    86   ar
   111   104   107    2
   112   105   107    2
   113   106   107    1
   114   107   108    1
   115   108   109    1
   116   110   108    1
   117   111   108    1
   118   112   113    1
   119   114   112    1
   120   115   112    1
   121   116   112    1
@<TRIPOS>SUBSTRUCTURE
     1 RES1        1 GROUP             0 ****  ****    0  
     2 RES2      104 GROUP             0 ****  ****    0  
     3 RES3      112 GROUP             0 ****  ****    0  
@<TRIPOS>CRYSIN
    9.4419   22.4617   13.4458   90.0000   93.0790   90.0000   231     1
