@<TRIPOS>MOLECULE
FEFYUK
    51    54     5     0     0
SMALL
USER_CHARGES
****
Generated from the CSD

@<TRIPOS>ATOM
     1 Fe1      8.6468   6.5497   0.4180   Fe        1 RES1   3.0000
     2 O1       9.9560   7.7318   1.2261   O.3       1 RES1  -1.0000
     3 C1       9.8408   8.6053   2.2080   C.ar      1 RES1   0.0000
     4 C2      11.0075   8.8469   2.9672   C.ar      1 RES1   0.0000
     5 N1      10.9869   9.7967   3.9089   N.ar      1 RES1   1.0000
     6 C3       9.8869  10.5494   4.1665   C.ar      1 RES1   0.0000
     7 C4       8.7501  10.3543   3.4931   C.ar      1 RES1   0.0000
     8 C5       8.6788   9.3004   2.5219   C.ar      1 RES1   0.0000
     9 C6      12.2976   8.1146   2.7526   C.3       1 RES1   0.0000
    10 C7       7.5395  11.2315   3.8043   C.3       1 RES1   0.0000
    11 O2       7.9097  12.3764   4.5555   O.3       1 RES1  -1.0000
    12 C8       7.3931   9.0049   1.9048   C.2       1 RES1   0.0000
    13 N2       7.2353   7.9994   1.0919   N.2       1 RES1   0.0000
    14 N3       5.9038   7.8154   0.6895   N.2       1 RES1   0.0000
    15 C9       5.8826   6.7988  -0.1637   C.2       1 RES1   0.0000
    16 O3       6.9229   6.1352  -0.5419   O.3       1 RES1  -1.0000
    17 C10      4.5691   6.4456  -0.7351   C.ar      1 RES1   0.0000
    18 C11      3.4539   7.1798  -0.4936   C.ar      1 RES1   0.0000
    19 C12      2.2327   6.7969  -1.0758   C.ar      1 RES1   0.0000
    20 N4       2.0858   5.7189  -1.8539   N.ar      1 RES1   1.0000
    21 C13      3.1811   5.0108  -2.0846   C.ar      1 RES1   0.0000
    22 C14      4.4452   5.3398  -1.5507   C.ar      1 RES1   0.0000
    23 O4       8.3925   5.5962   2.0846   O.3       1 RES1  -1.0000
    24 C15      8.3141   4.3343   2.4307   C.ar      1 RES1   0.0000
    25 C16      7.8543   4.0629   3.7319   C.ar      1 RES1   0.0000
    26 N5       8.6317   2.8028   4.1504   N.ar      1 RES1   1.0000
    27 C17      8.0728   1.7452   3.3429   C.ar      1 RES1   0.0000
    28 C18      8.5183   1.9422   2.0792   C.ar      1 RES1   0.0000
    29 C19      8.6696   3.2488   1.6097   C.ar      1 RES1   0.0000
    30 C20      7.4069   5.1297   4.6521   C.3       1 RES1   0.0000
    31 C21      8.8606   0.7230   1.2395   C.3       1 RES1   0.0000
    32 O5       8.5284  -0.4814   1.8109   O.3       1 RES1  -1.0000
    33 C22      9.1794   3.4756   0.2602   C.2       1 RES1   0.0000
    34 N6       9.2404   4.6335  -0.3032   N.2       1 RES1   0.0000
    35 N7       9.6769   4.6261  -1.6231   N.2       1 RES1   0.0000
    36 C23      9.7600   5.8546  -2.0604   C.2       1 RES1   0.0000
    37 O6       9.5342   6.9159  -1.3575   O.3       1 RES1  -1.0000
    38 C24     10.1563   6.0200  -3.4904   C.ar      1 RES1   0.0000
    39 C25     10.3362   7.2746  -4.0162   C.ar      1 RES1   0.0000
    40 C26     10.6312   7.4121  -5.3765   C.ar      1 RES1   0.0000
    41 N8      10.7532   6.3787  -6.1840   N.ar      1 RES1   1.0000
    42 C27     10.5699   5.1725  -5.6689   C.ar      1 RES1   0.0000
    43 C28     10.2953   4.9736  -4.3409   C.ar      1 RES1   0.0000
    44 S1      -1.5189  10.8524   6.7072   S.o2      2 RES2   0.0000
    45 O7      -0.3112  11.6516   6.7796   O.2       2 RES2   0.0000
    46 O8      -1.6320  10.0086   7.9037   O.2       2 RES2   0.0000
    47 O7B     -2.7267  11.6516   6.6347   O.3       2 RES2  -1.0000
    48 O8B     -1.4058  10.0086   5.5106   O.3       2 RES2  -1.0000
    49 O9       0.1747  -1.2304  10.4873   O.3       3 RES3   0.0000
    50 O10      0.2498   5.6873   3.7587   O.3       4 RES4   0.0000
    51 O11      3.3178   4.7394   5.3148   O.3       5 RES5   0.0000
@<TRIPOS>BOND
     1     1     2    1
     2     2     3    1
     3     3     4   ar
     4     4     5   ar
     5     5     6   ar
     6     6     7   ar
     7     7     8   ar
     8     8     3   ar
     9     9     4    1
    10    10     7    1
    11    11    10    1
    12    12     8    1
    13    13     1    1
    14    14    13    1
    15    15    14    2
    16    16     1    1
    17    17    15    1
    18    18    17   ar
    19    19    18   ar
    20    20    19   ar
    21    21    20   ar
    22    22    17   ar
    23    23     1    1
    24    24    23    1
    25    25    24   ar
    26    26    25   ar
    27    27    26   ar
    28    28    27   ar
    29    29    24   ar
    30    30    25    1
    31    31    28    1
    32    32    31    1
    33    33    29    1
    34    34     1    1
    35    35    34    1
    36    36    35    2
    37    37     1    1
    38    38    36    1
    39    39    38   ar
    40    40    39   ar
    41    41    40   ar
    42    42    41   ar
    43    43    38   ar
    44    12    13    2
    45    15    16    1
    46    21    22   ar
    47    28    29   ar
    48    33    34    2
    49    36    37    1
    50    42    43   ar
    51    44    45    2
    52    46    44    2
    53    47    44    1
    54    48    44    1
@<TRIPOS>SUBSTRUCTURE
     1 RES1        1 GROUP             0 ****  ****    0  
     2 RES2       44 GROUP             0 ****  ****    0  
     3 RES3       49 GROUP             0 ****  ****    0  
     4 RES4       50 GROUP             0 ****  ****    0  
     5 RES5       51 GROUP             0 ****  ****    0  
@<TRIPOS>CRYSIN
   14.4870   18.5860   27.5080   90.0000  102.7600   90.0000    15     1
