@<TRIPOS>MOLECULE
FEHJUA
   129   134     4     0     0
SMALL
USER_CHARGES
****
Generated from the CSD

@<TRIPOS>ATOM
     1 C1      12.1023   0.2517   2.9130   C.ar      1 RES1   0.0000
     2 C2      11.0904   1.2181   3.0218   C.ar      1 RES1   0.0000
     3 H1      10.7443   1.6613   2.2571   H         1 RES1   0.0000
     4 C3      10.6230   1.4930   4.2807   C.ar      1 RES1   0.0000
     5 H2       9.9102   2.1115   4.3959   H         1 RES1   0.0000
     6 C4      11.1789   0.8771   5.3797   C.ar      1 RES1   0.0000
     7 H3      10.8638   1.0867   6.2499   H         1 RES1   0.0000
     8 C5      12.1952  -0.0442   5.2166   C.ar      1 RES1   0.0000
     9 C6      12.9247  -0.5429   6.4259   C.ar      1 RES1   0.0000
    10 C7      13.0862   0.3893   7.4801   C.ar      1 RES1   0.0000
    11 H4      12.7644   1.2757   7.3633   H         1 RES1   0.0000
    12 C8      13.6830   0.0553   8.6511   C.ar      1 RES1   0.0000
    13 H5      13.7539   0.6992   9.3453   H         1 RES1   0.0000
    14 C9      14.1915  -1.2219   8.8398   C.ar      1 RES1   0.0000
    15 H6      14.6096  -1.4538   9.6621   H         1 RES1   0.0000
    16 C10     14.0852  -2.1478   7.8256   C.ar      1 RES1   0.0000
    17 H7      14.4366  -3.0223   7.9536   H         1 RES1   0.0000
    18 C11     13.4733  -1.8231   6.6195   C.ar      1 RES1   0.0000
    19 C12     14.6537  -4.2076   5.7045   C.3       1 RES1   0.0000
    20 H8      15.4981  -3.7114   5.7524   H         1 RES1   0.0000
    21 H9      14.7080  -4.8755   4.9894   H         1 RES1   0.0000
    22 H10     14.4916  -4.6585   6.5587   H         1 RES1   0.0000
    23 C13     13.6880  -0.9990   1.6909   C.2       1 RES1   0.0000
    24 C14     15.2102  -1.1535   3.8696   C.1       1 RES1   0.0000
    25 C15     14.7429  -3.2275   2.6619   C.1       1 RES1   0.0000
    26 C16     10.8823  -2.9127   3.2761   C.ar      1 RES1   0.0000
    27 H11     10.8398  -2.4919   4.1272   H         1 RES1   0.0000
    28 C17      9.7498  -3.5562   2.8026   C.ar      1 RES1   0.0000
    29 H12      8.9467  -3.5661   3.3097   H         1 RES1   0.0000
    30 C18      9.8185  -4.1853   1.5645   C.ar      1 RES1   0.0000
    31 H13      9.0704  -4.6594   1.2206   H         1 RES1   0.0000
    32 C19     10.9828  -4.1079   0.8510   C.ar      1 RES1   0.0000
    33 H14     11.0392  -4.5013  -0.0128   H         1 RES1   0.0000
    34 C20     12.0660  -3.4592   1.3837   C.ar      1 RES1   0.0000
    35 H15     12.8734  -3.4315   0.8830   H         1 RES1   0.0000
    36 Fe1     13.7209  -1.9572   3.3548   Fe        1 RES1   1.0000
    37 N1      12.5903  -0.4287   3.9640   N.ar      1 RES1   0.0000
    38 N2      12.6958  -0.0348   1.7133   N.am      1 RES1   0.0000
    39 H16     12.4553   0.3843   0.9774   H         1 RES1   0.0000
    40 N3      12.0309  -2.8581   2.5947   N.ar      1 RES1   0.0000
    41 O1      14.2998  -1.2059   0.6223   O.2       1 RES1   0.0000
    42 O2      16.2133  -0.6909   4.1688   O.2       1 RES1   0.0000
    43 O3      15.4769  -3.9969   2.2348   O.2       1 RES1   0.0000
    44 S1      13.2945  -3.0583   5.3584   S.3       1 RES1   0.0000
    45 C21     13.9640   9.9329  10.9130   C.ar      2 RES2   0.0000
    46 C22     13.3971   9.9740   9.6429   C.ar      2 RES2   0.0000
    47 H17     13.2323   9.1556   9.1886   H         2 RES2   0.0000
    48 C23     13.0585  11.1793   9.0062   C.ar      2 RES2   0.0000
    49 C24     12.4610  11.1570   7.6401   C.3       2 RES2   0.0000
    50 C25     13.2435  12.3788   9.6605   C.ar      2 RES2   0.0000
    51 H18     13.0227  13.1995   9.2381   H         2 RES2   0.0000
    52 C26     13.7540  12.3597  10.9402   C.ar      2 RES2   0.0000
    53 C27     13.8810  13.6501  11.6985   C.3       2 RES2   0.0000
    54 C28     14.1107  11.1598  11.5545   C.ar      2 RES2   0.0000
    55 H19     14.4630  11.1796  12.4359   H         2 RES2   0.0000
    56 C29     15.9817   8.4960  12.0360   C.ar      2 RES2   0.0000
    57 C30     16.9442   9.4387  11.6121   C.ar      2 RES2   0.0000
    58 H20     16.6530  10.2064  11.1354   H         2 RES2   0.0000
    59 C31     18.2938   9.2832  11.8648   C.ar      2 RES2   0.0000
    60 C32     19.2705  10.2646  11.3497   C.3       2 RES2   0.0000
    61 C33     18.7611   8.1872  12.5767   C.ar      2 RES2   0.0000
    62 H21     19.6857   8.0884  12.7670   H         2 RES2   0.0000
    63 C34     17.8450   7.2446  12.9990   C.ar      2 RES2   0.0000
    64 C35     18.3368   6.0200  13.7060   C.3       2 RES2   0.0000
    65 C36     16.5000   7.3958  12.7238   C.ar      2 RES2   0.0000
    66 H22     15.8989   6.7210  13.0166   H         2 RES2   0.0000
    67 C37     13.4584   8.4274  13.0454   C.ar      2 RES2   0.0000
    68 C38     13.9556   8.3771  14.3571   C.ar      2 RES2   0.0000
    69 H23     14.8906   8.4731  14.4947   H         2 RES2   0.0000
    70 C39     13.1363   8.1929  15.4545   C.ar      2 RES2   0.0000
    71 C40     13.7192   8.1400  16.8126   C.3       2 RES2   0.0000
    72 C41     11.7663   8.0673  15.2929   C.ar      2 RES2   0.0000
    73 H24     11.2003   7.9345  16.0448   H         2 RES2   0.0000
    74 C42     11.2332   8.1396  14.0164   C.ar      2 RES2   0.0000
    75 C43      9.7500   7.9694  13.8500   C.3       2 RES2   0.0000
    76 C44     12.0598   8.3185  12.9126   C.ar      2 RES2   0.0000
    77 H25     11.6714   8.3679  12.0472   H         2 RES2   0.0000
    78 C45     14.1452   7.2252  10.7226   C.ar      2 RES2   0.0000
    79 C46     13.4234   6.0790  11.0762   C.ar      2 RES2   0.0000
    80 H26     13.0118   6.0427  11.9320   H         2 RES2   0.0000
    81 C47     13.2846   4.9797  10.2060   C.ar      2 RES2   0.0000
    82 C48     12.5572   3.7692  10.6827   C.3       2 RES2   0.0000
    83 C49     13.8561   5.0031   8.9502   C.ar      2 RES2   0.0000
    84 H27     13.7418   4.2755   8.3519   H         2 RES2   0.0000
    85 C50     14.6011   6.1123   8.5823   C.ar      2 RES2   0.0000
    86 C51     15.1904   6.1431   7.2178   C.3       2 RES2   0.0000
    87 C52     14.7446   7.1797   9.4461   C.ar      2 RES2   0.0000
    88 H28     15.2737   7.9195   9.1694   H         2 RES2   0.0000
    89 B1      14.3765   8.5323  11.6857   B         2 RES2  -1.0000
    90 F1      12.7190  10.0461   6.9538   F         2 RES2   0.0000
    91 F2      11.1186  11.2577   7.6689   F         2 RES2   0.0000
    92 F3      12.8494  12.1830   6.8770   F         2 RES2   0.0000
    93 F4      12.8091  13.8788  12.4759   F         2 RES2   0.0000
    94 F5      13.9431  14.7208  10.9130   F         2 RES2   0.0000
    95 F6      14.9273  13.7097  12.4935   F         2 RES2   0.0000
    96 F7      18.9299  10.8583  10.2715   F         2 RES2   0.0000
    97 F8      19.4899  11.2273  12.1816   F         2 RES2   0.0000
    98 F9      20.4610   9.8134  11.1226   F         2 RES2   0.0000
    99 F10     19.5067   6.1788  14.3027   F         2 RES2   0.0000
   100 F11     18.4723   4.9790  12.8694   F         2 RES2   0.0000
   101 F12     17.5046   5.5889  14.6563   F         2 RES2   0.0000
   102 F13     14.0584   9.3208  17.2989   F         2 RES2   0.0000
   103 F14     14.8607   7.4188  16.8542   F         2 RES2   0.0000
   104 F15     12.9319   7.5609  17.7292   F         2 RES2   0.0000
   105 F16      9.0577   8.7332  14.6819   F         2 RES2   0.0000
   106 F17      9.3455   6.7644  14.0772   F         2 RES2   0.0000
   107 F18      9.3183   8.3189  12.6535   F         2 RES2   0.0000
   108 F19     13.3442   2.9404  11.3785   F         2 RES2   0.0000
   109 F20     11.5286   4.0354  11.4665   F         2 RES2   0.0000
   110 F21     12.0934   3.0329   9.6605   F         2 RES2   0.0000
   111 F22     14.2770   6.0773   6.2579   F         2 RES2   0.0000
   112 F23     15.9922   5.0719   7.0034   F         2 RES2   0.0000
   113 F24     15.9645   7.1876   6.9794   F         2 RES2   0.0000
   114 C53     10.1599   5.9148   7.9232   C.3       3 RES3   0.0000
   115 H29      9.2066   6.0713   7.7041   H         3 RES3   0.0000
   116 H30     10.2017   5.4149   8.7758   H         3 RES3   0.0000
   117 Cl1     10.9146   4.9461   6.6292   Cl        3 RES3   0.0000
   118 C53A    10.8512   7.2096   8.0736   C.3       3 RES3   0.0000
   119 H29A    11.8045   7.0531   8.2927   H         3 RES3   0.0000
   120 H30A    10.8093   7.7095   7.2210   H         3 RES3   0.0000
   121 Cl1A    10.0965   8.1783   9.3676   Cl        3 RES3   0.0000
   122 C54     13.7443  -0.4977  15.5377   C.3       4 RES4   0.0000
   123 H31     13.0086  -0.5029  14.8738   H         4 RES4   0.0000
   124 H32     14.5545  -0.1397  15.0962   H         4 RES4   0.0000
   125 C55     13.9997  -1.8779  16.0176   C.3       4 RES4   0.0000
   126 H33     13.1998  -2.2275  16.4847   H         4 RES4   0.0000
   127 H34     14.7591  -1.8809  16.6527   H         4 RES4   0.0000
   128 Cl2     13.3002   0.5399  16.9288   Cl        4 RES4   0.0000
   129 Cl3     14.3801  -2.9043  14.5984   Cl        4 RES4   0.0000
@<TRIPOS>BOND
     1     1     2   ar
     2     2     3    1
     3     4     2   ar
     4     5     4    1
     5     6     4   ar
     6     7     6    1
     7     8     6   ar
     8     9     8    1
     9    10     9   ar
    10    11    10    1
    11    12    10   ar
    12    13    12    1
    13    14    12   ar
    14    15    14    1
    15    16    14   ar
    16    17    16    1
    17    18     9   ar
    18    19    20    1
    19    21    19    1
    20    22    19    1
    21    23    36    1
    22    24    36    1
    23    25    36    1
    24    26    27    1
    25    28    26   ar
    26    29    28    1
    27    30    28   ar
    28    31    30    1
    29    32    30   ar
    30    33    32    1
    31    34    32   ar
    32    35    34    1
    33    36    37    1
    34    37     1   ar
    35    38     1    1
    36    39    38    1
    37    40    26   ar
    38    41    23    2
    39    42    24    3
    40    43    25    3
    41    44    18    1
    42     8    37   ar
    43    16    18   ar
    44    19    44    1
    45    23    38   am
    46    34    40   ar
    47    36    40    1
    48    36    44    1
    49    45    46   ar
    50    46    47    1
    51    48    46   ar
    52    49    48    1
    53    50    48   ar
    54    51    50    1
    55    52    50   ar
    56    53    52    1
    57    54    45   ar
    58    55    54    1
    59    56    57   ar
    60    57    58    1
    61    59    57   ar
    62    60    59    1
    63    61    59   ar
    64    62    61    1
    65    63    61   ar
    66    64    63    1
    67    65    56   ar
    68    66    65    1
    69    67    68   ar
    70    68    69    1
    71    70    68   ar
    72    71    70    1
    73    72    70   ar
    74    73    72    1
    75    74    72   ar
    76    75    74    1
    77    76    67   ar
    78    77    76    1
    79    78    79   ar
    80    79    80    1
    81    81    79   ar
    82    82    81    1
    83    83    81   ar
    84    84    83    1
    85    85    83   ar
    86    86    85    1
    87    87    78   ar
    88    88    87    1
    89    89    45    1
    90    90    49    1
    91    91    49    1
    92    92    49    1
    93    93    53    1
    94    94    53    1
    95    95    53    1
    96    96    60    1
    97    97    60    1
    98    98    60    1
    99    99    64    1
   100   100    64    1
   101   101    64    1
   102   102    71    1
   103   103    71    1
   104   104    71    1
   105   105    75    1
   106   106    75    1
   107   107    75    1
   108   108    82    1
   109   109    82    1
   110   110    82    1
   111   111    86    1
   112   112    86    1
   113   113    86    1
   114    52    54   ar
   115    56    89    1
   116    63    65   ar
   117    67    89    1
   118    74    76   ar
   119    78    89    1
   120    85    87   ar
   121   114   115    1
   122   116   114    1
   123   117   114    1
   124   118   114    1
   125   119   118    1
   126   120   118    1
   127   121   118    1
   128   122   123    1
   129   124   122    1
   130   125   122    1
   131   126   125    1
   132   127   125    1
   133   128   122    1
   134   129   125    1
@<TRIPOS>SUBSTRUCTURE
     1 RES1        1 GROUP             0 ****  ****    0  
     2 RES2       45 GROUP             0 ****  ****    0  
     3 RES3      114 GROUP             0 ****  ****    0  
     4 RES4      122 GROUP             0 ****  ****    0  
@<TRIPOS>CRYSIN
   13.0380   14.2685   16.8688   89.5750   71.7620   79.1180     2     1
