@<TRIPOS>MOLECULE
FEHPYO
    78    82     2     0     0
SMALL
USER_CHARGES
****
Generated from the CSD

@<TRIPOS>ATOM
     1 Fe1      0.0000   0.0000   0.0000   Fe        1 RES1   2.0000
     2 O1       2.0725  -0.3751   0.1482   O.3       1 RES1   0.0000
     3 N1       2.9323   0.4004  -0.5086   N.ar      1 RES1   0.0000
     4 C1       3.0362   0.2972  -1.8373   C.ar      1 RES1   0.0000
     5 C2       3.9346   1.0901  -2.5138   C.ar      1 RES1   0.0000
     6 C3       4.7132   1.9758  -1.8325   C.ar      1 RES1   0.0000
     7 C4       4.6049   2.0497  -0.4605   C.ar      1 RES1   0.0000
     8 C5       3.7003   1.2515   0.1840   C.ar      1 RES1   0.0000
     9 H1       2.5517  -0.3733  -2.1892   H         1 RES1   0.0000
    10 H2       3.8429   0.9201  -3.6047   H         1 RES1   0.0000
    11 H3       5.3570   2.4784  -2.2270   H         1 RES1   0.0000
    12 H4       5.1966   2.6627   0.1132   H         1 RES1   0.0000
    13 H5       3.6251   1.2285   1.1229   H         1 RES1   0.0000
    14 O1C     -2.0725   0.3751  -0.1482   O.3       1 RES1   0.0000
    15 O1A      0.4173   2.0324  -0.3916   O.3       1 RES1   0.0000
    16 O1D     -0.4173  -2.0324   0.3916   O.3       1 RES1   0.0000
    17 O1B     -0.0485   0.4300   2.0666   O.3       1 RES1   0.0000
    18 O1E      0.0485  -0.4300  -2.0666   O.3       1 RES1   0.0000
    19 N1C     -2.9323  -0.4004   0.5086   N.ar      1 RES1   0.0000
    20 N1A      0.0110   2.9667   0.4652   N.ar      1 RES1   0.0000
    21 N1D     -0.0110  -2.9667  -0.4652   N.ar      1 RES1   0.0000
    22 N1B      0.8513  -0.1228   2.8771   N.ar      1 RES1   0.0000
    23 N1E     -0.8513   0.1228  -2.8771   N.ar      1 RES1   0.0000
    24 C1C     -3.0362  -0.2972   1.8373   C.ar      1 RES1   0.0000
    25 C5C     -3.7003  -1.2515  -0.1840   C.ar      1 RES1   0.0000
    26 C1A     -1.2871   3.2761   0.5416   C.ar      1 RES1   0.0000
    27 C5A      0.9214   3.6008   1.2154   C.ar      1 RES1   0.0000
    28 C1D      1.2871  -3.2761  -0.5416   C.ar      1 RES1   0.0000
    29 C5D     -0.9214  -3.6008  -1.2154   C.ar      1 RES1   0.0000
    30 C1B      0.7655  -1.4234   3.1734   C.ar      1 RES1   0.0000
    31 C5B      1.8113   0.6478   3.4046   C.ar      1 RES1   0.0000
    32 C1E     -0.7655   1.4234  -3.1734   C.ar      1 RES1   0.0000
    33 C5E     -1.8113  -0.6478  -3.4046   C.ar      1 RES1   0.0000
    34 C2C     -3.9346  -1.0901   2.5138   C.ar      1 RES1   0.0000
    35 H1C     -2.5517   0.3733   2.1892   H         1 RES1   0.0000
    36 C4C     -4.6049  -2.0497   0.4605   C.ar      1 RES1   0.0000
    37 H5C     -3.6251  -1.2285  -1.1229   H         1 RES1   0.0000
    38 C2A     -1.7045   4.2512   1.4183   C.ar      1 RES1   0.0000
    39 H1A     -1.7961   2.8657  -0.0755   H         1 RES1   0.0000
    40 C4A      0.5372   4.5770   2.0930   C.ar      1 RES1   0.0000
    41 H5A      1.8258   3.3825   1.0663   H         1 RES1   0.0000
    42 C2D      1.7045  -4.2512  -1.4183   C.ar      1 RES1   0.0000
    43 H1D      1.7961  -2.8657   0.0755   H         1 RES1   0.0000
    44 C4D     -0.5372  -4.5770  -2.0930   C.ar      1 RES1   0.0000
    45 H5D     -1.8258  -3.3825  -1.0663   H         1 RES1   0.0000
    46 C2B      1.6883  -1.9910   4.0218   C.ar      1 RES1   0.0000
    47 H1B      0.0277  -1.8225   2.8498   H         1 RES1   0.0000
    48 C4B      2.7404   0.1127   4.2539   C.ar      1 RES1   0.0000
    49 H5B      1.7769   1.5687   3.2084   H         1 RES1   0.0000
    50 C2E     -1.6883   1.9910  -4.0218   C.ar      1 RES1   0.0000
    51 H1E     -0.0277   1.8225  -2.8498   H         1 RES1   0.0000
    52 C4E     -2.7404  -0.1127  -4.2539   C.ar      1 RES1   0.0000
    53 H5E     -1.7769  -1.5687  -3.2084   H         1 RES1   0.0000
    54 C3C     -4.7132  -1.9758   1.8325   C.ar      1 RES1   0.0000
    55 H2C     -3.8429  -0.9201   3.6047   H         1 RES1   0.0000
    56 H4C     -5.1966  -2.6627  -0.1132   H         1 RES1   0.0000
    57 C3A     -0.7989   4.8969   2.2043   C.ar      1 RES1   0.0000
    58 H2A     -2.8091   4.3320   1.3966   H         1 RES1   0.0000
    59 H4A      1.2722   5.0604   2.6233   H         1 RES1   0.0000
    60 C3D      0.7989  -4.8969  -2.2043   C.ar      1 RES1   0.0000
    61 H2D      2.8091  -4.3320  -1.3966   H         1 RES1   0.0000
    62 H4D     -1.2722  -5.0604  -2.6233   H         1 RES1   0.0000
    63 C3B      2.6842  -1.2310   4.5559   C.ar      1 RES1   0.0000
    64 H2B      1.5061  -3.0806   4.1048   H         1 RES1   0.0000
    65 H4B      3.4379   0.7470   4.6616   H         1 RES1   0.0000
    66 C3E     -2.6842   1.2310  -4.5559   C.ar      1 RES1   0.0000
    67 H2E     -1.5061   3.0806  -4.1048   H         1 RES1   0.0000
    68 H4E     -3.4379  -0.7470  -4.6616   H         1 RES1   0.0000
    69 H3C     -5.3570  -2.4784   2.2270   H         1 RES1   0.0000
    70 H3A     -1.0182   5.5830   2.7554   H         1 RES1   0.0000
    71 H3D      1.0182  -5.5830  -2.7554   H         1 RES1   0.0000
    72 H3B      3.2808  -1.5468   5.1617   H         1 RES1   0.0000
    73 H3E     -3.2808   1.5468  -5.1617   H         1 RES1   0.0000
    74 Cl1      4.4382   3.7946   3.3143   Cl        2 RES2   0.0000
    75 O2       5.3590   4.5819   4.0020   O.2       2 RES2   0.0000
    76 O3       4.9880   2.4976   3.1763   O.2       2 RES2   0.0000
    77 O3A      4.2162   4.3861   2.0477   O.2       2 RES2   0.0000
    78 O3B      3.2424   3.7579   4.0708   O.3       2 RES2  -1.0000
@<TRIPOS>BOND
     1     1     2    1
     2     2     3    1
     3     3     4   ar
     4     4     5   ar
     5     5     6   ar
     6     6     7   ar
     7     7     8   ar
     8     8     3   ar
     9     9     4    1
    10    10     5    1
    11    11     6    1
    12    12     7    1
    13    13     8    1
    14    14     1    1
    15    15     1    1
    16    16     1    1
    17    17     1    1
    18    18     1    1
    19    19    14    1
    20    20    15    1
    21    21    16    1
    22    22    17    1
    23    23    18    1
    24    24    19   ar
    25    25    19   ar
    26    26    20   ar
    27    27    20   ar
    28    28    21   ar
    29    29    21   ar
    30    30    22   ar
    31    31    22   ar
    32    32    23   ar
    33    33    23   ar
    34    34    24   ar
    35    35    24    1
    36    36    25   ar
    37    37    25    1
    38    38    26   ar
    39    39    26    1
    40    40    27   ar
    41    41    27    1
    42    42    28   ar
    43    43    28    1
    44    44    29   ar
    45    45    29    1
    46    46    30   ar
    47    47    30    1
    48    48    31   ar
    49    49    31    1
    50    50    32   ar
    51    51    32    1
    52    52    33   ar
    53    53    33    1
    54    54    34   ar
    55    55    34    1
    56    56    36    1
    57    57    38   ar
    58    58    38    1
    59    59    40    1
    60    60    42   ar
    61    61    42    1
    62    62    44    1
    63    63    46   ar
    64    64    46    1
    65    65    48    1
    66    66    50   ar
    67    67    50    1
    68    68    52    1
    69    69    54    1
    70    70    57    1
    71    71    60    1
    72    72    63    1
    73    73    66    1
    74    36    54   ar
    75    40    57   ar
    76    44    60   ar
    77    48    63   ar
    78    52    66   ar
    79    74    75    2
    80    76    74    2
    81    77    74    2
    82    78    74    1
@<TRIPOS>SUBSTRUCTURE
     1 RES1        1 GROUP             0 ****  ****    0  
     2 RES2       74 GROUP             0 ****  ****    0  
@<TRIPOS>CRYSIN
    9.6400    9.6400    9.6400   81.0600   81.0600   81.0600   148     1
