@<TRIPOS>MOLECULE
FEHPPE01
   115   118     1     0     0
SMALL
NO_CHARGES
****
Generated from the CSD

@<TRIPOS>ATOM
     1 C1       2.1245   3.3440  -0.3492   C.ar      1 RES1   0.0000
     2 C2       6.8157   3.4177   0.7024   C.3       1 RES1   0.0000
     3 C3      -0.6794   2.7012   3.9303   C.ar      1 RES1   0.0000
     4 C4      -0.3278   1.5064   3.3000   C.ar      1 RES1   0.0000
     5 C5      -1.2908   0.5405   3.0136   C.ar      1 RES1   0.0000
     6 C6      -2.5870   0.7695   3.3503   C.ar      1 RES1   0.0000
     7 C7      -2.9504   1.9407   3.9651   C.ar      1 RES1   0.0000
     8 C8      -2.0044   2.9380   4.2522   C.ar      1 RES1   0.0000
     9 C9       0.1513   6.2204   5.5371   C.3       1 RES1   0.0000
    10 C10     -0.9588   7.2296   5.5723   C.3       1 RES1   0.0000
    11 C11      0.3236   2.9182   6.8787   C.3       1 RES1   0.0000
    12 C12      2.7861   3.7525  -1.5029   C.ar      1 RES1   0.0000
    13 C13      0.9633   2.0955   7.8571   C.3       1 RES1   0.0000
    14 C14      3.0354   6.6500   0.6757   C.ar      1 RES1   0.0000
    15 C15      4.3727   6.8377   0.9767   C.ar      1 RES1   0.0000
    16 C16      5.2653   7.2867   0.0043   C.ar      1 RES1   0.0000
    17 C17      4.8323   7.5464  -1.2637   C.ar      1 RES1   0.0000
    18 C18      3.5147   7.3734  -1.5571   C.ar      1 RES1   0.0000
    19 C19      2.6142   6.9252  -0.6017   C.ar      1 RES1   0.0000
    20 C20      1.6807   8.7094   2.4172   C.3       1 RES1   0.0000
    21 C21      1.3544   9.6404   3.5102   C.3       1 RES1   0.0000
    22 C22     -0.7305   5.9200   1.6107   C.3       1 RES1   0.0000
    23 C23      2.1114   3.9135  -2.7060   C.ar      1 RES1   0.0000
    24 C24     -1.7296   6.2101   0.5456   C.3       1 RES1   0.0000
    25 C25      3.5948   5.5747   5.8251   C.ar      1 RES1   0.0000
    26 C26      3.4600   6.9534   5.7056   C.ar      1 RES1   0.0000
    27 C27      3.2388   7.7484   6.8528   C.ar      1 RES1   0.0000
    28 C28      3.1569   7.1331   8.0939   C.ar      1 RES1   0.0000
    29 C29      3.2755   5.7756   8.2088   C.ar      1 RES1   0.0000
    30 C30      3.5094   4.9939   7.0835   C.ar      1 RES1   0.0000
    31 C31      6.3548   5.5371   4.4048   C.3       1 RES1   0.0000
    32 C32      7.2600   6.4042   3.6256   C.3       1 RES1   0.0000
    33 C33      4.4311   1.9885   4.8757   C.3       1 RES1   0.0000
    34 C34      0.7624   3.6669  -2.7679   C.ar      1 RES1   0.0000
    35 C35      5.0683   1.2022   5.9003   C.3       1 RES1   0.0000
    36 C36      0.0783   3.2648  -1.6342   C.ar      1 RES1   0.0000
    37 C37      0.7677   3.0932  -0.4158   C.ar      1 RES1   0.0000
    38 C38      3.1236   0.5531   0.4529   C.3       1 RES1   0.0000
    39 C39      2.3249  -0.6528   0.6585   C.3       1 RES1   0.0000
    40 C40      5.6411   3.0114   1.4075   C.3       1 RES1   0.0000
    41 Fe1      2.2092   4.1610   2.9622   Fe        1 RES1   0.0000
    42 H1       3.8775   3.9764  -1.4281   H         1 RES1   0.0000
    43 H2       2.5472  -1.0940   1.6255   H         1 RES1   0.0000
    44 H3       2.2759   2.7594   3.5459   H         1 RES1   0.0000
    45 H4       5.7832   1.9341   1.6602   H         1 RES1   0.0000
    46 H5       5.5624   3.5575   2.3564   H         1 RES1   0.0000
    47 H6       7.7389   3.3417   1.2720   H         1 RES1   0.0000
    48 H7       6.7137   4.5345   0.4403   H         1 RES1   0.0000
    49 H8       6.9345   2.9111  -0.2559   H         1 RES1   0.0000
    50 H9       0.7532   1.3186   3.0753   H         1 RES1   0.0000
    51 H10     -1.0108  -0.4146   2.4746   H         1 RES1   0.0000
    52 H11     -3.3524  -0.0466   3.1979   H         1 RES1   0.0000
    53 H12     -4.0335   2.1015   4.2313   H         1 RES1   0.0000
    54 H13      2.6882   4.2194  -3.6414   H         1 RES1   0.0000
    55 H14     -2.3288   3.9122   4.7117   H         1 RES1   0.0000
    56 H15      1.0467   3.7213   2.1189   H         1 RES1   0.0000
    57 H16      1.0108   6.6149   4.9524   H         1 RES1   0.0000
    58 H17      0.5190   6.0150   6.5551   H         1 RES1   0.0000
    59 H18     -0.6655   8.1696   6.0075   H         1 RES1   0.0000
    60 H19     -1.8191   6.8205   6.1387   H         1 RES1   0.0000
    61 H20     -1.3268   7.4204   4.5349   H         1 RES1   0.0000
    62 H21     -0.5885   2.4191   6.4781   H         1 RES1   0.0000
    63 H22     -0.0091   3.8673   7.3380   H         1 RES1   0.0000
    64 H23      0.3020   1.8433   8.6914   H         1 RES1   0.0000
    65 H24      1.8634   2.5747   8.2522   H         1 RES1   0.0000
    66 H25      0.2218   3.8074  -3.7086   H         1 RES1   0.0000
    67 H26      1.2840   1.1265   7.3923   H         1 RES1   0.0000
    68 H27      4.7117   6.5853   2.0050   H         1 RES1   0.0000
    69 H28      6.3266   7.4422   0.2819   H         1 RES1   0.0000
    70 H29      5.5473   7.9597  -2.0007   H         1 RES1   0.0000
    71 H30      3.1405   7.6026  -2.5689   H         1 RES1   0.0000
    72 H31      1.5595   6.7188  -0.8653   H         1 RES1   0.0000
    73 H32      0.9053   8.6903   1.6732   H         1 RES1   0.0000
    74 H33      2.6375   9.0252   1.9194   H         1 RES1   0.0000
    75 H34      1.2295  10.6763   3.1339   H         1 RES1   0.0000
    76 H35      2.1745   9.6829   4.2692   H         1 RES1   0.0000
    77 H36     -1.0232   3.0225  -1.6374   H         1 RES1   0.0000
    78 H37      0.4428   9.3480   4.0220   H         1 RES1   0.0000
    79 H38     -0.9712   6.4788   2.4746   H         1 RES1   0.0000
    80 H39     -0.7478   4.8521   1.7849   H         1 RES1   0.0000
    81 H40     -2.7517   5.9422   0.8621   H         1 RES1   0.0000
    82 H41     -1.5280   5.6711  -0.4023   H         1 RES1   0.0000
    83 H42     -1.7525   7.2978   0.2874   H         1 RES1   0.0000
    84 H43      3.5105   7.4275   4.7290   H         1 RES1   0.0000
    85 H44      3.1421   8.8732   6.7568   H         1 RES1   0.0000
    86 H45      3.0222   7.7709   9.0113   H         1 RES1   0.0000
    87 H46      3.1575   5.3048   9.1902   H         1 RES1   0.0000
    88 H47      0.2220   2.7188   0.4880   H         1 RES1   0.0000
    89 H48      3.6086   3.9054   7.1906   H         1 RES1   0.0000
    90 H49      6.8313   4.5672   4.5165   H         1 RES1   0.0000
    91 H50      6.1374   5.9565   5.3861   H         1 RES1   0.0000
    92 H51      8.1694   6.6031   4.1543   H         1 RES1   0.0000
    93 H52      6.7300   7.4281   3.5091   H         1 RES1   0.0000
    94 H53      7.4250   6.0388   2.6394   H         1 RES1   0.0000
    95 H54      4.8784   1.6868   3.8995   H         1 RES1   0.0000
    96 H55      3.3766   1.7566   4.8526   H         1 RES1   0.0000
    97 H56      4.8971   0.1568   5.7039   H         1 RES1   0.0000
    98 H57      4.6298   1.4934   6.8479   H         1 RES1   0.0000
    99 H58      4.1863   0.3328   0.4739   H         1 RES1   0.0000
   100 H59      6.1323   1.4253   5.8936   H         1 RES1   0.0000
   101 H60      2.8876   1.0011  -0.5454   H         1 RES1   0.0000
   102 H61      2.5423  -1.4022  -0.1269   H         1 RES1   0.0000
   103 H62      1.2481  -0.4238   0.6073   H         1 RES1   0.0000
   104 O1       2.7876   1.5141   1.4830   O.3       1 RES1   0.0000
   105 O2       4.4653   3.1847   0.6300   O.3       1 RES1   0.0000
   106 O3      -0.3654   5.0208   4.9399   O.3       1 RES1   0.0000
   107 O4       1.2142   3.2087   5.7708   O.3       1 RES1   0.0000
   108 O5       1.8792   7.3861   2.9673   O.3       1 RES1   0.0000
   109 O6       0.5595   6.2805   1.1209   O.3       1 RES1   0.0000
   110 O7       5.1118   5.3730   3.6739   O.3       1 RES1   0.0000
   111 O8       4.6196   3.3584   5.0391   O.3       1 RES1   0.0000
   112 P1       2.9704   3.1150   1.2654   P.3       1 RES1   0.0000
   113 P2       0.6598   3.8793   4.3802   P.3       1 RES1   0.0000
   114 P3       1.9078   6.0653   2.0050   P.3       1 RES1   0.0000
   115 P4       3.8383   4.5761   4.3036   P.3       1 RES1   0.0000
@<TRIPOS>BOND
     1     1    12   ar
     2     2    40    1
     3     3     4   ar
     4     4     5   ar
     5     5     6   ar
     6     6     7   ar
     7     7     8   ar
     8     8     3   ar
     9     9    10    1
    10    10    59    1
    11    11    13    1
    12    12    23   ar
    13    13    64    1
    14    14    15   ar
    15    15    16   ar
    16    16    17   ar
    17    17    18   ar
    18    18    19   ar
    19    19    14   ar
    20    20    21    1
    21    21    75    1
    22    22    24    1
    23    23    34   ar
    24    24    81    1
    25    25    26   ar
    26    26    27   ar
    27    27    28   ar
    28    28    29   ar
    29    29    30   ar
    30    30    25   ar
    31    31    32    1
    32    32    92    1
    33    33    35    1
    34    34    36   ar
    35    35    97    1
    36    36    37   ar
    37    37     1   ar
    38    38    39    1
    39    39    43    1
    40    40    45    1
    41    41    44    1
    42    42    12    1
    43    46    40    1
    44    47     2    1
    45    48     2    1
    46    49     2    1
    47    50     4    1
    48    51     5    1
    49    52     6    1
    50    53     7    1
    51    54    23    1
    52    55     8    1
    53    56    41    1
    54    57     9    1
    55    58     9    1
    56    60    10    1
    57    61    10    1
    58    62    11    1
    59    63    11    1
    60    65    13    1
    61    66    34    1
    62    67    13    1
    63    68    15    1
    64    69    16    1
    65    70    17    1
    66    71    18    1
    67    72    19    1
    68    73    20    1
    69    74    20    1
    70    76    21    1
    71    77    36    1
    72    78    21    1
    73    79    22    1
    74    80    22    1
    75    82    24    1
    76    83    24    1
    77    84    26    1
    78    85    27    1
    79    86    28    1
    80    87    29    1
    81    88    37    1
    82    89    30    1
    83    90    31    1
    84    91    31    1
    85    93    32    1
    86    94    32    1
    87    95    33    1
    88    96    33    1
    89    98    35    1
    90    99    38    1
    91   100    35    1
    92   101    38    1
    93   102    39    1
    94   103    39    1
    95   104    38    1
    96   105    40    1
    97   106     9    1
    98   107    11    1
    99   108    20    1
   100   109    22    1
   101   110    31    1
   102   111    33    1
   103   112     1    1
   104   113     3    1
   105   114    14    1
   106   115    25    1
   107    41   112    1
   108    41   113    1
   109    41   114    1
   110    41   115    1
   111   104   112    1
   112   105   112    1
   113   106   113    1
   114   107   113    1
   115   108   114    1
   116   109   114    1
   117   110   115    1
   118   111   115    1
@<TRIPOS>SUBSTRUCTURE
     1 RES1        1 GROUP             0 ****  ****    0  
@<TRIPOS>CRYSIN
   11.7860   17.4910   11.9700   90.2000  114.9700   85.0300     2     1
