@<TRIPOS>MOLECULE
FEJNAK
    81    87     3     0     0
SMALL
USER_CHARGES
****
Generated from the CSD

@<TRIPOS>ATOM
     1 Fe1      5.8351   1.5586   3.2394   Fe        1 RES1   0.0000
     2 N1       5.9058   2.5344   1.3019   N.ar      1 RES1   0.0000
     3 N2       5.6623  -0.0381   1.8244   N.ar      1 RES1   0.0000
     4 C1       6.0971   3.8403   1.1140   C.ar      1 RES1   0.0000
     5 H1       6.2173   4.3877   1.8561   H         1 RES1   0.0000
     6 C2       6.1240   4.4054  -0.1405   C.ar      1 RES1   0.0000
     7 H2       6.3015   5.3124  -0.2485   H         1 RES1   0.0000
     8 C3       5.8826   3.6074  -1.2186   C.ar      1 RES1   0.0000
     9 H3       5.8582   3.9751  -2.0721   H         1 RES1   0.0000
    10 C4       5.6768   2.2688  -1.0455   C.ar      1 RES1   0.0000
    11 H4       5.5089   1.7213  -1.7773   H         1 RES1   0.0000
    12 C5       5.7163   1.7349   0.2331   C.ar      1 RES1   0.0000
    13 C6       5.5929   0.2982   0.5238   C.ar      1 RES1   0.0000
    14 C7       5.4302  -0.6605  -0.4610   C.ar      1 RES1   0.0000
    15 H5       5.3861  -0.4167  -1.3574   H         1 RES1   0.0000
    16 C8       5.3344  -1.9828  -0.0840   C.ar      1 RES1   0.0000
    17 H6       5.2400  -2.6446  -0.7318   H         1 RES1   0.0000
    18 C9       5.3793  -2.3164   1.2254   C.ar      1 RES1   0.0000
    19 H7       5.2932  -3.2057   1.4877   H         1 RES1   0.0000
    20 C10      5.5548  -1.3209   2.1698   C.ar      1 RES1   0.0000
    21 H8       5.6005  -1.5538   3.0696   H         1 RES1   0.0000
    22 O1       6.3751   3.2047   4.1824   O.co2     1 RES1   0.0000
    23 O2       7.7956   1.2538   3.2727   O.co2     1 RES1   0.0000
    24 C11      7.6476   3.3650   4.3541   C.2       1 RES1   0.0000
    25 C12      8.4987   2.2470   3.6984   C.2       1 RES1   0.0000
    26 O3       9.7028   2.3532   3.6172   O.co2     1 RES1   0.0000
    27 O4       8.1799   4.2815   4.9432   O.co2     1 RES1   0.0000
    28 O5       3.8736   1.8857   3.2621   O.co2     1 RES1  -1.0000
    29 O6       5.3635   0.3814   4.7393   O.co2     1 RES1   0.0000
    30 C13      4.1219   0.4085   5.1156   C.2       1 RES1   0.0000
    31 C14      3.2226   1.2311   4.1639   C.2       1 RES1   0.0000
    32 O7       3.6756  -0.1117   6.1159   O.co2     1 RES1   0.0000
    33 O8       2.0151   1.2379   4.2984   O.co2     1 RES1   0.0000
    34 As1     -2.6681  10.6762   8.2391   As        2 RES2   1.0000
    35 C15     -3.4253  11.3669   6.6292   C.ar      2 RES2   0.0000
    36 C16     -4.6139  10.8372   6.1546   C.ar      2 RES2   0.0000
    37 H9      -4.9814  10.0814   6.5522   H         2 RES2   0.0000
    38 C17     -5.2496  11.4405   5.0868   C.ar      2 RES2   0.0000
    39 H10     -6.0478  11.0959   4.7578   H         2 RES2   0.0000
    40 C18     -4.6763  12.5667   4.5161   C.ar      2 RES2   0.0000
    41 H11     -5.1141  12.9943   3.8151   H         2 RES2   0.0000
    42 C19     -3.4854  13.0610   4.9549   C.ar      2 RES2   0.0000
    43 H12     -3.1006  13.7937   4.5315   H         2 RES2   0.0000
    44 C20     -2.8560  12.4754   6.0278   C.ar      2 RES2   0.0000
    45 H13     -2.0545  12.8213   6.3483   H         2 RES2   0.0000
    46 C21     -2.1667   8.8422   8.0498   C.ar      2 RES2   0.0000
    47 C22     -2.4303   8.1545   6.8830   C.ar      2 RES2   0.0000
    48 H14     -2.8746   8.5712   6.1803   H         2 RES2   0.0000
    49 C23     -2.0236   6.8308   6.7699   C.ar      2 RES2   0.0000
    50 H15     -2.1804   6.3651   5.9798   H         2 RES2   0.0000
    51 C24     -1.3901   6.2112   7.8136   C.ar      2 RES2   0.0000
    52 H16     -1.1301   5.3233   7.7331   H         2 RES2   0.0000
    53 C25     -1.1383   6.8962   8.9808   C.ar      2 RES2   0.0000
    54 H17     -0.7235   6.4645   9.6921   H         2 RES2   0.0000
    55 C26     -1.5043   8.2266   9.0939   C.ar      2 RES2   0.0000
    56 H18     -1.3043   8.7033   9.8669   H         2 RES2   0.0000
    57 C27     -1.0919  11.6352   8.6932   C.ar      2 RES2   0.0000
    58 C28     -0.9717  12.2644   9.9180   C.ar      2 RES2   0.0000
    59 H19     -1.6862  12.2671  10.5147   H         2 RES2   0.0000
    60 C29      0.2095  12.8881  10.2508   C.ar      2 RES2   0.0000
    61 H20      0.2998  13.3102  11.0735   H         2 RES2   0.0000
    62 C30      1.2544  12.8826   9.3630   C.ar      2 RES2   0.0000
    63 H21      2.0575  13.2830   9.6047   H         2 RES2   0.0000
    64 C31      1.1434  12.2971   8.1221   C.ar      2 RES2   0.0000
    65 H22      1.8489  12.3379   7.5188   H         2 RES2   0.0000
    66 C32     -0.0389  11.6407   7.7811   C.ar      2 RES2   0.0000
    67 H23     -0.1234  11.2144   6.9584   H         2 RES2   0.0000
    68 C33     -3.9748  10.8998   9.6295   C.ar      2 RES2   0.0000
    69 C34     -3.7891  10.2993  10.8543   C.ar      2 RES2   0.0000
    70 H24     -3.0245   9.7927  11.0152   H         2 RES2   0.0000
    71 C35     -4.7416  10.4505  11.8413   C.ar      2 RES2   0.0000
    72 H25     -4.6288  10.0310  12.6622   H         2 RES2   0.0000
    73 C36     -5.8567  11.2212  11.6116   C.ar      2 RES2   0.0000
    74 H26     -6.4942  11.3220  12.2800   H         2 RES2   0.0000
    75 C37     -6.0307  11.8449  10.3982   C.ar      2 RES2   0.0000
    76 H27     -6.7810  12.3733  10.2491   H         2 RES2   0.0000
    77 C38     -5.0881  11.6842   9.3990   C.ar      2 RES2   0.0000
    78 H28     -5.2032  12.1037   8.5763   H         2 RES2   0.0000
    79 O9      10.6845   5.5425   3.9349   O.3       3 RES3   0.0000
    80 H29     10.0141   4.8889   4.1305   H         3 RES3   0.0000
    81 H30     10.1567   6.3351   3.8391   H         3 RES3   0.0000
@<TRIPOS>BOND
     1     1     2    1
     2     2     4   ar
     3     3     1    1
     4     4     5    1
     5     6     4   ar
     6     7     6    1
     7     8     6   ar
     8     9     8    1
     9    10     8   ar
    10    11    10    1
    11    12     2   ar
    12    13     3   ar
    13    14    13   ar
    14    15    14    1
    15    16    14   ar
    16    17    16    1
    17    18    16   ar
    18    19    18    1
    19    20     3   ar
    20    21    20    1
    21    22     1    1
    22    23     1    1
    23    24    22    1
    24    25    23    1
    25    26    25    2
    26    27    24    2
    27    28     1    1
    28    29     1    1
    29    30    29    1
    30    31    28    1
    31    32    30    2
    32    33    31    2
    33    10    12   ar
    34    12    13    1
    35    18    20   ar
    36    24    25    1
    37    30    31    1
    38    34    35    1
    39    35    36   ar
    40    36    37    1
    41    38    36   ar
    42    39    38    1
    43    40    38   ar
    44    41    40    1
    45    42    40   ar
    46    43    42    1
    47    44    35   ar
    48    45    44    1
    49    46    34    1
    50    47    46   ar
    51    48    47    1
    52    49    47   ar
    53    50    49    1
    54    51    49   ar
    55    52    51    1
    56    53    51   ar
    57    54    53    1
    58    55    46   ar
    59    56    55    1
    60    57    34    1
    61    58    57   ar
    62    59    58    1
    63    60    58   ar
    64    61    60    1
    65    62    60   ar
    66    63    62    1
    67    64    62   ar
    68    65    64    1
    69    66    57   ar
    70    67    66    1
    71    68    34    1
    72    69    68   ar
    73    70    69    1
    74    71    69   ar
    75    72    71    1
    76    73    71   ar
    77    74    73    1
    78    75    73   ar
    79    76    75    1
    80    77    68   ar
    81    78    77    1
    82    42    44   ar
    83    53    55   ar
    84    64    66   ar
    85    75    77   ar
    86    79    80    1
    87    81    79    1
@<TRIPOS>SUBSTRUCTURE
     1 RES1        1 GROUP             0 ****  ****    0  
     2 RES2       34 GROUP             0 ****  ****    0  
     3 RES3       79 GROUP             0 ****  ****    0  
@<TRIPOS>CRYSIN
   14.5650   13.6180   18.3930   90.0000  111.2800   90.0000    14     1
