@<TRIPOS>MOLECULE
FEJNEO
    81    88     3     0     0
SMALL
USER_CHARGES
****
Generated from the CSD

@<TRIPOS>ATOM
     1 Fe1      3.1512   5.5603   3.8949   Fe        1 RES1   0.0000
     2 N1       4.9632   6.5196   3.2408   N.ar      1 RES1   0.0000
     3 N2       4.2617   5.8358   5.7216   N.ar      1 RES1   0.0000
     4 C1       5.2883   6.8737   1.9962   C.ar      1 RES1   0.0000
     5 H1       4.6915   6.6922   1.3075   H         1 RES1   0.0000
     6 C2       6.4841   7.5033   1.6950   C.ar      1 RES1   0.0000
     7 H2       6.6748   7.7346   0.8146   H         1 RES1   0.0000
     8 C3       7.3810   7.7880   2.6794   C.ar      1 RES1   0.0000
     9 H3       8.1856   8.2065   2.4781   H         1 RES1   0.0000
    10 C4       7.0700   7.4381   4.0075   C.ar      1 RES1   0.0000
    11 C5       7.9321   7.7008   5.1288   C.ar      1 RES1   0.0000
    12 H4       8.7462   8.1276   4.9892   H         1 RES1   0.0000
    13 C6       7.5798   7.3425   6.3693   C.ar      1 RES1   0.0000
    14 H5       8.1566   7.5240   7.0757   H         1 RES1   0.0000
    15 C7       6.3314   6.6864   6.6362   C.ar      1 RES1   0.0000
    16 C8       5.8792   6.3143   7.9164   C.ar      1 RES1   0.0000
    17 H6       6.4175   6.4605   8.6612   H         1 RES1   0.0000
    18 C9       4.6661   5.7466   8.0629   C.ar      1 RES1   0.0000
    19 H7       4.3621   5.5122   8.9090   H         1 RES1   0.0000
    20 C10      3.8656   5.5113   6.9416   C.ar      1 RES1   0.0000
    21 H8       3.0314   5.1155   7.0566   H         1 RES1   0.0000
    22 C11      5.8522   6.7998   4.2306   C.ar      1 RES1   0.0000
    23 C12      5.4721   6.4258   5.5656   C.ar      1 RES1   0.0000
    24 O1       4.0408   3.8382   3.4585   O.co2     1 RES1   0.0000
    25 O2       1.8753   4.3467   4.7660   O.co2     1 RES1   0.0000
    26 C13      3.4697   2.7932   3.9377   C.2       1 RES1   0.0000
    27 C14      2.1634   3.1013   4.7098   C.2       1 RES1   0.0000
    28 O3       1.5002   2.1994   5.1973   O.co2     1 RES1   0.0000
    29 O4       3.9116   1.6610   3.8446   O.co2     1 RES1   0.0000
    30 O5       2.2849   5.8402   2.1468   O.co2     1 RES1  -1.0000
    31 O6       2.2579   7.2804   4.2936   O.co2     1 RES1   0.0000
    32 C15      1.6103   7.8039   3.3174   C.2       1 RES1   0.0000
    33 C16      1.5245   6.8724   2.0756   C.2       1 RES1   0.0000
    34 O7       1.0811   8.8902   3.3284   O.co2     1 RES1   0.0000
    35 O8       0.7926   7.1565   1.1446   O.co2     1 RES1   0.0000
    36 As1      8.3641  -0.4542   2.8623   As        2 RES2   1.0000
    37 C17     10.1321  -1.1881   2.7506   C.ar      2 RES2   0.0000
    38 C18     11.0612  -0.9010   3.7049   C.ar      2 RES2   0.0000
    39 H9      10.8476  -0.3361   4.4114   H         2 RES2   0.0000
    40 C19     12.3207  -1.4505   3.6118   C.ar      2 RES2   0.0000
    41 H10     12.9475  -1.2646   4.2731   H         2 RES2   0.0000
    42 C20     12.6631  -2.2534   2.5836   C.ar      2 RES2   0.0000
    43 H11     13.5139  -2.6232   2.5357   H         2 RES2   0.0000
    44 C21     11.7485  -2.5081   1.6265   C.ar      2 RES2   0.0000
    45 H12     11.9801  -3.0553   0.9118   H         2 RES2   0.0000
    46 C22     10.4733  -1.9781   1.6854   C.ar      2 RES2   0.0000
    47 H13      9.8566  -2.1529   1.0104   H         2 RES2   0.0000
    48 C23      7.2786  -1.3803   1.5923   C.ar      2 RES2   0.0000
    49 C24      7.1276  -2.7545   1.6854   C.ar      2 RES2   0.0000
    50 H14      7.5133  -3.2245   2.3878   H         2 RES2   0.0000
    51 C25      6.3943  -3.4148   0.7202   C.ar      2 RES2   0.0000
    52 H15      6.2635  -4.3327   0.7818   H         2 RES2   0.0000
    53 C26      5.8587  -2.7158  -0.3300   C.ar      2 RES2   0.0000
    54 H16      5.3723  -3.1703  -0.9803   H         2 RES2   0.0000
    55 C27      6.0228  -1.3658  -0.4422   C.ar      2 RES2   0.0000
    56 H17      5.6585  -0.9063  -1.1638   H         2 RES2   0.0000
    57 C28      6.7340  -0.6940   0.5258   C.ar      2 RES2   0.0000
    58 H18      6.8481   0.2266   0.4600   H         2 RES2   0.0000
    59 C29      8.3944   1.4050   2.4056   C.ar      2 RES2   0.0000
    60 C30      7.2125   2.1260   2.4823   C.ar      2 RES2   0.0000
    61 H19      6.4233   1.7093   2.7438   H         2 RES2   0.0000
    62 C31      7.2196   3.4571   2.1701   C.ar      2 RES2   0.0000
    63 H20      6.4305   3.9468   2.2125   H         2 RES2   0.0000
    64 C32      8.3937   4.0784   1.7895   C.ar      2 RES2   0.0000
    65 H21      8.3929   4.9841   1.5814   H         2 RES2   0.0000
    66 C33      9.5681   3.3540   1.7196   C.ar      2 RES2   0.0000
    67 H22     10.3575   3.7767   1.4650   H         2 RES2   0.0000
    68 C34      9.5742   2.0144   2.0236   C.ar      2 RES2   0.0000
    69 H23     10.3631   1.5231   1.9729   H         2 RES2   0.0000
    70 C35      7.6857  -0.6208   4.6332   C.ar      2 RES2   0.0000
    71 C36      6.6077  -1.4272   4.9152   C.ar      2 RES2   0.0000
    72 H24      6.1767  -1.8984   4.2389   H         2 RES2   0.0000
    73 C37      6.1678  -1.5234   6.2583   C.ar      2 RES2   0.0000
    74 H25      5.4274  -2.0434   6.4719   H         2 RES2   0.0000
    75 C38      6.8352  -0.8539   7.2291   C.ar      2 RES2   0.0000
    76 H26      6.5349  -0.9097   8.1067   H         2 RES2   0.0000
    77 C39      7.9293  -0.1051   6.9511   C.ar      2 RES2   0.0000
    78 H27      8.3977   0.3105   7.6384   H         2 RES2   0.0000
    79 C40      8.3473   0.0361   5.6491   C.ar      2 RES2   0.0000
    80 H28      9.0782   0.5770   5.4519   H         2 RES2   0.0000
    81 O9       2.0783   0.2057   7.1757   O.3       3 RES3   0.0000
@<TRIPOS>BOND
     1     1     2    1
     2     2     4   ar
     3     3     1    1
     4     4     5    1
     5     6     4   ar
     6     7     6    1
     7     8     6   ar
     8     9     8    1
     9    10     8   ar
    10    11    10   ar
    11    12    11    1
    12    13    11   ar
    13    14    13    1
    14    15    13   ar
    15    16    15   ar
    16    17    16    1
    17    18    16   ar
    18    19    18    1
    19    20     3   ar
    20    21    20    1
    21    22     2   ar
    22    23     3   ar
    23    24     1    1
    24    25     1    1
    25    26    24    1
    26    27    25    1
    27    28    27    2
    28    29    26    2
    29    30     1    1
    30    31     1    1
    31    32    31    1
    32    33    30    1
    33    34    32    2
    34    35    33    2
    35    10    22   ar
    36    15    23   ar
    37    18    20   ar
    38    22    23   ar
    39    26    27    1
    40    32    33    1
    41    36    37    1
    42    37    38   ar
    43    38    39    1
    44    40    38   ar
    45    41    40    1
    46    42    40   ar
    47    43    42    1
    48    44    42   ar
    49    45    44    1
    50    46    37   ar
    51    47    46    1
    52    48    36    1
    53    49    48   ar
    54    50    49    1
    55    51    49   ar
    56    52    51    1
    57    53    51   ar
    58    54    53    1
    59    55    53   ar
    60    56    55    1
    61    57    48   ar
    62    58    57    1
    63    59    36    1
    64    60    59   ar
    65    61    60    1
    66    62    60   ar
    67    63    62    1
    68    64    62   ar
    69    65    64    1
    70    66    64   ar
    71    67    66    1
    72    68    59   ar
    73    69    68    1
    74    70    36    1
    75    71    70   ar
    76    72    71    1
    77    73    71   ar
    78    74    73    1
    79    75    73   ar
    80    76    75    1
    81    77    75   ar
    82    78    77    1
    83    79    70   ar
    84    80    79    1
    85    44    46   ar
    86    55    57   ar
    87    66    68   ar
    88    77    79   ar
@<TRIPOS>SUBSTRUCTURE
     1 RES1        1 GROUP             0 ****  ****    0  
     2 RES2       36 GROUP             0 ****  ****    0  
     3 RES3       81 GROUP             0 ****  ****    0  
@<TRIPOS>CRYSIN
    9.4991   14.2790   14.5570  103.5700   99.9400  105.7700     2     1
