@<TRIPOS>MOLECULE
FEKJIO01
    76    81     1     0     0
SMALL
NO_CHARGES
****
Generated from the CSD

@<TRIPOS>ATOM
     1 Fe1      8.3265   6.7696   7.1817   Fe        1 RES1   0.0000
     2 H1       8.1011   5.2822   6.9451   H         1 RES1   0.0000
     3 P1       6.0532   6.5577   7.3768   P.3       1 RES1   0.0000
     4 Si1     10.5984   6.5590   6.9840   Si        1 RES1   0.0000
     5 O1       8.5285   6.1581  10.0042   O.2       1 RES1   0.0000
     6 O2       8.3271   9.6905   7.1930   O.2       1 RES1   0.0000
     7 O3       8.1329   6.1117   4.3458   O.2       1 RES1   0.0000
     8 C1      11.2294   7.1334   5.3054   C.ar      1 RES1   0.0000
     9 C2      11.0282   8.4641   4.9567   C.ar      1 RES1   0.0000
    10 H2      10.5478   9.0396   5.5403   H         1 RES1   0.0000
    11 C3      11.5288   8.9518   3.7564   C.ar      1 RES1   0.0000
    12 H3      11.3898   9.8614   3.5187   H         1 RES1   0.0000
    13 C4      12.2316   8.1087   2.9025   C.ar      1 RES1   0.0000
    14 H4      12.5731   8.4429   2.0821   H         1 RES1   0.0000
    15 C5      12.4330   6.7790   3.2507   C.ar      1 RES1   0.0000
    16 H5      12.9144   6.2025   2.6671   H         1 RES1   0.0000
    17 C6      11.9318   6.2904   4.4524   C.ar      1 RES1   0.0000
    18 H6      12.0694   5.3817   4.6901   H         1 RES1   0.0000
    19 C7      11.0968   4.7820   7.1685   C.ar      1 RES1   0.0000
    20 C8      10.5415   3.8038   6.3601   C.ar      1 RES1   0.0000
    21 H7       9.9240   4.0674   5.6872   H         1 RES1   0.0000
    22 C9      10.8427   2.4557   6.4898   C.ar      1 RES1   0.0000
    23 H8      10.4539   1.8203   5.9019   H         1 RES1   0.0000
    24 C10     11.7014   2.0501   7.4639   C.ar      1 RES1   0.0000
    25 H9      11.8968   1.1260   7.5604   H         1 RES1   0.0000
    26 C11     12.3191   3.0100   8.3543   C.ar      1 RES1   0.0000
    27 H10     12.9160   2.7367   9.0416   H         1 RES1   0.0000
    28 C12     12.0041   4.3474   8.1584   C.ar      1 RES1   0.0000
    29 H11     12.4144   4.9973   8.7146   H         1 RES1   0.0000
    30 C13     11.6263   7.5448   8.1699   C.ar      1 RES1   0.0000
    31 C14     13.0156   7.5467   8.0085   C.ar      1 RES1   0.0000
    32 H12     13.4119   7.0484   7.3025   H         1 RES1   0.0000
    33 C15     13.8295   8.2874   8.8875   C.ar      1 RES1   0.0000
    34 H13     14.7716   8.3009   8.7722   H         1 RES1   0.0000
    35 C16     13.2530   8.9836   9.9047   C.ar      1 RES1   0.0000
    36 H14     13.8085   9.4607  10.5099   H         1 RES1   0.0000
    37 C17     11.8751   9.0174  10.0820   C.ar      1 RES1   0.0000
    38 H15     11.4851   9.5312  10.7794   H         1 RES1   0.0000
    39 C18     11.0835   8.2768   9.2102   C.ar      1 RES1   0.0000
    40 H16     10.1420   8.2739   9.3341   H         1 RES1   0.0000
    41 C19      8.4484   6.4024   8.9264   C.1       1 RES1   0.0000
    42 C20      8.3248   8.5751   7.2031   C.1       1 RES1   0.0000
    43 C21      8.1978   6.4063   5.4567   C.1       1 RES1   0.0000
    44 C22      5.5218   4.7820   7.1886   C.ar      1 RES1   0.0000
    45 C23      4.6604   4.3687   6.2002   C.ar      1 RES1   0.0000
    46 H17      4.2477   5.0022   5.6238   H         1 RES1   0.0000
    47 C24      4.3950   2.9907   6.0532   C.ar      1 RES1   0.0000
    48 H18      3.8054   2.7193   5.3601   H         1 RES1   0.0000
    49 C25      4.9170   2.0617   6.8227   C.ar      1 RES1   0.0000
    50 H19      4.6999   1.1453   6.6973   H         1 RES1   0.0000
    51 C26      5.8121   2.4654   7.8443   C.ar      1 RES1   0.0000
    52 H20      6.2055   1.8126   8.4120   H         1 RES1   0.0000
    53 C27      6.1221   3.8115   8.0258   C.ar      1 RES1   0.0000
    54 H21      6.7316   4.0751   8.7059   H         1 RES1   0.0000
    55 C28      5.0278   7.5274   6.1757   C.ar      1 RES1   0.0000
    56 C29      3.6282   7.5622   6.3342   C.ar      1 RES1   0.0000
    57 H22      3.2303   7.0784   7.0489   H         1 RES1   0.0000
    58 C30      2.8294   8.2719   5.4884   C.ar      1 RES1   0.0000
    59 H23      1.8862   8.2507   5.6008   H         1 RES1   0.0000
    60 C31      3.3975   9.0396   4.4437   C.ar      1 RES1   0.0000
    61 H24      2.8470   9.5524   3.8631   H         1 RES1   0.0000
    62 C32      4.7625   9.0252   4.2896   C.ar      1 RES1   0.0000
    63 H25      5.1535   9.5273   3.5850   H         1 RES1   0.0000
    64 C33      5.5850   8.2922   5.1397   C.ar      1 RES1   0.0000
    65 H26      6.5274   8.3096   5.0187   H         1 RES1   0.0000
    66 C34      5.3618   7.1228   8.9826   C.ar      1 RES1   0.0000
    67 C35      4.8166   6.2923   9.9465   C.ar      1 RES1   0.0000
    68 H27      4.7703   5.3575   9.7837   H         1 RES1   0.0000
    69 C36      4.3314   6.8031  11.1554   C.ar      1 RES1   0.0000
    70 H28      3.9822   6.2102  11.8096   H         1 RES1   0.0000
    71 C37      4.3566   8.1474  11.4047   C.ar      1 RES1   0.0000
    72 H29      4.0590   8.4873  12.2404   H         1 RES1   0.0000
    73 C38      4.8251   9.0116  10.4148   C.ar      1 RES1   0.0000
    74 H30      4.8091   9.9512  10.5560   H         1 RES1   0.0000
    75 C39      5.3144   8.4950   9.2232   C.ar      1 RES1   0.0000
    76 H31      5.6262   9.0927   8.5532   H         1 RES1   0.0000
@<TRIPOS>BOND
     1     1     2    1
     2     3     1    1
     3     4     1    1
     4     5    41    3
     5     6    42    3
     6     7    43    3
     7     8     4    1
     8     9     8   ar
     9    10     9    1
    10    11     9   ar
    11    12    11    1
    12    13    11   ar
    13    14    13    1
    14    15    13   ar
    15    16    15    1
    16    17     8   ar
    17    18    17    1
    18    19     4    1
    19    20    19   ar
    20    21    20    1
    21    22    20   ar
    22    23    22    1
    23    24    22   ar
    24    25    24    1
    25    26    24   ar
    26    27    26    1
    27    28    19   ar
    28    29    28    1
    29    30     4    1
    30    31    30   ar
    31    32    31    1
    32    33    31   ar
    33    34    33    1
    34    35    33   ar
    35    36    35    1
    36    37    35   ar
    37    38    37    1
    38    39    30   ar
    39    40    39    1
    40    41     1    1
    41    42     1    1
    42    43     1    1
    43    44     3    1
    44    45    44   ar
    45    46    45    1
    46    47    45   ar
    47    48    47    1
    48    49    47   ar
    49    50    49    1
    50    51    49   ar
    51    52    51    1
    52    53    44   ar
    53    54    53    1
    54    55     3    1
    55    56    55   ar
    56    57    56    1
    57    58    56   ar
    58    59    58    1
    59    60    58   ar
    60    61    60    1
    61    62    60   ar
    62    63    62    1
    63    64    55   ar
    64    65    64    1
    65    66     3    1
    66    67    66   ar
    67    68    67    1
    68    69    67   ar
    69    70    69    1
    70    71    69   ar
    71    72    71    1
    72    73    71   ar
    73    74    73    1
    74    75    66   ar
    75    76    75    1
    76    15    17   ar
    77    26    28   ar
    78    37    39   ar
    79    51    53   ar
    80    62    64   ar
    81    73    75   ar
@<TRIPOS>SUBSTRUCTURE
     1 RES1        1 GROUP             0 ****  ****    0  
@<TRIPOS>CRYSIN
   23.2778    9.6567   15.8551   90.0000  114.6610   90.0000     9     1
