@<TRIPOS>MOLECULE
FEKJOX
   220   236     4     0     0
SMALL
USER_CHARGES
****
Generated from the CSD

@<TRIPOS>ATOM
     1 Fe1      9.2669   2.9521   6.4215   Fe        1 RES1   2.0000
     2 N1       9.3392   3.7103   4.6677   N.ar      1 RES1   0.0000
     3 N2       8.7442   1.6665   3.9838   N.pl3     1 RES1   0.0000
     4 N3       8.3854   0.1051   5.3890   N.pl3     1 RES1   0.0000
     5 N4       9.9082   5.5883   5.7353   N.pl3     1 RES1   0.0000
     6 N5       9.9705   5.6438   7.8800   N.pl3     1 RES1   0.0000
     7 N6       9.2226   2.2347   8.1851   N.ar      1 RES1   0.0000
     8 N7      11.3953   1.8438   7.8694   N.pl3     1 RES1   0.0000
     9 N8      12.3535   2.3773   6.0390   N.pl3     1 RES1   0.0000
    10 N9       7.1057   2.9378   8.1949   N.pl3     1 RES1   0.0000
    11 N10      6.2623   3.9445   6.5115   N.pl3     1 RES1   0.0000
    12 C1       9.0558   2.9701   3.5937   C.ar      1 RES1   0.0000
    13 C2       9.0542   3.4797   2.3090   C.ar      1 RES1   0.0000
    14 H1       8.8488   2.9326   1.5608   H         1 RES1   0.0000
    15 C3       9.3638   4.8142   2.1564   C.ar      1 RES1   0.0000
    16 H2       9.3713   5.1962   1.2854   H         1 RES1   0.0000
    17 C4       9.6644   5.6046   3.2467   C.ar      1 RES1   0.0000
    18 H3       9.8766   6.5250   3.1452   H         1 RES1   0.0000
    19 C5       9.6465   5.0025   4.4927   C.ar      1 RES1   0.0000
    20 C6       8.3335   0.5719   3.2429   C.2       1 RES1   0.0000
    21 H4       8.2396   0.5252   2.2977   H         1 RES1   0.0000
    22 C7       8.0943  -0.4044   4.1224   C.2       1 RES1   0.0000
    23 H5       7.7847  -1.2799   3.9244   H         1 RES1   0.0000
    24 C8       8.7794   1.4014   5.3461   C.3       1 RES1   0.0000
    25 C9       8.1603  -0.6279   6.6456   C.3       1 RES1   0.0000
    26 H6       8.6881  -0.1814   7.3686   H         1 RES1   0.0000
    27 C10      6.6931  -0.5581   7.0178   C.3       1 RES1   0.0000
    28 H7       6.4210   0.3802   7.0979   H         1 RES1   0.0000
    29 H8       6.5515  -1.0127   7.8748   H         1 RES1   0.0000
    30 H9       6.1588  -0.9950   6.3234   H         1 RES1   0.0000
    31 C11      8.6367  -2.0682   6.5312   C.3       1 RES1   0.0000
    32 H10      9.5906  -2.0801   6.3045   H         1 RES1   0.0000
    33 H11      8.1286  -2.5247   5.8290   H         1 RES1   0.0000
    34 H12      8.4969  -2.5268   7.3851   H         1 RES1   0.0000
    35 C12     10.2285   6.8847   6.0759   C.2       1 RES1   0.0000
    36 H13     10.3869   7.6067   5.4806   H         1 RES1   0.0000
    37 C13     10.2719   6.9247   7.4143   C.2       1 RES1   0.0000
    38 H14     10.4696   7.6853   7.9478   H         1 RES1   0.0000
    39 C14      9.7402   4.7901   6.8535   C.3       1 RES1   0.0000
    40 C15      9.7529   5.3336   9.3052   C.3       1 RES1   0.0000
    41 H15      9.5743   4.3517   9.3791   H         1 RES1   0.0000
    42 C16      8.5381   6.0634   9.8247   C.3       1 RES1   0.0000
    43 H16      7.7540   5.8143   9.2920   H         1 RES1   0.0000
    44 H17      8.6842   7.0304   9.7581   H         1 RES1   0.0000
    45 H18      8.3860   5.8196  10.7610   H         1 RES1   0.0000
    46 C17     10.9801   5.6356  10.1181   C.3       1 RES1   0.0000
    47 H19     11.7398   5.1296   9.7628   H         1 RES1   0.0000
    48 H20     10.8242   5.3806  11.0506   H         1 RES1   0.0000
    49 H21     11.1747   6.5941  10.0712   H         1 RES1   0.0000
    50 C18     10.3394   1.7329   8.7536   C.ar      1 RES1   0.0000
    51 C19     10.3585   1.2571  10.0503   C.ar      1 RES1   0.0000
    52 H22     11.1531   0.9054  10.4338   H         1 RES1   0.0000
    53 C20      9.1813   1.3092  10.7676   C.ar      1 RES1   0.0000
    54 H23      9.1628   0.9680  11.6532   H         1 RES1   0.0000
    55 C21      8.0271   1.8503  10.2268   C.ar      1 RES1   0.0000
    56 H24      7.2206   1.9042  10.7257   H         1 RES1   0.0000
    57 C22      8.1073   2.3046   8.9287   C.ar      1 RES1   0.0000
    58 C23      5.8474   3.3245   8.5923   C.2       1 RES1   0.0000
    59 H25      5.4458   3.1860   9.4427   H         1 RES1   0.0000
    60 C24      5.3061   3.9387   7.5280   C.2       1 RES1   0.0000
    61 H26      4.4295   4.3039   7.4769   H         1 RES1   0.0000
    62 C25      7.4243   3.3412   6.9077   C.3       1 RES1   0.0000
    63 C26      5.9388   4.5443   5.2129   C.ar      1 RES1   0.0000
    64 C27      5.3952   3.7188   4.2161   C.ar      1 RES1   0.0000
    65 C28      4.9315   4.3377   3.0616   C.ar      1 RES1   0.0000
    66 H27      4.5572   3.8086   2.3660   H         1 RES1   0.0000
    67 C29      5.0077   5.7113   2.9065   C.ar      1 RES1   0.0000
    68 H28      4.6572   6.1205   2.1235   H         1 RES1   0.0000
    69 C30      5.5947   6.4874   3.8887   C.ar      1 RES1   0.0000
    70 H29      5.6773   7.4247   3.7502   H         1 RES1   0.0000
    71 C31      6.0670   5.9359   5.0688   C.ar      1 RES1   0.0000
    72 C32      5.2613   2.2048   4.3802   C.3       1 RES1   0.0000
    73 H30      6.0772   1.8756   4.8567   H         1 RES1   0.0000
    74 C33      5.1799   1.4819   3.0402   C.3       1 RES1   0.0000
    75 H31      5.1038   0.5177   3.1923   H         1 RES1   0.0000
    76 H32      5.9893   1.6672   2.5190   H         1 RES1   0.0000
    77 H33      4.3947   1.7978   2.5472   H         1 RES1   0.0000
    78 C34      4.0480   1.8153   5.2138   C.3       1 RES1   0.0000
    79 H34      4.0132   0.8393   5.3063   H         1 RES1   0.0000
    80 H35      3.2319   2.1308   4.7696   H         1 RES1   0.0000
    81 H36      4.1154   2.2245   6.1021   H         1 RES1   0.0000
    82 C35      6.6639   6.8266   6.1459   C.3       1 RES1   0.0000
    83 H37      7.3825   6.3081   6.6082   H         1 RES1   0.0000
    84 C36      5.6343   7.2309   7.1921   C.3       1 RES1   0.0000
    85 H38      5.2325   6.4263   7.5829   H         1 RES1   0.0000
    86 H39      4.9350   7.7740   6.7707   H         1 RES1   0.0000
    87 H40      6.0710   7.7522   7.8960   H         1 RES1   0.0000
    88 C37      7.2950   8.0983   5.5825   C.3       1 RES1   0.0000
    89 H41      7.9808   7.8592   4.9250   H         1 RES1   0.0000
    90 H42      7.7061   8.6092   6.3116   H         1 RES1   0.0000
    91 H43      6.6033   8.6421   5.1510   H         1 RES1   0.0000
    92 C38     12.7309   1.5231   8.0473   C.2       1 RES1   0.0000
    93 H44     13.1342   1.1393   8.8164   H         1 RES1   0.0000
    94 C39     13.3331   1.8690   6.9018   C.2       1 RES1   0.0000
    95 H45     14.2591   1.7855   6.7094   H         1 RES1   0.0000
    96 C40     11.1279   2.3969   6.6183   C.3       1 RES1   0.0000
    97 C41     12.6705   2.6178   4.6210   C.ar      1 RES1   0.0000
    98 C42     12.6385   1.4944   3.7672   C.ar      1 RES1   0.0000
    99 C43     13.0065   1.7171   2.4415   C.ar      1 RES1   0.0000
   100 H46     12.9898   0.9940   1.8245   H         1 RES1   0.0000
   101 C44     13.3964   2.9671   2.0074   C.ar      1 RES1   0.0000
   102 H47     13.6264   3.0954   1.0947   H         1 RES1   0.0000
   103 C45     13.4567   4.0262   2.8742   C.ar      1 RES1   0.0000
   104 H48     13.7459   4.8722   2.5543   H         1 RES1   0.0000
   105 C46     13.1038   3.8934   4.2126   C.ar      1 RES1   0.0000
   106 C47     12.3405   0.0989   4.2653   C.3       1 RES1   0.0000
   107 H49     11.7712   0.1729   5.0827   H         1 RES1   0.0000
   108 C48     11.6010  -0.7607   3.2398   C.3       1 RES1   0.0000
   109 H50     10.7504  -0.3329   3.0087   H         1 RES1   0.0000
   110 H51     11.4273  -1.6469   3.6207   H         1 RES1   0.0000
   111 H52     12.1507  -0.8529   2.4342   H         1 RES1   0.0000
   112 C49     13.6441  -0.6002   4.6500   C.3       1 RES1   0.0000
   113 H53     14.1184  -0.0605   5.3158   H         1 RES1   0.0000
   114 H54     14.2051  -0.7045   3.8538   H         1 RES1   0.0000
   115 H55     13.4423  -1.4817   5.0262   H         1 RES1   0.0000
   116 C50     13.2953   5.0399   5.1717   C.3       1 RES1   0.0000
   117 H56     12.6275   4.9451   5.9090   H         1 RES1   0.0000
   118 C51     14.6971   5.0066   5.7880   C.3       1 RES1   0.0000
   119 H57     14.8416   4.1385   6.2221   H         1 RES1   0.0000
   120 H58     14.7796   5.7207   6.4528   H         1 RES1   0.0000
   121 H59     15.3669   5.1351   5.0851   H         1 RES1   0.0000
   122 C52     13.0903   6.4071   4.5186   C.3       1 RES1   0.0000
   123 H60     12.1923   6.4523   4.1293   H         1 RES1   0.0000
   124 H61     13.7589   6.5357   3.8138   H         1 RES1   0.0000
   125 H62     13.1889   7.1104   5.1933   H         1 RES1   0.0000
   126 B1       2.8261   2.3681  11.7651   B         2 RES2  -1.0000
   127 C53      1.5974   2.5058  12.8541   C.ar      2 RES2   0.0000
   128 C54      1.5981   1.7781  14.0418   C.ar      2 RES2   0.0000
   129 H63      2.3486   1.2249  14.2311   H         2 RES2   0.0000
   130 C55      0.5553   1.8157  14.9712   C.ar      2 RES2   0.0000
   131 H64      0.6091   1.3101  15.7731   H         2 RES2   0.0000
   132 C56     -0.6254   3.2884  13.5496   C.ar      2 RES2   0.0000
   133 H65     -1.3981   3.8047  13.3530   H         2 RES2   0.0000
   134 C57     -0.5539   2.5955  14.7123   C.ar      2 RES2   0.0000
   135 H66     -1.2615   2.6476  15.3446   H         2 RES2   0.0000
   136 C58      0.4227   3.2447  12.6458   C.ar      2 RES2   0.0000
   137 H67      0.3432   3.7447  11.8416   H         2 RES2   0.0000
   138 C59      2.9618   3.7747  10.9340   C.ar      2 RES2   0.0000
   139 C60      2.0273   4.1183   9.9495   C.ar      2 RES2   0.0000
   140 H68      1.3648   3.4803   9.7134   H         2 RES2   0.0000
   141 C61      2.0193   5.3663   9.2908   C.ar      2 RES2   0.0000
   142 H69      1.3434   5.5555   8.6493   H         2 RES2   0.0000
   143 C62      2.9683   6.3001   9.5651   C.ar      2 RES2   0.0000
   144 H70      2.9526   7.1516   9.1413   H         2 RES2   0.0000
   145 C63      3.9454   5.9808  10.4660   C.ar      2 RES2   0.0000
   146 H71      4.6435   6.6018  10.6362   H         2 RES2   0.0000
   147 C64      3.9305   4.7443  11.1471   C.ar      2 RES2   0.0000
   148 H72      4.6164   4.5673  11.7804   H         2 RES2   0.0000
   149 C65      2.5036   1.1164  10.7422   C.ar      2 RES2   0.0000
   150 C66      1.6550   0.0618  11.0367   C.ar      2 RES2   0.0000
   151 H73      1.1571   0.0946  11.8463   H         2 RES2   0.0000
   152 C67      1.4925  -1.0457  10.2035   C.ar      2 RES2   0.0000
   153 H74      0.8933  -1.7408  10.4455   H         2 RES2   0.0000
   154 C68      2.2089  -1.1255   9.0248   C.ar      2 RES2   0.0000
   155 H75      2.1103  -1.8775   8.4515   H         2 RES2   0.0000
   156 C69      3.0667  -0.1027   8.6898   C.ar      2 RES2   0.0000
   157 H76      3.5788  -0.1521   7.8913   H         2 RES2   0.0000
   158 C70      3.1804   0.9907   9.5189   C.ar      2 RES2   0.0000
   159 H77      3.7509   1.6993   9.2473   H         2 RES2   0.0000
   160 C71      4.2153   2.0238  12.5683   C.ar      2 RES2   0.0000
   161 C72      5.0221   0.9404  12.3124   C.ar      2 RES2   0.0000
   162 H78      4.7560   0.3417  11.6250   H         2 RES2   0.0000
   163 C73      6.2029   0.6634  12.9951   C.ar      2 RES2   0.0000
   164 H79      6.6976  -0.1170  12.7762   H         2 RES2   0.0000
   165 C74      6.6542   1.4854  13.9597   C.ar      2 RES2   0.0000
   166 H80      7.4819   1.3174  14.3959   H         2 RES2   0.0000
   167 C75      5.8782   2.5860  14.3017   C.ar      2 RES2   0.0000
   168 H81      6.1606   3.1729  14.9938   H         2 RES2   0.0000
   169 C76      4.6849   2.8266  13.6242   C.ar      2 RES2   0.0000
   170 H82      4.1607   3.5722  13.8897   H         2 RES2   0.0000
   171 B2       3.4195  10.4286   1.9544   B         3 RES3  -1.0000
   172 C77      2.5760  11.6596   1.2270   C.ar      3 RES3   0.0000
   173 C78      1.2017  11.5752   0.9850   C.ar      3 RES3   0.0000
   174 H83      0.7618  10.7553   1.1771   H         3 RES3   0.0000
   175 C79      0.4417  12.6240   0.4791   C.ar      3 RES3   0.0000
   176 H84     -0.4918  12.5125   0.3390   H         3 RES3   0.0000
   177 C80      1.0460  13.8286   0.1822   C.ar      3 RES3   0.0000
   178 H85      0.5389  14.5487  -0.1719   H         3 RES3   0.0000
   179 C81      2.3992  13.9688   0.4087   C.ar      3 RES3   0.0000
   180 H86      2.8274  14.7933   0.2142   H         3 RES3   0.0000
   181 C82      3.1364  12.9096   0.9203   C.ar      3 RES3   0.0000
   182 H87      4.0654  13.0376   1.0712   H         3 RES3   0.0000
   183 C83      2.9512  10.4079   3.5303   C.ar      3 RES3   0.0000
   184 C84      2.5721  11.5614   4.2168   C.ar      3 RES3   0.0000
   185 H88      2.5517  12.3821   3.7385   H         3 RES3   0.0000
   186 C85      2.2202  11.5776   5.5677   C.ar      3 RES3   0.0000
   187 H89      1.9658  12.3890   5.9891   H         3 RES3   0.0000
   188 C86      2.2474  10.3992   6.2840   C.ar      3 RES3   0.0000
   189 H90      2.0124  10.3957   7.2038   H         3 RES3   0.0000
   190 C87      2.6128   9.2354   5.6637   C.ar      3 RES3   0.0000
   191 H91      2.6260   8.4213   6.1515   H         3 RES3   0.0000
   192 C88      2.9668   9.2466   4.3124   C.ar      3 RES3   0.0000
   193 H92      3.2292   8.4285   3.9056   H         3 RES3   0.0000
   194 C89      3.0419   8.9992   1.2138   C.ar      3 RES3   0.0000
   195 C90      1.8144   8.3521   1.4497   C.ar      3 RES3   0.0000
   196 H93      1.2209   8.7264   2.0905   H         3 RES3   0.0000
   197 C91      1.4268   7.1854   0.7870   C.ar      3 RES3   0.0000
   198 H94      0.5763   6.8030   0.9652   H         3 RES3   0.0000
   199 C92      2.2633   6.5940  -0.1149   C.ar      3 RES3   0.0000
   200 H95      2.0068   5.7960  -0.5627   H         3 RES3   0.0000
   201 C93      3.4929   7.1787  -0.3640   C.ar      3 RES3   0.0000
   202 H96      4.0904   6.7757  -0.9841   H         3 RES3   0.0000
   203 C94      3.8585   8.3519   0.2877   C.ar      3 RES3   0.0000
   204 H97      4.7073   8.7298   0.0918   H         3 RES3   0.0000
   205 C95      5.0248  10.6786   1.8600   C.ar      3 RES3   0.0000
   206 C96      5.9050  10.5150   2.9519   C.ar      3 RES3   0.0000
   207 H98      5.5398  10.2761   3.7950   H         3 RES3   0.0000
   208 C97      7.2648  10.6861   2.8514   C.ar      3 RES3   0.0000
   209 H99      7.8146  10.5391   3.6137   H         3 RES3   0.0000
   210 C98      7.8427  11.0655   1.6581   C.ar      3 RES3   0.0000
   211 H100     8.7813  11.2039   1.5938   H         3 RES3   0.0000
   212 C99      7.0296  11.2367   0.5603   C.ar      3 RES3   0.0000
   213 H101     7.4088  11.4852  -0.2754   H         3 RES3   0.0000
   214 C100     5.6676  11.0509   0.6653   C.ar      3 RES3   0.0000
   215 H102     5.1351  11.1801  -0.1106   H         3 RES3   0.0000
   216 C101    11.8731  10.1073   3.8402   C.3       4 RES4   0.0000
   217 H103    12.1073  11.0005   3.4818   H         4 RES4   0.0000
   218 H104    12.7143   9.6307   4.0469   H         4 RES4   0.0000
   219 Cl1     10.9847   9.2146   2.6299   Cl        4 RES4   0.0000
   220 Cl2     10.9344  10.2987   5.3129   Cl        4 RES4   0.0000
@<TRIPOS>BOND
     1     1     2    1
     2     2    12   ar
     3     3    12    1
     4     4    22    1
     5     5    19    1
     6     6    37    1
     7     7     1    1
     8     8    50    1
     9     9    94    1
    10    10    57    1
    11    11    60    1
    12    12    13   ar
    13    13    14    1
    14    15    13   ar
    15    16    15    1
    16    17    15   ar
    17    18    17    1
    18    19     2   ar
    19    20     3    1
    20    21    20    1
    21    22    20    2
    22    23    22    1
    23    24     1    1
    24    25     4    1
    25    26    25    1
    26    27    25    1
    27    28    27    1
    28    29    27    1
    29    30    27    1
    30    31    25    1
    31    32    31    1
    32    33    31    1
    33    34    31    1
    34    35     5    1
    35    36    35    1
    36    37    35    2
    37    38    37    1
    38    39     1    1
    39    40     6    1
    40    41    40    1
    41    42    40    1
    42    43    42    1
    43    44    42    1
    44    45    42    1
    45    46    40    1
    46    47    46    1
    47    48    46    1
    48    49    46    1
    49    50     7   ar
    50    51    50   ar
    51    52    51    1
    52    53    51   ar
    53    54    53    1
    54    55    53   ar
    55    56    55    1
    56    57     7   ar
    57    58    10    1
    58    59    58    1
    59    60    58    2
    60    61    60    1
    61    62     1    1
    62    63    11    1
    63    64    63   ar
    64    65    64   ar
    65    66    65    1
    66    67    65   ar
    67    68    67    1
    68    69    67   ar
    69    70    69    1
    70    71    63   ar
    71    72    64    1
    72    73    72    1
    73    74    72    1
    74    75    74    1
    75    76    74    1
    76    77    74    1
    77    78    72    1
    78    79    78    1
    79    80    78    1
    80    81    78    1
    81    82    71    1
    82    83    82    1
    83    84    82    1
    84    85    84    1
    85    86    84    1
    86    87    84    1
    87    88    82    1
    88    89    88    1
    89    90    88    1
    90    91    88    1
    91    92     8    1
    92    93    92    1
    93    94    92    2
    94    95    94    1
    95    96     1    1
    96    97     9    1
    97    98    97   ar
    98    99    98   ar
    99   100    99    1
   100   101    99   ar
   101   102   101    1
   102   103   101   ar
   103   104   103    1
   104   105    97   ar
   105   106    98    1
   106   107   106    1
   107   108   106    1
   108   109   108    1
   109   110   108    1
   110   111   108    1
   111   112   106    1
   112   113   112    1
   113   114   112    1
   114   115   112    1
   115   116   105    1
   116   117   116    1
   117   118   116    1
   118   119   118    1
   119   120   118    1
   120   121   118    1
   121   122   116    1
   122   123   122    1
   123   124   122    1
   124   125   122    1
   125     3    24    1
   126     4    24    1
   127     5    39    1
   128     6    39    1
   129     8    96    1
   130     9    96    1
   131    10    62    1
   132    11    62    1
   133    17    19   ar
   134    55    57   ar
   135    69    71   ar
   136   103   105   ar
   137   126   127    1
   138   127   128   ar
   139   128   129    1
   140   130   128   ar
   141   131   130    1
   142   132   133    1
   143   134   130   ar
   144   135   134    1
   145   136   127   ar
   146   137   136    1
   147   138   126    1
   148   139   138   ar
   149   140   139    1
   150   141   139   ar
   151   142   141    1
   152   143   141   ar
   153   144   143    1
   154   145   143   ar
   155   146   145    1
   156   147   138   ar
   157   148   147    1
   158   149   126    1
   159   150   149   ar
   160   151   150    1
   161   152   150   ar
   162   153   152    1
   163   154   152   ar
   164   155   154    1
   165   156   154   ar
   166   157   156    1
   167   158   149   ar
   168   159   158    1
   169   160   126    1
   170   161   160   ar
   171   162   161    1
   172   163   161   ar
   173   164   163    1
   174   165   163   ar
   175   166   165    1
   176   167   165   ar
   177   168   167    1
   178   169   160   ar
   179   170   169    1
   180   132   134   ar
   181   132   136   ar
   182   145   147   ar
   183   156   158   ar
   184   167   169   ar
   185   171   172    1
   186   172   173   ar
   187   173   174    1
   188   175   173   ar
   189   176   175    1
   190   177   175   ar
   191   178   177    1
   192   179   177   ar
   193   180   179    1
   194   181   172   ar
   195   182   181    1
   196   183   171    1
   197   184   183   ar
   198   185   184    1
   199   186   184   ar
   200   187   186    1
   201   188   186   ar
   202   189   188    1
   203   190   188   ar
   204   191   190    1
   205   192   183   ar
   206   193   192    1
   207   194   171    1
   208   195   194   ar
   209   196   195    1
   210   197   195   ar
   211   198   197    1
   212   199   197   ar
   213   200   199    1
   214   201   199   ar
   215   202   201    1
   216   203   194   ar
   217   204   203    1
   218   205   171    1
   219   206   205   ar
   220   207   206    1
   221   208   206   ar
   222   209   208    1
   223   210   208   ar
   224   211   210    1
   225   212   210   ar
   226   213   212    1
   227   214   205   ar
   228   215   214    1
   229   179   181   ar
   230   190   192   ar
   231   201   203   ar
   232   212   214   ar
   233   216   217    1
   234   218   216    1
   235   219   216    1
   236   220   216    1
@<TRIPOS>SUBSTRUCTURE
     1 RES1        1 GROUP             0 ****  ****    0  
     2 RES2      126 GROUP             0 ****  ****    0  
     3 RES3      171 GROUP             0 ****  ****    0  
     4 RES4      216 GROUP             0 ****  ****    0  
@<TRIPOS>CRYSIN
   12.5880   14.4960   23.5970   93.8210   90.4310   96.2900     2     1
