@<TRIPOS>MOLECULE
FEKJIO
    45    50     1     0     0
SMALL
NO_CHARGES
****
Generated from the CSD

@<TRIPOS>ATOM
     1 Fe1      6.9425   3.1121   1.8070   Fe        1 RES1   0.0000
     2 P1       4.7770   3.4446   2.4065   P.3       1 RES1   0.0000
     3 Si1      9.1854   3.2560   1.1469   Si        1 RES1   0.0000
     4 O1       6.1894   3.3117  -0.9638   O.2       1 RES1   0.0000
     5 O2       6.8921   0.1790   1.9661   O.2       1 RES1   0.0000
     6 O3       7.9100   4.0915   4.3658   O.2       1 RES1   0.0000
     7 C1       6.4859   3.2308   0.1446   C.1       1 RES1   0.0000
     8 C2       6.9644   1.3286   2.0528   C.1       1 RES1   0.0000
     9 C3       7.4681   3.6398   3.4020   C.1       1 RES1   0.0000
    10 C4       4.4709   5.2305   3.0647   C.ar      1 RES1   0.0000
    11 C5       3.7726   5.2638   4.3176   C.ar      1 RES1   0.0000
    12 C6       3.6492   6.7182   4.7706   C.ar      1 RES1   0.0000
    13 C7       3.9301   7.6932   3.9899   C.ar      1 RES1   0.0000
    14 C8       4.5952   7.5935   2.7274   C.ar      1 RES1   0.0000
    15 C9       4.8760   6.2406   2.2552   C.ar      1 RES1   0.0000
    16 C10      4.1345   2.2095   3.7586   C.ar      1 RES1   0.0000
    17 C11      5.0378   1.5405   4.5296   C.ar      1 RES1   0.0000
    18 C12      4.4458   0.7022   5.4741   C.ar      1 RES1   0.0000
    19 C13      3.0713   0.6472   5.6861   C.ar      1 RES1   0.0000
    20 C14      2.2004   1.2962   4.8862   C.ar      1 RES1   0.0000
    21 C15      2.7125   2.2184   3.8839   C.ar      1 RES1   0.0000
    22 C16      3.5777   3.3027   1.0890   C.ar      1 RES1   0.0000
    23 C17      3.4451   2.0023   0.4144   C.ar      1 RES1   0.0000
    24 C18      2.5946   1.8815  -0.6072   C.ar      1 RES1   0.0000
    25 C19      1.8816   2.8615  -1.1951   C.ar      1 RES1   0.0000
    26 C20      2.0776   4.1807  -0.6457   C.ar      1 RES1   0.0000
    27 C21      2.8623   4.2828   0.5012   C.ar      1 RES1   0.0000
    28 C22     10.2527   1.9429   1.9179   C.ar      1 RES1   0.0000
    29 C23      9.9933   1.3041   3.1033   C.ar      1 RES1   0.0000
    30 C24     10.8916   0.3541   3.6815   C.ar      1 RES1   0.0000
    31 C25     12.0854   0.0115   2.9298   C.ar      1 RES1   0.0000
    32 C26     12.1311   0.6427   1.7733   C.ar      1 RES1   0.0000
    33 C27     11.4843   1.5802   1.2432   C.ar      1 RES1   0.0000
    34 C28      9.3754   2.9295  -0.7132   C.ar      1 RES1   0.0000
    35 C29      9.0535   1.6116  -1.2143   C.ar      1 RES1   0.0000
    36 C30      9.1747   1.4455  -2.5925   C.ar      1 RES1   0.0000
    37 C31      9.3928   2.4279  -3.5081   C.ar      1 RES1   0.0000
    38 C32      9.6465   3.7557  -3.0455   C.ar      1 RES1   0.0000
    39 C33      9.6504   3.9884  -1.5516   C.ar      1 RES1   0.0000
    40 C34     10.0306   4.9138   1.4167   C.ar      1 RES1   0.0000
    41 C35     11.3974   4.9853   1.4071   C.ar      1 RES1   0.0000
    42 C36     12.2331   6.1701   1.6769   C.ar      1 RES1   0.0000
    43 C37     11.4605   7.3587   1.8793   C.ar      1 RES1   0.0000
    44 C38     10.0662   7.2822   1.9082   C.ar      1 RES1   0.0000
    45 C39      9.3133   6.1213   1.8119   C.ar      1 RES1   0.0000
@<TRIPOS>BOND
     1     1     2    1
     2     2    10    1
     3     3     1    1
     4     4     7    3
     5     5     8    3
     6     6     9    3
     7     7     1    1
     8     8     1    1
     9     9     1    1
    10    10    11   ar
    11    11    12   ar
    12    12    13   ar
    13    13    14   ar
    14    14    15   ar
    15    15    10   ar
    16    16     2    1
    17    17    16   ar
    18    18    17   ar
    19    19    18   ar
    20    20    19   ar
    21    21    16   ar
    22    22     2    1
    23    23    22   ar
    24    24    23   ar
    25    25    24   ar
    26    26    25   ar
    27    27    22   ar
    28    28     3    1
    29    29    28   ar
    30    30    29   ar
    31    31    30   ar
    32    32    31   ar
    33    33    28   ar
    34    34     3    1
    35    35    34   ar
    36    36    35   ar
    37    37    36   ar
    38    38    37   ar
    39    39    34   ar
    40    40     3    1
    41    41    40   ar
    42    42    41   ar
    43    43    42   ar
    44    44    43   ar
    45    45    40   ar
    46    20    21   ar
    47    26    27   ar
    48    32    33   ar
    49    38    39   ar
    50    44    45   ar
@<TRIPOS>SUBSTRUCTURE
     1 RES1        1 GROUP             0 ****  ****    0  
@<TRIPOS>CRYSIN
   12.3200   14.5000   10.0600  106.3000   98.2000   72.0000     2     1
