@<TRIPOS>MOLECULE
FEKLUC
    95    94     3     0     0
SMALL
USER_CHARGES
****
Generated from the CSD

@<TRIPOS>ATOM
     1 Fe1      4.3163   3.7145   0.0000   Fe        1 RES1   2.0000
     2 P1       3.9879   3.6352  -2.2484   P.3       1 RES1   0.0000
     3 P2       3.8909   5.9494   0.1896   P.3       1 RES1   0.0000
     4 C1       3.5743   1.9003  -2.6414   C.3       1 RES1   0.0000
     5 H1       2.6607   1.7131  -2.3754   H         1 RES1   0.0000
     6 H2       3.6470   1.7562  -3.5988   H         1 RES1   0.0000
     7 C2       4.1372   6.4424   1.9311   C.3       1 RES1   0.0000
     8 H3       4.4963   7.3428   1.9594   H         1 RES1   0.0000
     9 H4       3.2797   6.4484   2.3848   H         1 RES1   0.0000
    10 C3       2.5703   4.5406  -2.9736   C.3       1 RES1   0.0000
    11 H5       1.8789   4.6000  -2.2943   H         1 RES1   0.0000
    12 H6       2.8630   5.4455  -3.1626   H         1 RES1   0.0000
    13 C4       1.9352   3.9968  -4.2227   C.3       1 RES1   0.0000
    14 H7       1.2104   4.5673  -4.4887   H         1 RES1   0.0000
    15 H8       1.6006   3.1128  -4.0539   H         1 RES1   0.0000
    16 H9       2.5883   3.9611  -4.9249   H         1 RES1   0.0000
    17 C5       5.4152   4.0622  -3.2855   C.3       1 RES1   0.0000
    18 H10      5.5537   5.0190  -3.2045   H         1 RES1   0.0000
    19 H11      6.1931   3.6313  -2.8966   H         1 RES1   0.0000
    20 C6       5.4166   3.7442  -4.7264   C.3       1 RES1   0.0000
    21 H12      6.2411   4.0369  -5.1194   H         1 RES1   0.0000
    22 H13      4.6824   4.1914  -5.1531   H         1 RES1   0.0000
    23 H14      5.3252   2.7948  -4.8439   H         1 RES1   0.0000
    24 C7       2.1993   6.5658  -0.1121   C.3       1 RES1   0.0000
    25 H15      2.0249   6.5182  -1.0655   H         1 RES1   0.0000
    26 H16      1.5757   5.9685   0.3281   H         1 RES1   0.0000
    27 C8       1.9175   7.9906   0.3579   C.3       1 RES1   0.0000
    28 H17      1.0076   8.2194   0.1553   H         1 RES1   0.0000
    29 H18      2.5088   8.5998  -0.0905   H         1 RES1   0.0000
    30 H19      2.0578   8.0486   1.3058   H         1 RES1   0.0000
    31 C9       4.8949   7.0635  -0.8724   C.3       1 RES1   0.0000
    32 H20      5.3400   6.5093  -1.5327   H         1 RES1   0.0000
    33 H21      4.2763   7.6355  -1.3558   H         1 RES1   0.0000
    34 C10      5.8739   7.8985  -0.2957   C.3       1 RES1   0.0000
    35 H22      6.3018   8.4126  -0.9844   H         1 RES1   0.0000
    36 H23      6.5273   7.3607   0.1553   H         1 RES1   0.0000
    37 H24      5.4566   8.4928   0.3335   H         1 RES1   0.0000
    38 N1       2.4779   3.3222   0.2390   N.1       1 RES1   0.0000
    39 C11      1.3877   3.0667   0.4119   C.1       1 RES1   0.0000
    40 C12     -0.0076   2.7368   0.6482   C.3       1 RES1   0.0000
    41 H25     -0.4076   2.4382  -0.1715   H         1 RES1   0.0000
    42 H26     -0.4703   3.5139   0.9669   H         1 RES1   0.0000
    43 H27     -0.0640   2.0385   1.3045   H         1 RES1   0.0000
    44 C2E      4.4953   0.9866  -1.9311   C.3       1 RES1   0.0000
    45 P2E      4.7416   1.4796  -0.1896   P.3       1 RES1   0.0000
    46 P1E      4.6446   3.7938   2.2484   P.3       1 RES1   0.0000
    47 C1E      5.0582   5.5287   2.6414   C.3       1 RES1   0.0000
    48 H1E      5.9718   5.7159   2.3754   H         1 RES1   0.0000
    49 H2E      4.9855   5.6728   3.5988   H         1 RES1   0.0000
    50 N1E      6.1546   4.1068  -0.2390   N.1       1 RES1   0.0000
    51 C11E     7.2448   4.3623  -0.4119   C.1       1 RES1   0.0000
    52 C12E     8.6401   4.6922  -0.6482   C.3       1 RES1   0.0000
    53 H25E     9.0401   4.9908   0.1715   H         1 RES1   0.0000
    54 H26E     9.1028   3.9151  -0.9669   H         1 RES1   0.0000
    55 H27E     8.6965   5.3905  -1.3045   H         1 RES1   0.0000
    56 C3E      6.0622   2.8884   2.9736   C.3       1 RES1   0.0000
    57 H5E      6.7536   2.8290   2.2943   H         1 RES1   0.0000
    58 H6E      5.7695   1.9835   3.1626   H         1 RES1   0.0000
    59 C4E      6.6973   3.4322   4.2227   C.3       1 RES1   0.0000
    60 H7E      7.4221   2.8617   4.4887   H         1 RES1   0.0000
    61 H8E      7.0319   4.3162   4.0539   H         1 RES1   0.0000
    62 H9E      6.0442   3.4679   4.9249   H         1 RES1   0.0000
    63 C5E      3.2173   3.3668   3.2855   C.3       1 RES1   0.0000
    64 H10E     3.0788   2.4100   3.2045   H         1 RES1   0.0000
    65 H11E     2.4394   3.7977   2.8966   H         1 RES1   0.0000
    66 C6E      3.2159   3.6848   4.7264   C.3       1 RES1   0.0000
    67 H12E     2.3914   3.3921   5.1194   H         1 RES1   0.0000
    68 H13E     3.9501   3.2376   5.1531   H         1 RES1   0.0000
    69 H14E     3.3073   4.6342   4.8439   H         1 RES1   0.0000
    70 C7E      6.4332   0.8632   0.1121   C.3       1 RES1   0.0000
    71 H15E     6.6076   0.9108   1.0655   H         1 RES1   0.0000
    72 H16E     7.0568   1.4605  -0.3281   H         1 RES1   0.0000
    73 C8E      6.7150  -0.5616  -0.3579   C.3       1 RES1   0.0000
    74 H17E     7.6249  -0.7904  -0.1553   H         1 RES1   0.0000
    75 H18E     6.1237  -1.1708   0.0905   H         1 RES1   0.0000
    76 H19E     6.5747  -0.6196  -1.3058   H         1 RES1   0.0000
    77 C9E      3.7376   0.3655   0.8724   C.3       1 RES1   0.0000
    78 H20E     3.2925   0.9197   1.5327   H         1 RES1   0.0000
    79 H21E     4.3562  -0.2065   1.3558   H         1 RES1   0.0000
    80 C10E     2.7586  -0.4695   0.2957   C.3       1 RES1   0.0000
    81 H22E     2.3307  -0.9836   0.9844   H         1 RES1   0.0000
    82 H23E     2.1052   0.0683  -0.1553   H         1 RES1   0.0000
    83 H24E     3.1759  -1.0638  -0.3335   H         1 RES1   0.0000
    84 H3E      4.1362   0.0862  -1.9594   H         1 RES1   0.0000
    85 H4E      5.3528   0.9806  -2.3848   H         1 RES1   0.0000
    86 B1      -0.2014  -0.0787   3.3760   B         2 RES2  -1.0000
    87 F1       0.9134   0.6894   3.3841   F         2 RES2   0.0000
    88 F2      -0.2309  -0.8722   2.2795   F         2 RES2   0.0000
    89 F1F     -1.3162   0.6894   3.3679   F         2 RES2   0.0000
    90 F2F     -0.1719  -0.8722   4.4725   F         2 RES2   0.0000
    91 B2       8.0283   1.3224  10.1280   B         3 RES3  -1.0000
    92 F3       7.0008   0.5646   9.8417   F         3 RES3   0.0000
    93 F4       7.6754   1.9925  11.1813   F         3 RES3   0.0000
    94 F3F      9.0558   0.5646  10.4143   F         3 RES3   0.0000
    95 F4F      8.3812   1.9925   9.0747   F         3 RES3   0.0000
@<TRIPOS>BOND
     1     1     2    1
     2     2     4    1
     3     3     1    1
     4     4     5    1
     5     6     4    1
     6     7     3    1
     7     8     7    1
     8     9     7    1
     9    10     2    1
    10    11    10    1
    11    12    10    1
    12    13    10    1
    13    14    13    1
    14    15    13    1
    15    16    13    1
    16    17     2    1
    17    18    17    1
    18    19    17    1
    19    20    17    1
    20    21    20    1
    21    22    20    1
    22    23    20    1
    23    24     3    1
    24    25    24    1
    25    26    24    1
    26    27    24    1
    27    28    27    1
    28    29    27    1
    29    30    27    1
    30    31     3    1
    31    32    31    1
    32    33    31    1
    33    34    31    1
    34    35    34    1
    35    36    34    1
    36    37    34    1
    37    38     1    1
    38    39    38    3
    39    40    39    1
    40    41    40    1
    41    42    40    1
    42    43    40    1
    43    44     4    1
    44    45     1    1
    45    46     1    1
    46    47     7    1
    47    48    47    1
    48    49    47    1
    49    50     1    1
    50    51    50    3
    51    52    51    1
    52    53    52    1
    53    54    52    1
    54    55    52    1
    55    56    46    1
    56    57    56    1
    57    58    56    1
    58    59    56    1
    59    60    59    1
    60    61    59    1
    61    62    59    1
    62    63    46    1
    63    64    63    1
    64    65    63    1
    65    66    63    1
    66    67    66    1
    67    68    66    1
    68    69    66    1
    69    70    45    1
    70    71    70    1
    71    72    70    1
    72    73    70    1
    73    74    73    1
    74    75    73    1
    75    76    73    1
    76    77    45    1
    77    78    77    1
    78    79    77    1
    79    80    77    1
    80    81    80    1
    81    82    80    1
    82    83    80    1
    83    84    44    1
    84    85    44    1
    85    44    45    1
    86    46    47    1
    87    86    87    1
    88    88    86    1
    89    89    86    1
    90    90    86    1
    91    91    92    1
    92    93    91    1
    93    94    91    1
    94    95    91    1
@<TRIPOS>SUBSTRUCTURE
     1 RES1        1 GROUP             0 ****  ****    0  
     2 RES2       86 GROUP             0 ****  ****    0  
     3 RES3       91 GROUP             0 ****  ****    0  
@<TRIPOS>CRYSIN
   17.2650   14.8580   13.5280   90.0000   93.4140   90.0000    15     1
