@<TRIPOS>MOLECULE
FEKPUG
   166   178     2     0     0
SMALL
USER_CHARGES
****
Generated from the CSD

@<TRIPOS>ATOM
     1 Fe1      0.8559  14.0654   3.4397   Fe        1 RES1   1.0000
     2 H1       1.8639  14.0572   2.5168   H         1 RES1   0.0000
     3 P1      -0.7745  13.9422   4.8331   P.3       1 RES1   0.0000
     4 P2       1.8551  12.0869   3.9985   P.3       1 RES1   0.0000
     5 P3       2.2768  14.9729   4.9653   P.3       1 RES1   0.0000
     6 P4       0.3736  16.0826   2.5047   P.3       1 RES1   0.0000
     7 P5      -0.4102  13.2439   1.7479   P.3       1 RES1   0.0000
     8 C1      -1.9516  13.8328   5.7745   C.1       1 RES1   0.0000
     9 C2      -3.0593  13.7224   6.7522   C.3       1 RES1   0.0000
    10 C3      -4.3279  13.2486   6.0282   C.3       1 RES1   0.0000
    11 H2      -5.0479  13.1755   6.6574   H         1 RES1   0.0000
    12 H3      -4.1656  12.3918   5.6257   H         1 RES1   0.0000
    13 H4      -4.5615  13.8827   5.3449   H         1 RES1   0.0000
    14 C4      -2.6875  12.6964   7.8042   C.3       1 RES1   0.0000
    15 H5      -3.4013  12.6198   8.4436   H         1 RES1   0.0000
    16 H6      -1.8851  12.9743   8.2541   H         1 RES1   0.0000
    17 H7      -2.5404  11.8450   7.3848   H         1 RES1   0.0000
    18 C5      -3.3182  15.0565   7.4084   C.3       1 RES1   0.0000
    19 H8      -4.0360  14.9692   8.0376   H         1 RES1   0.0000
    20 H9      -3.5567  15.6995   6.7352   H         1 RES1   0.0000
    21 H10     -2.5253  15.3486   7.8617   H         1 RES1   0.0000
    22 C6       3.3386  12.5165   4.9829   C.3       1 RES1   0.0000
    23 H11      3.6563  11.7363   5.4633   H         1 RES1   0.0000
    24 H12      4.0473  12.8264   4.3977   H         1 RES1   0.0000
    25 C7       2.9638  13.5959   5.9521   C.3       1 RES1   0.0000
    26 H13      3.7447  13.8916   6.4464   H         1 RES1   0.0000
    27 H14      2.3039  13.2699   6.5834   H         1 RES1   0.0000
    28 C8       1.0076  10.8582   5.0607   C.ar      1 RES1   0.0000
    29 C9       1.7349  10.0086   5.9065   C.ar      1 RES1   0.0000
    30 H15      2.6587  10.0905   5.9572   H         1 RES1   0.0000
    31 C10      1.1049   9.0681   6.6541   C.ar      1 RES1   0.0000
    32 H16      1.6052   8.5230   7.2190   H         1 RES1   0.0000
    33 C11     -0.2564   8.9042   6.6033   C.ar      1 RES1   0.0000
    34 H17     -0.6782   8.2648   7.1277   H         1 RES1   0.0000
    35 C12     -0.9853   9.7075   5.7542   C.ar      1 RES1   0.0000
    36 H18     -1.9044   9.5882   5.6798   H         1 RES1   0.0000
    37 C13     -0.3664  10.6801   5.0201   C.ar      1 RES1   0.0000
    38 H19     -0.8794  11.2358   4.4789   H         1 RES1   0.0000
    39 C14      2.5984  10.9864   2.7421   C.ar      1 RES1   0.0000
    40 C15      3.7280  11.3801   2.0399   C.ar      1 RES1   0.0000
    41 H20      4.0801  12.2279   2.1853   H         1 RES1   0.0000
    42 C16      4.3358  10.5500   1.1333   C.ar      1 RES1   0.0000
    43 H21      5.1012  10.8315   0.6867   H         1 RES1   0.0000
    44 C17      3.8178   9.3086   0.8897   C.ar      1 RES1   0.0000
    45 H22      4.2253   8.7457   0.2706   H         1 RES1   0.0000
    46 C18      2.6916   8.8971   1.5629   C.ar      1 RES1   0.0000
    47 H23      2.3292   8.0581   1.3904   H         1 RES1   0.0000
    48 C19      2.0914   9.7200   2.4999   C.ar      1 RES1   0.0000
    49 H24      1.3452   9.4225   2.9668   H         1 RES1   0.0000
    50 C20      1.6668  16.0949   6.2498   C.ar      1 RES1   0.0000
    51 C21      1.0682  15.5962   7.3915   C.ar      1 RES1   0.0000
    52 H25      1.0073  14.6771   7.5099   H         1 RES1   0.0000
    53 C22      0.5605  16.4334   8.3522   C.ar      1 RES1   0.0000
    54 H26      0.1735  16.0753   9.1202   H         1 RES1   0.0000
    55 C23      0.6194  17.7942   8.1899   C.ar      1 RES1   0.0000
    56 H27      0.2620  18.3570   8.8394   H         1 RES1   0.0000
    57 C24      1.2056  18.3143   7.0769   C.ar      1 RES1   0.0000
    58 H28      1.2600  19.2370   6.9720   H         1 RES1   0.0000
    59 C25      1.7172  17.4825   6.1060   C.ar      1 RES1   0.0000
    60 H29      2.1020  17.8512   5.3449   H         1 RES1   0.0000
    61 C26      3.8402  15.7440   4.3842   C.ar      1 RES1   0.0000
    62 C27      4.5779  16.5990   5.2130   C.ar      1 RES1   0.0000
    63 H30      4.2480  16.8234   6.0519   H         1 RES1   0.0000
    64 C28      5.7804  17.1102   4.7969   C.ar      1 RES1   0.0000
    65 H31      6.2505  17.6873   5.3550   H         1 RES1   0.0000
    66 C29      6.3013  16.7842   3.5723   C.ar      1 RES1   0.0000
    67 H32      7.1102  17.1458   3.2915   H         1 RES1   0.0000
    68 C30      5.6051  15.9115   2.7638   C.ar      1 RES1   0.0000
    69 H33      5.9649  15.6478   1.9485   H         1 RES1   0.0000
    70 C31      4.3785  15.4270   3.1630   C.ar      1 RES1   0.0000
    71 H34      3.9016  14.8712   2.5913   H         1 RES1   0.0000
    72 C32     -0.6386  15.7850   0.9895   C.3       1 RES1   0.0000
    73 H35     -1.1724  16.5669   0.7831   H         1 RES1   0.0000
    74 H36     -0.0620  15.5980   0.2324   H         1 RES1   0.0000
    75 C33     -1.5362  14.6005   1.2652   C.3       1 RES1   0.0000
    76 H37     -2.0414  14.3600   0.4736   H         1 RES1   0.0000
    77 H38     -2.1581  14.8018   1.9823   H         1 RES1   0.0000
    78 C34      1.7508  17.0746   1.8142   C.ar      1 RES1   0.0000
    79 C35      2.4576  16.5901   0.7104   C.ar      1 RES1   0.0000
    80 H39      2.2287  15.7654   0.3484   H         1 RES1   0.0000
    81 C36      3.4842  17.3133   0.1522   C.ar      1 RES1   0.0000
    82 H40      3.9301  16.9891  -0.5988   H         1 RES1   0.0000
    83 C37      3.8485  18.5138   0.7002   C.ar      1 RES1   0.0000
    84 H41      4.5485  19.0001   0.3281   H         1 RES1   0.0000
    85 C38      3.1860  19.0054   1.7997   C.ar      1 RES1   0.0000
    86 H42      3.4362  19.8176   2.1752   H         1 RES1   0.0000
    87 C39      2.1525  18.2805   2.3375   C.ar      1 RES1   0.0000
    88 H43      1.7076  18.6171   3.0818   H         1 RES1   0.0000
    89 C40     -0.6524  17.3827   3.3098   C.ar      1 RES1   0.0000
    90 C41     -1.0456  18.4942   2.5743   C.ar      1 RES1   0.0000
    91 H44     -0.7480  18.5833   1.6982   H         1 RES1   0.0000
    92 C42     -1.8566  19.4632   3.1055   C.ar      1 RES1   0.0000
    93 H45     -2.0941  20.2006   2.5913   H         1 RES1   0.0000
    94 C43     -2.3198  19.3456   4.3977   C.ar      1 RES1   0.0000
    95 H46     -2.8937  19.9851   4.7495   H         1 RES1   0.0000
    96 C44     -1.9262  18.2787   5.1453   C.ar      1 RES1   0.0000
    97 H47     -2.2127  18.2092   6.0282   H         1 RES1   0.0000
    98 C45     -1.1068  17.2955   4.6176   C.ar      1 RES1   0.0000
    99 H48     -0.8586  16.5705   5.1419   H         1 RES1   0.0000
   100 C46      0.3278  12.8335   0.1285   C.ar      1 RES1   0.0000
   101 C47      1.6746  12.8104  -0.1083   C.ar      1 RES1   0.0000
   102 H49      2.2622  13.0295   0.5785   H         1 RES1   0.0000
   103 C48      2.1786  12.4666  -1.3464   C.ar      1 RES1   0.0000
   104 H50      3.0973  12.4488  -1.4851   H         1 RES1   0.0000
   105 C49      1.3255  12.1513  -2.3680   C.ar      1 RES1   0.0000
   106 H51      1.6661  11.9091  -3.1968   H         1 RES1   0.0000
   107 C50     -0.0350  12.1905  -2.1650   C.ar      1 RES1   0.0000
   108 H52     -0.6166  12.0089  -2.8687   H         1 RES1   0.0000
   109 C51     -0.5229  12.5005  -0.9370   C.ar      1 RES1   0.0000
   110 H53     -1.4421  12.4898  -0.7950   H         1 RES1   0.0000
   111 C52     -1.5273  11.8272   1.9830   C.ar      1 RES1   0.0000
   112 C53     -2.7581  11.9964   2.5879   C.ar      1 RES1   0.0000
   113 H54     -3.0342  12.8496   2.8382   H         1 RES1   0.0000
   114 C54     -3.5813  10.9134   2.8247   C.ar      1 RES1   0.0000
   115 H55     -4.4183  11.0399   3.2137   H         1 RES1   0.0000
   116 C55     -3.1622   9.6505   2.4898   C.ar      1 RES1   0.0000
   117 H56     -3.7076   8.9202   2.6657   H         1 RES1   0.0000
   118 C56     -1.9569   9.4653   1.8978   C.ar      1 RES1   0.0000
   119 H57     -1.6783   8.6050   1.6745   H         1 RES1   0.0000
   120 C57     -1.1357  10.5518   1.6238   C.ar      1 RES1   0.0000
   121 H58     -0.3193  10.4218   1.1941   H         1 RES1   0.0000
   122 C58      3.8426  15.5641  11.3867   C.ar      2 RES2   0.0000
   123 C59      3.4180  16.5990  12.1952   C.ar      2 RES2   0.0000
   124 H59      3.2878  16.4423  13.1018   H         2 RES2   0.0000
   125 C60      3.1781  17.8868  11.6742   C.ar      2 RES2   0.0000
   126 H60      2.8966  18.5619  12.2459   H         2 RES2   0.0000
   127 C61      3.3459  18.1647  10.3684   C.ar      2 RES2   0.0000
   128 H61      3.1733  19.0179  10.0403   H         2 RES2   0.0000
   129 C62      3.7749  17.1725   9.5396   C.ar      2 RES2   0.0000
   130 H62      3.8989  17.3418   8.6364   H         2 RES2   0.0000
   131 C63      4.0201  15.9221  10.0471   C.ar      2 RES2   0.0000
   132 H63      4.3261  15.2684   9.4618   H         2 RES2   0.0000
   133 C64      3.1783  13.1079  10.8623   C.ar      2 RES2   0.0000
   134 C65      3.5930  12.0676  10.0606   C.ar      2 RES2   0.0000
   135 H64      4.4892  11.8218  10.0809   H         2 RES2   0.0000
   136 C66      2.7338  11.3676   9.2216   C.ar      2 RES2   0.0000
   137 H65      3.0573  10.6623   8.7108   H         2 RES2   0.0000
   138 C67      1.4120  11.7203   9.1472   C.ar      2 RES2   0.0000
   139 H66      0.8328  11.2679   8.5789   H         2 RES2   0.0000
   140 C68      0.9690  12.7302   9.9151   C.ar      2 RES2   0.0000
   141 H67      0.0727  12.9707   9.8745   H         2 RES2   0.0000
   142 C69      1.8171  13.4178  10.7608   C.ar      2 RES2   0.0000
   143 H68      1.4735  14.1107  11.2784   H         2 RES2   0.0000
   144 C70      3.7535  13.7562  13.4299   C.ar      2 RES2   0.0000
   145 C71      4.4270  14.4295  14.4549   C.ar      2 RES2   0.0000
   146 H69      5.0669  15.0618  14.2181   H         2 RES2   0.0000
   147 C72      4.1964  14.2069  15.7911   C.ar      2 RES2   0.0000
   148 H70      4.6543  14.7056  16.4271   H         2 RES2   0.0000
   149 C73      3.3103  13.2682  16.1869   C.ar      2 RES2   0.0000
   150 H71      3.1578  13.1132  17.0935   H         2 RES2   0.0000
   151 C74      2.6402  12.5486  15.2397   C.ar      2 RES2   0.0000
   152 H72      2.0376  11.8913  15.5036   H         2 RES2   0.0000
   153 C75      2.8521  12.7926  13.8731   C.ar      2 RES2   0.0000
   154 H73      2.3747  12.2974  13.2472   H         2 RES2   0.0000
   155 C76      5.7160  13.6636  11.7185   C.ar      2 RES2   0.0000
   156 C77      6.6849  14.5631  11.3156   C.ar      2 RES2   0.0000
   157 H74      6.4175  15.4181  11.0721   H         2 RES2   0.0000
   158 C78      8.0306  14.2567  11.2581   C.ar      2 RES2   0.0000
   159 H75      8.6409  14.8980  10.9740   H         2 RES2   0.0000
   160 C79      8.4675  13.0170  11.6201   C.ar      2 RES2   0.0000
   161 H76      9.3703  12.8015  11.5693   H         2 RES2   0.0000
   162 C80      7.5594  12.0997  12.0565   C.ar      2 RES2   0.0000
   163 H77      7.8444  11.2572  12.3305   H         2 RES2   0.0000
   164 C81      6.2168  12.4185  12.0937   C.ar      2 RES2   0.0000
   165 H78      5.6161  11.7702  12.3812   H         2 RES2   0.0000
   166 B1       4.1177  14.0198  11.8467   B         2 RES2  -1.0000
@<TRIPOS>BOND
     1     1     2    1
     2     3     1    1
     3     4     1    1
     4     5     1    1
     5     6     1    1
     6     7     1    1
     7     8     3    3
     8     9     8    1
     9    10     9    1
    10    11    10    1
    11    12    10    1
    12    13    10    1
    13    14     9    1
    14    15    14    1
    15    16    14    1
    16    17    14    1
    17    18     9    1
    18    19    18    1
    19    20    18    1
    20    21    18    1
    21    22     4    1
    22    23    22    1
    23    24    22    1
    24    25     5    1
    25    26    25    1
    26    27    25    1
    27    28     4    1
    28    29    28   ar
    29    30    29    1
    30    31    29   ar
    31    32    31    1
    32    33    31   ar
    33    34    33    1
    34    35    33   ar
    35    36    35    1
    36    37    28   ar
    37    38    37    1
    38    39     4    1
    39    40    39   ar
    40    41    40    1
    41    42    40   ar
    42    43    42    1
    43    44    42   ar
    44    45    44    1
    45    46    44   ar
    46    47    46    1
    47    48    39   ar
    48    49    48    1
    49    50     5    1
    50    51    50   ar
    51    52    51    1
    52    53    51   ar
    53    54    53    1
    54    55    53   ar
    55    56    55    1
    56    57    55   ar
    57    58    57    1
    58    59    50   ar
    59    60    59    1
    60    61     5    1
    61    62    61   ar
    62    63    62    1
    63    64    62   ar
    64    65    64    1
    65    66    64   ar
    66    67    66    1
    67    68    66   ar
    68    69    68    1
    69    70    61   ar
    70    71    70    1
    71    72     6    1
    72    73    72    1
    73    74    72    1
    74    75     7    1
    75    76    75    1
    76    77    75    1
    77    78     6    1
    78    79    78   ar
    79    80    79    1
    80    81    79   ar
    81    82    81    1
    82    83    81   ar
    83    84    83    1
    84    85    83   ar
    85    86    85    1
    86    87    78   ar
    87    88    87    1
    88    89     6    1
    89    90    89   ar
    90    91    90    1
    91    92    90   ar
    92    93    92    1
    93    94    92   ar
    94    95    94    1
    95    96    94   ar
    96    97    96    1
    97    98    89   ar
    98    99    98    1
    99   100     7    1
   100   101   100   ar
   101   102   101    1
   102   103   101   ar
   103   104   103    1
   104   105   103   ar
   105   106   105    1
   106   107   105   ar
   107   108   107    1
   108   109   100   ar
   109   110   109    1
   110   111     7    1
   111   112   111   ar
   112   113   112    1
   113   114   112   ar
   114   115   114    1
   115   116   114   ar
   116   117   116    1
   117   118   116   ar
   118   119   118    1
   119   120   111   ar
   120   121   120    1
   121    22    25    1
   122    35    37   ar
   123    46    48   ar
   124    57    59   ar
   125    68    70   ar
   126    72    75    1
   127    85    87   ar
   128    96    98   ar
   129   107   109   ar
   130   118   120   ar
   131   122   123   ar
   132   123   124    1
   133   125   123   ar
   134   126   125    1
   135   127   125   ar
   136   128   127    1
   137   129   127   ar
   138   130   129    1
   139   131   122   ar
   140   132   131    1
   141   133   134   ar
   142   134   135    1
   143   136   134   ar
   144   137   136    1
   145   138   136   ar
   146   139   138    1
   147   140   138   ar
   148   141   140    1
   149   142   133   ar
   150   143   142    1
   151   144   145   ar
   152   145   146    1
   153   147   145   ar
   154   148   147    1
   155   149   147   ar
   156   150   149    1
   157   151   149   ar
   158   152   151    1
   159   153   144   ar
   160   154   153    1
   161   155   156   ar
   162   156   157    1
   163   158   156   ar
   164   159   158    1
   165   160   158   ar
   166   161   160    1
   167   162   160   ar
   168   163   162    1
   169   164   155   ar
   170   165   164    1
   171   166   122    1
   172   129   131   ar
   173   133   166    1
   174   140   142   ar
   175   144   166    1
   176   151   153   ar
   177   155   166    1
   178   162   164   ar
@<TRIPOS>SUBSTRUCTURE
     1 RES1        1 GROUP             0 ****  ****    0  
     2 RES2      122 GROUP             0 ****  ****    0  
@<TRIPOS>CRYSIN
   11.1860   17.8120   34.2370   90.0000   98.8600   90.0000    14     1
