@<TRIPOS>MOLECULE
FEMCAF
    76    70     6     0     0
SMALL
USER_CHARGES
****
Generated from the CSD

@<TRIPOS>ATOM
     1 Fe1      6.0405   4.4093  -9.1064   Fe        1 RES1   0.0000
     2 S1       4.1124   6.8024  -5.3988   S.2       1 RES1   0.0000
     3 S2       5.8114   6.7001 -13.1840   S.2       1 RES1   0.0000
     4 S3       6.7183   1.4651 -12.8555   S.2       1 RES1   0.0000
     5 S4       7.9569   1.1868  -6.0717   S.2       1 RES1   0.0000
     6 S5       2.3062   1.6298  -8.1156   S.2       1 RES1   0.0000
     7 S6      10.3689   6.1163  -8.0916   S.2       1 RES1   0.0000
     8 N1       5.3599   5.6636  -7.6226   N.2       1 RES1  -1.0000
     9 N2       5.5180   5.7372 -10.5737   N.2       1 RES1  -1.0000
    10 N3       6.5857   3.1333 -10.6217   N.2       1 RES1  -1.0000
    11 N4       6.6890   3.0501  -7.7287   N.2       1 RES1   0.0000
    12 N5       4.1608   3.5220  -9.0828   N.2       1 RES1   0.0000
    13 N6       7.9263   5.2350  -9.0143   N.2       1 RES1   0.0000
    14 C1       4.8433   6.1818  -6.7085   C.1       1 RES1   0.0000
    15 C2       5.6239   6.1514 -11.6830   C.1       1 RES1   0.0000
    16 C3       6.6418   2.4200 -11.5529   C.1       1 RES1   0.0000
    17 C4       7.2375   2.2504  -7.0474   C.1       1 RES1   0.0000
    18 C5       3.3623   2.7446  -8.6736   C.1       1 RES1   0.0000
    19 C6       8.9531   5.5836  -8.6360   C.1       1 RES1   0.0000
    20 N7       2.2998   2.7862 -12.6073   N.4       2 RES2   1.0000
    21 H1       1.7114   3.1846 -11.9331   H         2 RES2   0.0000
    22 C7       1.4733   2.4855 -13.8073   C.3       2 RES2   0.0000
    23 H2       1.0706   3.2944 -14.1295   H         2 RES2   0.0000
    24 H3       0.7869   1.8569 -13.5723   H         2 RES2   0.0000
    25 H4       2.0304   2.1094 -14.4929   H         2 RES2   0.0000
    26 C8       3.3904   3.7683 -12.8966   C.3       2 RES2   0.0000
    27 H5       3.9799   3.8230 -12.1408   H         2 RES2   0.0000
    28 H6       3.0063   4.6323 -13.0654   H         2 RES2   0.0000
    29 H7       3.8839   3.4814 -13.6678   H         2 RES2   0.0000
    30 C9       2.8891   1.5259 -12.0185   C.3       2 RES2   0.0000
    31 H8       3.3774   1.0535 -12.6966   H         2 RES2   0.0000
    32 H9       2.1825   0.9680 -11.6855   H         2 RES2   0.0000
    33 H10      3.4815   1.7558 -11.2989   H         2 RES2   0.0000
    34 Cl1     -0.0242   4.1437 -10.9572   Cl        3 RES3  -1.0000
    35 N8       3.1646   2.1417  -4.7365   N.4       4 RES4   1.0000
    36 H11      2.5947   1.5640  -5.2847   H         4 RES4   0.0000
    37 C10      4.5422   2.0921  -5.2809   C.3       4 RES4   0.0000
    38 H12      5.1221   2.6304  -4.7369   H         4 RES4   0.0000
    39 H13      4.5435   2.4299  -6.1801   H         4 RES4   0.0000
    40 H14      4.8546   1.1844  -5.2803   H         4 RES4   0.0000
    41 C11      3.1774   1.5978  -3.3277   C.3       4 RES4   0.0000
    42 H15      3.5952   0.7333  -3.3230   H         4 RES4   0.0000
    43 H16      2.2766   1.5198  -3.0065   H         4 RES4   0.0000
    44 H17      3.6700   2.1940  -2.7588   H         4 RES4   0.0000
    45 C12      2.6072   3.5092  -4.7673   C.3       4 RES4   0.0000
    46 H18      3.1542   4.0902  -4.2343   H         4 RES4   0.0000
    47 H19      1.7139   3.4981  -4.4141   H         4 RES4   0.0000
    48 H20      2.5890   3.8267  -5.6726   H         4 RES4   0.0000
    49 N9       1.1250   6.5449  -9.2899   N.4       5 RES5   1.0000
    50 H21      0.5136   5.8926  -9.6899   H         5 RES5   0.0000
    51 C13      0.4834   7.8964  -9.4183   C.3       5 RES5   0.0000
    52 H22      1.0524   8.5606  -9.0223   H         5 RES5   0.0000
    53 H23     -0.3648   7.8925  -8.9695   H         5 RES5   0.0000
    54 H24      0.3525   8.1015 -10.3477   H         5 RES5   0.0000
    55 C14      2.3929   6.4937 -10.0636   C.3       5 RES5   0.0000
    56 H25      2.2411   6.8305 -10.9491   H         5 RES5   0.0000
    57 H26      2.6997   5.5853 -10.1144   H         5 RES5   0.0000
    58 H27      3.0569   7.0313  -9.6255   H         5 RES5   0.0000
    59 C15      1.3355   6.1466  -7.8965   C.3       5 RES5   0.0000
    60 H28      1.6096   5.2270  -7.8645   H         5 RES5   0.0000
    61 H29      0.5179   6.2544  -7.4059   H         5 RES5   0.0000
    62 H30      2.0184   6.6974  -7.5058   H         5 RES5   0.0000
    63 N10     -1.6136   1.9481  -9.4251   N.4       6 RES6   1.0000
    64 H31     -1.1334   2.7142  -9.8032   H         6 RES6   0.0000
    65 C16     -3.0307   2.0265  -9.9558   C.3       6 RES6   0.0000
    66 H32     -3.0216   1.9078 -10.9085   H         6 RES6   0.0000
    67 H33     -3.4056   2.8833  -9.7430   H         6 RES6   0.0000
    68 H34     -3.5614   1.3350  -9.5527   H         6 RES6   0.0000
    69 C17     -0.9375   0.7373  -9.9369   C.3       6 RES6   0.0000
    70 H35     -1.3459  -0.0434  -9.5546   H         6 RES6   0.0000
    71 H36     -0.0086   0.7623  -9.6963   H         6 RES6   0.0000
    72 H37     -1.0196   0.7049 -10.8930   H         6 RES6   0.0000
    73 C18     -1.5230   2.0841  -7.9530   C.3       6 RES6   0.0000
    74 H38     -2.0338   1.3875  -7.5355   H         6 RES6   0.0000
    75 H39     -1.8713   2.9392  -7.6891   H         6 RES6   0.0000
    76 H40     -0.6048   2.0153  -7.6814   H         6 RES6   0.0000
@<TRIPOS>BOND
     1     1     8    1
     2     2    14    2
     3     3    15    2
     4     4    16    2
     5     5    17    2
     6     6    18    2
     7     7    19    2
     8     8    14    2
     9     9     1    1
    10    10     1    1
    11    11     1    1
    12    12     1    1
    13    13     1    1
    14    15     9    2
    15    16    10    2
    16    17    11    2
    17    18    12    2
    18    19    13    2
    19    20    21    1
    20    22    20    1
    21    23    22    1
    22    24    22    1
    23    25    22    1
    24    26    20    1
    25    27    26    1
    26    28    26    1
    27    29    26    1
    28    30    20    1
    29    31    30    1
    30    32    30    1
    31    33    30    1
    32    35    36    1
    33    37    35    1
    34    38    37    1
    35    39    37    1
    36    40    37    1
    37    41    35    1
    38    42    41    1
    39    43    41    1
    40    44    41    1
    41    45    35    1
    42    46    45    1
    43    47    45    1
    44    48    45    1
    45    49    50    1
    46    51    49    1
    47    52    51    1
    48    53    51    1
    49    54    51    1
    50    55    49    1
    51    56    55    1
    52    57    55    1
    53    58    55    1
    54    59    49    1
    55    60    59    1
    56    61    59    1
    57    62    59    1
    58    63    64    1
    59    65    63    1
    60    66    65    1
    61    67    65    1
    62    68    65    1
    63    69    63    1
    64    70    69    1
    65    71    69    1
    66    72    69    1
    67    73    63    1
    68    74    73    1
    69    75    73    1
    70    76    73    1
@<TRIPOS>SUBSTRUCTURE
     1 RES1        1 GROUP             0 ****  ****    0  
     2 RES2       20 GROUP             0 ****  ****    0  
     3 RES3       34 GROUP             0 ****  ****    0  
     4 RES4       35 GROUP             0 ****  ****    0  
     5 RES5       49 GROUP             0 ****  ****    0  
     6 RES6       63 GROUP             0 ****  ****    0  
@<TRIPOS>CRYSIN
   12.7555   15.9944   17.1179   90.0000   90.0000   90.0000    33     5
