@<TRIPOS>MOLECULE
FEMCUX
   167   177     5     0     0
SMALL
NO_CHARGES
****
Generated from the CSD

@<TRIPOS>ATOM
     1 Fe1     21.4532   7.3063   5.1499   Fe        1 RES1   0.0000
     2 S1      17.8457   5.1487   3.6468   S.3       1 RES1   0.0000
     3 O1      20.6942   4.9820   3.5929   O.3       1 RES1   0.0000
     4 O2      19.5535   9.0457   6.4643   O.3       1 RES1   0.0000
     5 O3      22.1058   6.5929   2.4463   O.3       1 RES1   0.0000
     6 O4      21.8326   9.9246   6.3041   O.3       1 RES1   0.0000
     7 O5      23.0722   5.1400   4.1565   O.3       1 RES1   0.0000
     8 O6      21.3159   8.1532   7.9025   O.3       1 RES1   0.0000
     9 O7      12.8814   8.2223   4.2735   O.3       1 RES1   0.0000
    10 H1      12.4826   8.0187   4.9590   H         1 RES1   0.0000
    11 N1      20.2828   5.9720   4.4414   N.2       1 RES1   0.0000
    12 N2      19.7413   8.0026   5.6238   N.2       1 RES1   0.0000
    13 N3      21.9947   7.6200   3.3487   N.2       1 RES1   0.0000
    14 N4      22.0828   9.1247   5.2234   N.2       1 RES1   0.0000
    15 N5      22.7981   5.9424   5.2239   N.2       1 RES1   0.0000
    16 N6      21.8028   7.2175   7.0195   N.2       1 RES1   0.0000
    17 F1      22.3432   4.3426   2.1175   F         1 RES1   0.0000
    18 F2      20.5227  10.2850   8.1615   F         1 RES1   0.0000
    19 B1      22.0608   5.2734   3.0761   B         1 RES1   0.0000
    20 B2      20.8105   9.3642   7.2226   B         1 RES1   0.0000
    21 C1      18.9869   6.1535   4.5221   C.2       1 RES1   0.0000
    22 C2      18.6865   7.2928   5.2988   C.2       1 RES1   0.0000
    23 H2      17.8234   7.5200   5.5568   H         1 RES1   0.0000
    24 C3      22.5541   8.7679   3.0265   C.2       1 RES1   0.0000
    25 C4      22.4666   9.7098   4.1185   C.2       1 RES1   0.0000
    26 C5      23.2563   5.5733   6.3846   C.2       1 RES1   0.0000
    27 C6      22.7542   6.4164   7.4664   C.2       1 RES1   0.0000
    28 C7      16.3635   6.0683   3.8681   C.ar      1 RES1   0.0000
    29 C8      15.5681   5.8387   4.9973   C.ar      1 RES1   0.0000
    30 H3      15.8338   5.2190   5.6361   H         1 RES1   0.0000
    31 C9      14.3755   6.5361   5.1608   C.ar      1 RES1   0.0000
    32 C10     14.0318   7.4903   4.1823   C.ar      1 RES1   0.0000
    33 C11     14.8032   7.7434   3.0684   C.ar      1 RES1   0.0000
    34 C12     16.0031   7.0102   2.9509   C.ar      1 RES1   0.0000
    35 H4      16.5627   7.1731   2.2278   H         1 RES1   0.0000
    36 C13     13.4718   6.3325   6.4102   C.3       1 RES1   0.0000
    37 C14     13.3040   7.7187   7.2150   C.3       1 RES1   0.0000
    38 H5      12.8456   8.3557   6.6631   H         1 RES1   0.0000
    39 H6      14.1703   8.0606   7.4475   H         1 RES1   0.0000
    40 H7      12.7976   7.5644   8.0172   H         1 RES1   0.0000
    41 C15     14.1653   5.3153   7.3376   C.3       1 RES1   0.0000
    42 H8      13.6292   5.1832   8.1245   H         1 RES1   0.0000
    43 H9      15.0281   5.6511   7.5905   H         1 RES1   0.0000
    44 H10     14.2689   4.4809   6.8752   H         1 RES1   0.0000
    45 C16     12.1327   5.7646   5.9912   C.3       1 RES1   0.0000
    46 H11     11.6842   6.3930   5.4189   H         1 RES1   0.0000
    47 H12     11.5963   5.6005   6.7679   H         1 RES1   0.0000
    48 H13     12.2708   4.9413   5.5160   H         1 RES1   0.0000
    49 C17     14.3807   8.7038   1.9340   C.3       1 RES1   0.0000
    50 C18     15.3992   8.8013   0.8431   C.3       1 RES1   0.0000
    51 H14     15.5037   7.9434   0.4267   H         1 RES1   0.0000
    52 H15     16.2380   9.0827   1.2136   H         1 RES1   0.0000
    53 H16     15.1082   9.4407   0.1891   H         1 RES1   0.0000
    54 C19     13.0648   8.3396   1.3388   C.3       1 RES1   0.0000
    55 H17     13.1191   7.4632   0.9530   H         1 RES1   0.0000
    56 H18     12.8339   8.9766   0.6592   H         1 RES1   0.0000
    57 H19     12.3911   8.3445   2.0260   H         1 RES1   0.0000
    58 C20     14.2885  10.1418   2.5319   C.3       1 RES1   0.0000
    59 H20     14.0443  10.7615   1.8421   H         1 RES1   0.0000
    60 H21     15.1406  10.3912   2.8998   H         1 RES1   0.0000
    61 H22     13.6247  10.1579   3.2242   H         1 RES1   0.0000
    62 C21     23.3053   9.0124   1.7836   C.ar      1 RES1   0.0000
    63 C22     24.5505   9.6259   1.8546   C.ar      1 RES1   0.0000
    64 H23     24.8933   9.8863   2.6801   H         1 RES1   0.0000
    65 C23     25.2817   9.8517   0.6942   C.ar      1 RES1   0.0000
    66 H24     26.1149  10.2628   0.7409   H         1 RES1   0.0000
    67 C24     24.7674   9.4641  -0.5375   C.ar      1 RES1   0.0000
    68 H25     25.2573   9.6147  -1.3132   H         1 RES1   0.0000
    69 C25     23.5223   8.8506  -0.6088   C.ar      1 RES1   0.0000
    70 H26     23.1791   8.5902  -1.4333   H         1 RES1   0.0000
    71 C26     22.7913   8.6248   0.5519   C.ar      1 RES1   0.0000
    72 H27     21.9580   8.2137   0.5033   H         1 RES1   0.0000
    73 C27     22.6431  11.1624   3.9636   C.ar      1 RES1   0.0000
    74 C28     23.2798  11.9243   4.9363   C.ar      1 RES1   0.0000
    75 H28     23.6540  11.5108   5.6795   H         1 RES1   0.0000
    76 C29     23.3570  13.3056   4.7965   C.ar      1 RES1   0.0000
    77 H29     23.7833  13.8154   5.4470   H         1 RES1   0.0000
    78 C30     22.7979  13.9240   3.6844   C.ar      1 RES1   0.0000
    79 H30     22.8493  14.8474   3.5922   H         1 RES1   0.0000
    80 C31     22.1614  13.1612   2.7120   C.ar      1 RES1   0.0000
    81 H31     21.7863  13.5759   1.9673   H         1 RES1   0.0000
    82 C32     22.0841  11.7811   2.8515   C.ar      1 RES1   0.0000
    83 H32     21.6592  11.2713   2.1997   H         1 RES1   0.0000
    84 C33     24.1411   4.4068   6.6358   C.ar      1 RES1   0.0000
    85 C34     25.2860   4.2167   5.8708   C.ar      1 RES1   0.0000
    86 H33     25.4709   4.7870   5.1608   H         1 RES1   0.0000
    87 C35     26.1559   3.1736   6.1687   C.ar      1 RES1   0.0000
    88 H34     26.9215   3.0465   5.6565   H         1 RES1   0.0000
    89 C36     25.8807   2.3219   7.2313   C.ar      1 RES1   0.0000
    90 H35     26.4618   1.6232   7.4296   H         1 RES1   0.0000
    91 C37     24.7355   2.5108   7.9962   C.ar      1 RES1   0.0000
    92 H36     24.5514   1.9405   8.7070   H         1 RES1   0.0000
    93 C38     23.8658   3.5538   7.6986   C.ar      1 RES1   0.0000
    94 H37     23.0986   3.6810   8.2114   H         1 RES1   0.0000
    95 C39     23.3189   6.4794   8.8189   C.ar      1 RES1   0.0000
    96 C40     22.4841   6.5386   9.9287   C.ar      1 RES1   0.0000
    97 H38     21.5618   6.5152   9.8184   H         1 RES1   0.0000
    98 C41     23.0292   6.6349  11.2039   C.ar      1 RES1   0.0000
    99 H39     22.4713   6.6744  11.9466   H         1 RES1   0.0000
   100 C42     24.4089   6.6719  11.3692   C.ar      1 RES1   0.0000
   101 H40     24.7743   6.7361  12.2225   H         1 RES1   0.0000
   102 C43     25.2435   6.6114  10.2593   C.ar      1 RES1   0.0000
   103 H41     26.1657   6.6361  10.3702   H         1 RES1   0.0000
   104 C44     24.6986   6.5164   8.9842   C.ar      1 RES1   0.0000
   105 H42     25.2563   6.4757   8.2420   H         1 RES1   0.0000
   106 C45     18.8529  10.2208   2.8768   C.ar      2 RES2   0.0000
   107 H43     18.7925  10.2393   3.8042   H         2 RES2   0.0000
   108 C46     18.7346  11.3984   2.1486   C.ar      2 RES2   0.0000
   109 H44     18.5941  12.2057   2.5881   H         2 RES2   0.0000
   110 C47     18.8236  11.3701   0.7614   C.ar      2 RES2   0.0000
   111 H45     18.7438  12.1576   0.2734   H         2 RES2   0.0000
   112 C48     19.0317  10.1640   0.1032   C.ar      2 RES2   0.0000
   113 H46     19.0920  10.1443  -0.8252   H         2 RES2   0.0000
   114 C49     19.1508   8.9852   0.8303   C.ar      2 RES2   0.0000
   115 H47     19.2905   8.1779   0.3909   H         2 RES2   0.0000
   116 C50     19.0612   9.0136   2.2176   C.ar      2 RES2   0.0000
   117 H48     19.1407   8.2260   2.7056   H         2 RES2   0.0000
   118 C51      9.2132   7.6261   4.5732   C.ar      3 RES3   0.0000
   119 H49      8.9383   6.7583   4.3842   H         3 RES3   0.0000
   120 C52      9.3318   8.0446   5.8941   C.ar      3 RES3   0.0000
   121 H50      9.1336   7.4582   6.5865   H         3 RES3   0.0000
   122 C53      9.7432   9.3419   6.1777   C.ar      3 RES3   0.0000
   123 H51      9.8221   9.6221   7.0591   H         3 RES3   0.0000
   124 C54     10.0382  10.2196   5.1404   C.ar      3 RES3   0.0000
   125 H52     10.3153  11.0874   5.3295   H         3 RES3   0.0000
   126 C55      9.9217   9.7999   3.8195   C.ar      3 RES3   0.0000
   127 H53     10.1200  10.3875   3.1272   H         3 RES3   0.0000
   128 C56      9.5082   8.5038   3.5359   C.ar      3 RES3   0.0000
   129 H54      9.4293   8.2223   2.6545   H         3 RES3   0.0000
   130 C57     23.1069  11.1614  10.2374   C.ar      4 RES4   0.0000
   131 H55     22.2466  10.9183   9.9819   H         4 RES4   0.0000
   132 C58     24.1680  10.2887  10.0269   C.ar      4 RES4   0.0000
   133 H56     24.0183   9.4617   9.6293   H         4 RES4   0.0000
   134 C59     25.4529  10.6529  10.4111   C.ar      4 RES4   0.0000
   135 H57     26.1632  10.0678  10.2706   H         4 RES4   0.0000
   136 C60     25.6792  11.8885  11.0038   C.ar      4 RES4   0.0000
   137 H58     26.5390  12.1317  11.2619   H         4 RES4   0.0000
   138 C61     24.6178  12.7612  11.2159   C.ar      4 RES4   0.0000
   139 H59     24.7673  13.5883  11.6145   H         4 RES4   0.0000
   140 C62     23.3327  12.3983  10.8327   C.ar      4 RES4   0.0000
   141 H60     22.6224  12.9822  10.9732   H         4 RES4   0.0000
   142 C63     14.6045   2.0244   2.2738   C.3       5 RES5   0.0000
   143 H61     14.9787   1.1431   2.3965   H         5 RES5   0.0000
   144 H62     15.0106   2.6293   2.8947   H         5 RES5   0.0000
   145 H63     14.7685   2.3170   1.3771   H         5 RES5   0.0000
   146 C64     12.6776   1.3085   3.8783   C.3       5 RES5   0.0000
   147 H64     11.7240   1.2504   3.9601   H         5 RES5   0.0000
   148 H65     13.0283   1.8368   4.5988   H         5 RES5   0.0000
   149 H66     13.0557   0.4271   3.9141   H         5 RES5   0.0000
   150 C65     13.0367   1.9627   2.5370   C.3       5 RES5   0.0000
   151 H67     12.6311   1.4319   1.8242   H         5 RES5   0.0000
   152 C66     12.6850   3.4687   2.2687   C.3       5 RES5   0.0000
   153 H68     12.4644   3.9056   3.1067   H         5 RES5   0.0000
   154 H69     13.4602   3.9205   1.8957   H         5 RES5   0.0000
   155 C67     11.4977   3.6044   1.2928   C.3       5 RES5   0.0000
   156 C68     10.4040   2.6305   1.6070   C.3       5 RES5   0.0000
   157 H70     10.7320   1.7356   1.4946   H         5 RES5   0.0000
   158 H71      9.6632   2.7762   1.0117   H         5 RES5   0.0000
   159 H72     10.1139   2.7539   2.5140   H         5 RES5   0.0000
   160 C69     10.9508   4.9993   1.4946   C.3       5 RES5   0.0000
   161 H73     11.6478   5.6437   1.3439   H         5 RES5   0.0000
   162 H74     10.6255   5.0907   2.3939   H         5 RES5   0.0000
   163 H75     10.2332   5.1573   0.8763   H         5 RES5   0.0000
   164 C70     12.3322   3.3082   0.0332   C.3       5 RES5   0.0000
   165 H76     13.0364   3.9587  -0.0460   H         5 RES5   0.0000
   166 H77     11.7679   3.3600  -0.7435   H         5 RES5   0.0000
   167 H78     12.7094   2.4318   0.0996   H         5 RES5   0.0000
@<TRIPOS>BOND
     1     1    11    1
     2     2    21    1
     3     3    11    1
     4     4    12    1
     5     5    13    1
     6     6    14    1
     7     7    15    1
     8     8    16    1
     9     9    10    1
    10    11    21    2
    11    12     1    1
    12    13     1    1
    13    14     1    1
    14    15     1    1
    15    16     1    1
    16    17    19    1
    17    18    20    1
    18    19     3    1
    19    20     4    1
    20    21    22    1
    21    22    12    2
    22    23    22    1
    23    24    13    2
    24    25    14    2
    25    26    15    2
    26    27    16    2
    27    28     2    1
    28    29    28   ar
    29    30    29    1
    30    31    29   ar
    31    32     9    1
    32    33    32   ar
    33    34    28   ar
    34    35    34    1
    35    36    31    1
    36    37    36    1
    37    38    37    1
    38    39    37    1
    39    40    37    1
    40    41    36    1
    41    42    41    1
    42    43    41    1
    43    44    41    1
    44    45    36    1
    45    46    45    1
    46    47    45    1
    47    48    45    1
    48    49    33    1
    49    50    49    1
    50    51    50    1
    51    52    50    1
    52    53    50    1
    53    54    49    1
    54    55    54    1
    55    56    54    1
    56    57    54    1
    57    58    49    1
    58    59    58    1
    59    60    58    1
    60    61    58    1
    61    62    24    1
    62    63    62   ar
    63    64    63    1
    64    65    63   ar
    65    66    65    1
    66    67    65   ar
    67    68    67    1
    68    69    67   ar
    69    70    69    1
    70    71    62   ar
    71    72    71    1
    72    73    25    1
    73    74    73   ar
    74    75    74    1
    75    76    74   ar
    76    77    76    1
    77    78    76   ar
    78    79    78    1
    79    80    78   ar
    80    81    80    1
    81    82    73   ar
    82    83    82    1
    83    84    26    1
    84    85    84   ar
    85    86    85    1
    86    87    85   ar
    87    88    87    1
    88    89    87   ar
    89    90    89    1
    90    91    89   ar
    91    92    91    1
    92    93    84   ar
    93    94    93    1
    94    95    27    1
    95    96    95   ar
    96    97    96    1
    97    98    96   ar
    98    99    98    1
    99   100    98   ar
   100   101   100    1
   101   102   100   ar
   102   103   102    1
   103   104    95   ar
   104   105   104    1
   105     5    19    1
   106     6    20    1
   107     7    19    1
   108     8    20    1
   109    24    25    1
   110    26    27    1
   111    31    32   ar
   112    33    34   ar
   113    69    71   ar
   114    80    82   ar
   115    91    93   ar
   116   102   104   ar
   117   106   107    1
   118   108   106   ar
   119   109   108    1
   120   110   108   ar
   121   111   110    1
   122   112   110   ar
   123   113   112    1
   124   114   112   ar
   125   115   114    1
   126   116   106   ar
   127   117   116    1
   128   114   116   ar
   129   118   119    1
   130   120   118   ar
   131   121   120    1
   132   122   120   ar
   133   123   122    1
   134   124   122   ar
   135   125   124    1
   136   126   124   ar
   137   127   126    1
   138   128   118   ar
   139   129   128    1
   140   126   128   ar
   141   130   131    1
   142   132   130   ar
   143   133   132    1
   144   134   132   ar
   145   135   134    1
   146   136   134   ar
   147   137   136    1
   148   138   136   ar
   149   139   138    1
   150   140   130   ar
   151   141   140    1
   152   138   140   ar
   153   142   143    1
   154   144   142    1
   155   145   142    1
   156   146   147    1
   157   148   146    1
   158   149   146    1
   159   150   142    1
   160   151   150    1
   161   152   150    1
   162   153   152    1
   163   154   152    1
   164   155   152    1
   165   156   155    1
   166   157   156    1
   167   158   156    1
   168   159   156    1
   169   160   155    1
   170   161   160    1
   171   162   160    1
   172   163   160    1
   173   164   155    1
   174   165   164    1
   175   166   164    1
   176   167   164    1
   177   146   150    1
@<TRIPOS>SUBSTRUCTURE
     1 RES1        1 GROUP             0 ****  ****    0  
     2 RES2      106 GROUP             0 ****  ****    0  
     3 RES3      118 GROUP             0 ****  ****    0  
     4 RES4      130 GROUP             0 ****  ****    0  
     5 RES5      142 GROUP             0 ****  ****    0  
@<TRIPOS>CRYSIN
   21.4570   12.3440   25.9090   90.0000   99.5660   90.0000   231     1
