@<TRIPOS>MOLECULE
FEMDEI
   139   151     5     0     0
SMALL
NO_CHARGES
****
Generated from the CSD

@<TRIPOS>ATOM
     1 Fe1     -1.0372   2.4125  -5.5451   Fe        1 RES1   0.0000
     2 F1       1.1890  -0.2385  -2.9191   F         1 RES1   0.0000
     3 F2      -3.2323   5.0606  -8.1759   F         1 RES1   0.0000
     4 S1       3.2086   3.6627  -4.9709   S.3       1 RES1   0.0000
     5 S2       1.6196   5.6372  -7.1349   S.3       1 RES1   0.0000
     6 B1       0.4832   0.5748  -3.7285   B         1 RES1   0.0000
     7 B2      -2.5599   4.2463  -7.3428   B         1 RES1   0.0000
     8 O1       1.2735   1.8350  -3.8996   O.3       1 RES1   0.0000
     9 O2      -1.1007   4.3794  -7.6654   O.3       1 RES1   0.0000
    10 O3      -0.8184   0.9100  -3.0910   O.3       1 RES1   0.0000
    11 O4      -2.8338   4.6529  -5.9502   O.3       1 RES1   0.0000
    12 O5       0.2660  -0.1052  -5.0117   O.3       1 RES1   0.0000
    13 O6      -3.0323   2.8413  -7.5933   O.3       1 RES1   0.0000
    14 N1       0.7224   2.6436  -4.8372   N.2       1 RES1   0.0000
    15 N2      -0.3180   3.6827  -6.7915   N.2       1 RES1   0.0000
    16 N3      -1.5014   1.8836  -3.7710   N.2       1 RES1   0.0000
    17 N4      -2.2830   3.7918  -5.0522   N.2       1 RES1   0.0000
    18 N5      -0.6192   0.5729  -5.8071   N.2       1 RES1   0.0000
    19 N6      -2.3403   1.9174  -6.8520   N.2       1 RES1   0.0000
    20 C1       1.5434   3.4773  -5.4716   C.2       1 RES1   0.0000
    21 C2       0.8929   4.1639  -6.5274   C.2       1 RES1   0.0000
    22 C3      -2.2799   2.6732  -3.0473   C.2       1 RES1   0.0000
    23 C4      -2.8781   3.6997  -3.8728   C.2       1 RES1   0.0000
    24 C5      -1.5026  -0.1517  -6.4893   C.2       1 RES1   0.0000
    25 C6      -2.4010   0.6609  -7.2527   C.2       1 RES1   0.0000
    26 C7       4.0458   3.3694  -6.4957   C.ar      1 RES1   0.0000
    27 C8       3.5250   2.4967  -7.4442   C.ar      1 RES1   0.0000
    28 H1       2.7432   2.0268  -7.2627   H         1 RES1   0.0000
    29 C9       4.1702   2.3289  -8.6631   C.ar      1 RES1   0.0000
    30 H2       3.8214   1.7451  -9.2982   H         1 RES1   0.0000
    31 C10      5.3388   3.0315  -8.9338   C.ar      1 RES1   0.0000
    32 H3       5.7711   2.9184  -9.7490   H         1 RES1   0.0000
    33 C11      5.8596   3.9042  -7.9855   C.ar      1 RES1   0.0000
    34 H4       6.6408   4.3751  -8.1663   H         1 RES1   0.0000
    35 C12      5.2137   4.0732  -6.7664   C.ar      1 RES1   0.0000
    36 H5       5.5633   4.6561  -6.1327   H         1 RES1   0.0000
    37 C13      1.1686   5.7648  -8.8232   C.ar      1 RES1   0.0000
    38 C14      0.6192   6.9609  -9.2668   C.ar      1 RES1   0.0000
    39 H6       0.4690   7.6547  -8.6651   H         1 RES1   0.0000
    40 C15      0.2908   7.1204 -10.6083   C.ar      1 RES1   0.0000
    41 H7      -0.0770   7.9213 -10.9050   H         1 RES1   0.0000
    42 C16      0.5142   6.0837 -11.5063   C.ar      1 RES1   0.0000
    43 H8       0.2959   6.1893 -12.4037   H         1 RES1   0.0000
    44 C17      1.0653   4.8863 -11.0625   C.ar      1 RES1   0.0000
    45 H9       1.2141   4.1920 -11.6624   H         1 RES1   0.0000
    46 C18      1.3925   4.7269  -9.7212   C.ar      1 RES1   0.0000
    47 H10      1.7616   3.9260  -9.4245   H         1 RES1   0.0000
    48 C19     -2.4521   2.5907  -1.5884   C.ar      1 RES1   0.0000
    49 C20     -2.4858   3.7843  -0.8769   C.ar      1 RES1   0.0000
    50 H11     -2.4445   4.5956  -1.3283   H         1 RES1   0.0000
    51 C21     -2.5806   3.7639   0.5097   C.ar      1 RES1   0.0000
    52 H12     -2.6028   4.5630   0.9857   H         1 RES1   0.0000
    53 C22     -2.6423   2.5510   1.1851   C.ar      1 RES1   0.0000
    54 H13     -2.7053   2.5373   2.1137   H         1 RES1   0.0000
    55 C23     -2.6086   1.3574   0.4736   C.ar      1 RES1   0.0000
    56 H14     -2.6493   0.5448   0.9256   H         1 RES1   0.0000
    57 C24     -2.5132   1.3767  -0.9130   C.ar      1 RES1   0.0000
    58 H15     -2.4917   0.5785  -1.3884   H         1 RES1   0.0000
    59 C25     -4.0860   4.4718  -3.4817   C.ar      1 RES1   0.0000
    60 C26     -5.1485   3.7775  -2.9153   C.ar      1 RES1   0.0000
    61 H16     -5.0911   2.8565  -2.7949   H         1 RES1   0.0000
    62 C27     -6.2982   4.4582  -2.5292   C.ar      1 RES1   0.0000
    63 H17     -7.0088   3.9924  -2.1498   H         1 RES1   0.0000
    64 C28     -6.3841   5.8331  -2.7095   C.ar      1 RES1   0.0000
    65 H18     -7.1532   6.2889  -2.4523   H         1 RES1   0.0000
    66 C29     -5.3215   6.5275  -3.2761   C.ar      1 RES1   0.0000
    67 H19     -5.3803   7.4484  -3.3959   H         1 RES1   0.0000
    68 C30     -4.1737   5.8480  -3.6622   C.ar      1 RES1   0.0000
    69 H20     -3.4626   6.3125  -4.0411   H         1 RES1   0.0000
    70 C31     -1.6450  -1.6254  -6.3292   C.ar      1 RES1   0.0000
    71 C32     -2.9162  -2.0978  -6.0237   C.ar      1 RES1   0.0000
    72 H21     -3.6374  -1.5121  -6.0065   H         1 RES1   0.0000
    73 C33     -3.1073  -3.4461  -5.7450   C.ar      1 RES1   0.0000
    74 H22     -3.9576  -3.7635  -5.5397   H         1 RES1   0.0000
    75 C34     -2.0274  -4.3217  -5.7719   C.ar      1 RES1   0.0000
    76 H23     -2.1555  -5.2234  -5.5858   H         1 RES1   0.0000
    77 C35     -0.7566  -3.8486  -6.0774   C.ar      1 RES1   0.0000
    78 H24     -0.0353  -4.4343  -6.0946   H         1 RES1   0.0000
    79 C36     -0.5654  -2.5002  -6.3563   C.ar      1 RES1   0.0000
    80 H25      0.2855  -2.1841  -6.5615   H         1 RES1   0.0000
    81 C37     -3.2151   0.1317  -8.3504   C.ar      1 RES1   0.0000
    82 C38     -4.5611   0.4531  -8.4772   C.ar      1 RES1   0.0000
    83 H26     -4.9554   1.0487  -7.8818   H         1 RES1   0.0000
    84 C39     -5.3191  -0.1141  -9.4954   C.ar      1 RES1   0.0000
    85 H27     -6.2190   0.1008  -9.5807   H         1 RES1   0.0000
    86 C40     -4.7293  -1.0039 -10.3865   C.ar      1 RES1   0.0000
    87 H28     -5.2355  -1.3834 -11.0673   H         1 RES1   0.0000
    88 C41     -3.3833  -1.3252 -10.2597   C.ar      1 RES1   0.0000
    89 H29     -2.9888  -1.9203 -10.8570   H         1 RES1   0.0000
    90 C42     -2.6253  -0.7580  -9.2417   C.ar      1 RES1   0.0000
    91 H30     -1.7254  -0.9730  -9.1560   H         1 RES1   0.0000
    92 C43     -2.8836  -3.4674  -1.6833   C.ar      2 RES2   0.0000
    93 H31     -3.4348  -3.8535  -2.3261   H         2 RES2   0.0000
    94 C44     -1.8435  -2.6306  -2.0724   C.ar      2 RES2   0.0000
    95 H32     -1.6992  -2.4579  -2.9752   H         2 RES2   0.0000
    96 C45     -1.0208  -2.0516  -1.1139   C.ar      2 RES2   0.0000
    97 H33     -0.3252  -1.4926  -1.3744   H         2 RES2   0.0000
    98 C46     -1.2384  -2.3102   0.2364   C.ar      2 RES2   0.0000
    99 H34     -0.6871  -1.9236   0.8775   H         2 RES2   0.0000
   100 C47     -2.2773  -3.1468   0.6247   C.ar      2 RES2   0.0000
   101 H35     -2.4227  -3.3193   1.5267   H         2 RES2   0.0000
   102 C48     -3.0999  -3.7256  -0.3346   C.ar      2 RES2   0.0000
   103 H36     -3.7967  -4.2845  -0.0741   H         2 RES2   0.0000
   104 C49      4.3393  -1.4034  -6.9141   C.ar      3 RES3   0.0000
   105 H37      4.7835  -0.5950  -7.0323   H         3 RES3   0.0000
   106 C50      4.5158  -2.4329  -7.8323   C.ar      3 RES3   0.0000
   107 H38      5.0779  -2.3126  -8.5629   H         3 RES3   0.0000
   108 C51      3.8542  -3.6420  -7.6568   C.ar      3 RES3   0.0000
   109 H39      3.9716  -4.3310  -8.2704   H         3 RES3   0.0000
   110 C52      3.0144  -3.8228  -6.5633   C.ar      3 RES3   0.0000
   111 H40      2.5714  -4.6311  -6.4453   H         3 RES3   0.0000
   112 C53      2.8380  -2.7931  -5.6457   C.ar      3 RES3   0.0000
   113 H41      2.2758  -2.9135  -4.9146   H         3 RES3   0.0000
   114 C54      3.5007  -1.5840  -5.8212   C.ar      3 RES3   0.0000
   115 H42      3.3821  -0.8951  -5.2071   H         3 RES3   0.0000
   116 C55     -7.2686   0.7546  -3.0694   C.ar      4 RES4   0.0000
   117 H43     -8.1438   1.0506  -2.9592   H         4 RES4   0.0000
   118 C56     -6.5987   0.1640  -2.0039   C.ar      4 RES4   0.0000
   119 H44     -7.0244   0.0649  -1.1841   H         4 RES4   0.0000
   120 C57     -5.2909  -0.2784  -2.1662   C.ar      4 RES4   0.0000
   121 H45     -4.8422  -0.6729  -1.4545   H         4 RES4   0.0000
   122 C58     -4.6533  -0.1308  -3.3919   C.ar      4 RES4   0.0000
   123 H46     -3.7787  -0.4256  -3.5021   H         4 RES4   0.0000
   124 C59     -5.3244   0.4598  -4.4574   C.ar      4 RES4   0.0000
   125 H47     -4.8987   0.5590  -5.2772   H         4 RES4   0.0000
   126 C60     -6.6321   0.9023  -4.2953   C.ar      4 RES4   0.0000
   127 H48     -7.0815   1.2979  -5.0067   H         4 RES4   0.0000
   128 C61      6.1576  -5.5526  -1.4746   C.ar      5 RES5   0.0000
   129 H49      6.3162  -5.9614  -0.6551   H         5 RES5   0.0000
   130 C62      5.8639  -4.1944  -1.5307   C.ar      5 RES5   0.0000
   131 H50      5.8264  -3.6954  -0.7473   H         5 RES5   0.0000
   132 C63      5.6281  -3.5845  -2.7568   C.ar      5 RES5   0.0000
   133 H51      5.4313  -2.6755  -2.7929   H         5 RES5   0.0000
   134 C64      5.6854  -4.3315  -3.9269   C.ar      5 RES5   0.0000
   135 H52      5.5268  -3.9227  -4.7463   H         5 RES5   0.0000
   136 C65      5.9787  -5.6879  -3.8728   C.ar      5 RES5   0.0000
   137 H53      6.0168  -6.1881  -4.6561   H         5 RES5   0.0000
   138 C66      6.2151  -6.2990  -2.6466   C.ar      5 RES5   0.0000
   139 H54      6.4111  -7.2074  -2.6086   H         5 RES5   0.0000
@<TRIPOS>BOND
     1     1    14    1
     2     2     6    1
     3     3     7    1
     4     4    20    1
     5     5    21    1
     6     6     8    1
     7     7     9    1
     8     8    14    1
     9     9    15    1
    10    10     6    1
    11    11     7    1
    12    12     6    1
    13    13     7    1
    14    14    20    2
    15    15     1    1
    16    16     1    1
    17    17     1    1
    18    18     1    1
    19    19     1    1
    20    20    21    1
    21    21    15    2
    22    22    16    2
    23    23    17    2
    24    24    18    2
    25    25    19    2
    26    26     4    1
    27    27    26   ar
    28    28    27    1
    29    29    27   ar
    30    30    29    1
    31    31    29   ar
    32    32    31    1
    33    33    31   ar
    34    34    33    1
    35    35    26   ar
    36    36    35    1
    37    37     5    1
    38    38    37   ar
    39    39    38    1
    40    40    38   ar
    41    41    40    1
    42    42    40   ar
    43    43    42    1
    44    44    42   ar
    45    45    44    1
    46    46    37   ar
    47    47    46    1
    48    48    22    1
    49    49    48   ar
    50    50    49    1
    51    51    49   ar
    52    52    51    1
    53    53    51   ar
    54    54    53    1
    55    55    53   ar
    56    56    55    1
    57    57    48   ar
    58    58    57    1
    59    59    23    1
    60    60    59   ar
    61    61    60    1
    62    62    60   ar
    63    63    62    1
    64    64    62   ar
    65    65    64    1
    66    66    64   ar
    67    67    66    1
    68    68    59   ar
    69    69    68    1
    70    70    24    1
    71    71    70   ar
    72    72    71    1
    73    73    71   ar
    74    74    73    1
    75    75    73   ar
    76    76    75    1
    77    77    75   ar
    78    78    77    1
    79    79    70   ar
    80    80    79    1
    81    81    25    1
    82    82    81   ar
    83    83    82    1
    84    84    82   ar
    85    85    84    1
    86    86    84   ar
    87    87    86    1
    88    88    86   ar
    89    89    88    1
    90    90    81   ar
    91    91    90    1
    92    10    16    1
    93    11    17    1
    94    12    18    1
    95    13    19    1
    96    22    23    1
    97    24    25    1
    98    33    35   ar
    99    44    46   ar
   100    55    57   ar
   101    66    68   ar
   102    77    79   ar
   103    88    90   ar
   104    92    93    1
   105    94    92   ar
   106    95    94    1
   107    96    94   ar
   108    97    96    1
   109    98    96   ar
   110    99    98    1
   111   100    98   ar
   112   101   100    1
   113   102    92   ar
   114   103   102    1
   115   100   102   ar
   116   104   105    1
   117   106   104   ar
   118   107   106    1
   119   108   106   ar
   120   109   108    1
   121   110   108   ar
   122   111   110    1
   123   112   110   ar
   124   113   112    1
   125   114   104   ar
   126   115   114    1
   127   112   114   ar
   128   116   117    1
   129   118   116   ar
   130   119   118    1
   131   120   118   ar
   132   121   120    1
   133   122   120   ar
   134   123   122    1
   135   124   122   ar
   136   125   124    1
   137   126   116   ar
   138   127   126    1
   139   124   126   ar
   140   128   129    1
   141   130   128   ar
   142   131   130    1
   143   132   130   ar
   144   133   132    1
   145   134   132   ar
   146   135   134    1
   147   136   134   ar
   148   137   136    1
   149   138   128   ar
   150   139   138    1
   151   136   138   ar
@<TRIPOS>SUBSTRUCTURE
     1 RES1        1 GROUP             0 ****  ****    0  
     2 RES2       92 GROUP             0 ****  ****    0  
     3 RES3      104 GROUP             0 ****  ****    0  
     4 RES4      116 GROUP             0 ****  ****    0  
     5 RES5      128 GROUP             0 ****  ****    0  
@<TRIPOS>CRYSIN
   12.2980   13.4100   20.9750  102.4850   94.6110  117.3290     2     1
