@<TRIPOS>MOLECULE
FEMQIX
   106   118     2     0     0
SMALL
NO_CHARGES
****
Generated from the CSD

@<TRIPOS>ATOM
     1 Fe1      3.0368   5.8591   4.7970   Fe        1 RES1   0.0000
     2 O1       5.8400   5.3336   4.9041   O.2       1 RES1   0.0000
     3 N1       2.6577   3.9480   5.2867   N.2       1 RES1   0.0000
     4 N2       2.9546   5.3650   2.8619   N.2       1 RES1   0.0000
     5 N3       3.4407   7.7641   4.3140   N.2       1 RES1   0.0000
     6 N4       2.9836   6.3650   6.7270   N.2       1 RES1   0.0000
     7 N5       1.0119   6.2671   4.6558   N.2       1 RES1   0.0000
     8 N6      -0.9721   7.2168   4.8667   N.pl3     1 RES1   0.0000
     9 C1       2.6735   3.4098   6.5552   C.2       1 RES1   0.0000
    10 C2       2.6225   1.9770   6.4906   C.2       1 RES1   0.0000
    11 C3       2.5633   1.6398   5.1932   C.2       1 RES1   0.0000
    12 C4       2.5760   2.8651   4.4331   C.2       1 RES1   0.0000
    13 C5       2.5133   2.9400   3.0387   C.2       1 RES1   0.0000
    14 C6       2.6470   4.1376   2.3228   C.2       1 RES1   0.0000
    15 C7       2.4991   4.2557   0.8978   C.2       1 RES1   0.0000
    16 C8       2.7589   5.5342   0.5731   C.2       1 RES1   0.0000
    17 C9       3.0614   6.2273   1.7957   C.2       1 RES1   0.0000
    18 C10      3.4423   7.5700   1.8637   C.2       1 RES1   0.0000
    19 C11      3.6593   8.2579   3.0523   C.2       1 RES1   0.0000
    20 C12      4.0651   9.6399   3.1288   C.2       1 RES1   0.0000
    21 C13      4.0832   9.9761   4.4280   C.2       1 RES1   0.0000
    22 C14      3.6850   8.8164   5.1762   C.2       1 RES1   0.0000
    23 C15      3.5194   8.7791   6.5586   C.2       1 RES1   0.0000
    24 C16      3.1586   7.6211   7.2694   C.2       1 RES1   0.0000
    25 C17      3.0284   7.5769   8.6944   C.2       1 RES1   0.0000
    26 C18      2.8225   6.2905   9.0243   C.2       1 RES1   0.0000
    27 C19      2.8109   5.5336   7.8051   C.2       1 RES1   0.0000
    28 C20      2.7090   4.1439   7.7438   C.2       1 RES1   0.0000
    29 C21      2.2687   1.6811   2.2667   C.ar      1 RES1   0.0000
    30 C22      3.1701   1.2607   1.2855   C.ar      1 RES1   0.0000
    31 C23      2.9019   0.1245   0.5373   C.ar      1 RES1   0.0000
    32 C24      1.7673  -0.6090   0.7635   C.ar      1 RES1   0.0000
    33 C25      0.8680  -0.2038   1.7277   C.ar      1 RES1   0.0000
    34 C26      1.1268   0.9346   2.4742   C.ar      1 RES1   0.0000
    35 C27      3.6291   8.3065   0.5765   C.ar      1 RES1   0.0000
    36 C28      2.5560   8.9048  -0.0561   C.ar      1 RES1   0.0000
    37 C29      2.7301   9.6060  -1.2345   C.ar      1 RES1   0.0000
    38 C30      3.9835   9.7051  -1.7991   C.ar      1 RES1   0.0000
    39 C31      5.0473   9.1030  -1.1954   C.ar      1 RES1   0.0000
    40 C32      4.8740   8.4080  -0.0136   C.ar      1 RES1   0.0000
    41 C33      3.7576  10.0325   7.3493   C.ar      1 RES1   0.0000
    42 C34      5.0416  10.4737   7.6231   C.ar      1 RES1   0.0000
    43 C35      5.2571  11.5914   8.4002   C.ar      1 RES1   0.0000
    44 C36      4.1941  12.3010   8.9188   C.ar      1 RES1   0.0000
    45 C37      2.9165  11.8827   8.6519   C.ar      1 RES1   0.0000
    46 C38      2.6941  10.7558   7.8697   C.ar      1 RES1   0.0000
    47 C39      2.6779   3.3843   9.0379   C.ar      1 RES1   0.0000
    48 C40      1.4766   2.9953   9.6194   C.ar      1 RES1   0.0000
    49 C41      1.4686   2.2490  10.7825   C.ar      1 RES1   0.0000
    50 C42      2.6498   1.8885  11.3913   C.ar      1 RES1   0.0000
    51 C43      3.8512   2.2964  10.8455   C.ar      1 RES1   0.0000
    52 C44      3.8606   3.0462   9.6806   C.ar      1 RES1   0.0000
    53 C45      4.7960   5.5220   4.8684   C.1       1 RES1   0.0000
    54 C46      0.2963   7.1693   5.3003   C.2       1 RES1   0.0000
    55 C47     -1.0811   6.2941   3.8787   C.2       1 RES1   0.0000
    56 C48      0.1309   5.7144   3.7563   C.2       1 RES1   0.0000
    57 C49     -2.0390   8.0958   5.3428   C.3       1 RES1   0.0000
    58 H1       2.6308   1.3777   7.2269   H         1 RES1   0.0000
    59 H2       2.5203   0.7589   4.8412   H         1 RES1   0.0000
    60 H3       2.2625   3.5592   0.2959   H         1 RES1   0.0000
    61 H4       2.7455   5.9086  -0.3010   H         1 RES1   0.0000
    62 H5       4.2788  10.2057   2.3959   H         1 RES1   0.0000
    63 H6       4.3160  10.8246   4.7868   H         1 RES1   0.0000
    64 H7       3.0777   8.3112   9.2946   H         1 RES1   0.0000
    65 H8       2.7053   5.9461   9.9017   H         1 RES1   0.0000
    66 H9       3.9678   1.7548   1.1308   H         1 RES1   0.0000
    67 H10      3.5116  -0.1500  -0.1394   H         1 RES1   0.0000
    68 H11      1.6000  -1.3946   0.2568   H         1 RES1   0.0000
    69 H12      0.0746  -0.7041   1.8790   H         1 RES1   0.0000
    70 H13      0.5069   1.2064   3.1407   H         1 RES1   0.0000
    71 H14      1.6876   8.8337   0.3248   H         1 RES1   0.0000
    72 H15      1.9853  10.0185  -1.6562   H         1 RES1   0.0000
    73 H16      4.1054  10.1900  -2.6068   H         1 RES1   0.0000
    74 H17      5.9107   9.1633  -1.5865   H         1 RES1   0.0000
    75 H18      5.6226   7.9949   0.4013   H         1 RES1   0.0000
    76 H19      5.7846   9.9989   7.2694   H         1 RES1   0.0000
    77 H20      6.1448  11.8748   8.5788   H         1 RES1   0.0000
    78 H21      4.3458  13.0698   9.4562   H         1 RES1   0.0000
    79 H22      2.1783  12.3658   9.0022   H         1 RES1   0.0000
    80 H23      1.8039  10.4763   7.6911   H         1 RES1   0.0000
    81 H24      0.6543   3.2447   9.2147   H         1 RES1   0.0000
    82 H25      0.6403   1.9830  11.1651   H         1 RES1   0.0000
    83 H26      2.6387   1.3621  12.1820   H         1 RES1   0.0000
    84 H27      4.6693   2.0621  11.2672   H         1 RES1   0.0000
    85 H28      4.6893   3.3331   9.3168   H         1 RES1   0.0000
    86 H29      0.6400   7.7212   5.9924   H         1 RES1   0.0000
    87 H30     -1.8597   6.0961   3.3720   H         1 RES1   0.0000
    88 H31      0.3443   5.0242   3.1390   H         1 RES1   0.0000
    89 H32     -1.7016   9.0146   5.4057   H         1 RES1   0.0000
    90 H33     -2.3387   7.7963   6.2253   H         1 RES1   0.0000
    91 H34     -2.7912   8.0670   4.7153   H         1 RES1   0.0000
    92 C50      8.0685  11.8682   3.4978   C.ar      2 RES2   0.0000
    93 C51      9.1583  12.1075   4.2834   C.ar      2 RES2   0.0000
    94 C52     10.2353  11.2509   4.3038   C.ar      2 RES2   0.0000
    95 C53     10.2229  10.1226   3.5165   C.ar      2 RES2   0.0000
    96 C54      9.1579   9.8601   2.7088   C.ar      2 RES2   0.0000
    97 C55      8.0662  10.7256   2.6969   C.ar      2 RES2   0.0000
    98 C56      6.8984  12.8018   3.5080   C.3       2 RES2   0.0000
    99 H35      9.1743  12.8853   4.8293   H         2 RES2   0.0000
   100 H36     10.9834  11.4373   4.8599   H         2 RES2   0.0000
   101 H37     10.9610   9.5243   3.5352   H         2 RES2   0.0000
   102 H38      9.1592   9.0888   2.1528   H         2 RES2   0.0000
   103 H39      7.3178  10.5362   2.1443   H         2 RES2   0.0000
   104 H40      6.2118  12.4726   2.8925   H         2 RES2   0.0000
   105 H41      7.1898  13.6931   3.2257   H         2 RES2   0.0000
   106 H42      6.5284  12.8507   4.4144   H         2 RES2   0.0000
@<TRIPOS>BOND
     1     1     3    1
     2     2    53    3
     3     3     9    1
     4     4     1    1
     5     5     1    1
     6     6     1    1
     7     7     1    1
     8     8    54    1
     9     9    10    2
    10    10    11    1
    11    11    12    2
    12    12     3    1
    13    13    12    1
    14    14     4    1
    15    15    14    1
    16    16    15    2
    17    17     4    2
    18    18    17    1
    19    19     5    1
    20    20    19    1
    21    21    20    2
    22    22     5    1
    23    23    22    2
    24    24     6    2
    25    25    24    1
    26    26    25    2
    27    27     6    1
    28    28     9    1
    29    29    13    1
    30    30    29   ar
    31    31    30   ar
    32    32    31   ar
    33    33    32   ar
    34    34    29   ar
    35    35    18    1
    36    36    35   ar
    37    37    36   ar
    38    38    37   ar
    39    39    38   ar
    40    40    35   ar
    41    41    23    1
    42    42    41   ar
    43    43    42   ar
    44    44    43   ar
    45    45    44   ar
    46    46    41   ar
    47    47    28    1
    48    48    47   ar
    49    49    48   ar
    50    50    49   ar
    51    51    50   ar
    52    52    47   ar
    53    53     1    1
    54    54     7    2
    55    55     8    1
    56    56     7    1
    57    57     8    1
    58    58    10    1
    59    59    11    1
    60    60    15    1
    61    61    16    1
    62    62    20    1
    63    63    21    1
    64    64    25    1
    65    65    26    1
    66    66    30    1
    67    67    31    1
    68    68    32    1
    69    69    33    1
    70    70    34    1
    71    71    36    1
    72    72    37    1
    73    73    38    1
    74    74    39    1
    75    75    40    1
    76    76    42    1
    77    77    43    1
    78    78    44    1
    79    79    45    1
    80    80    46    1
    81    81    48    1
    82    82    49    1
    83    83    50    1
    84    84    51    1
    85    85    52    1
    86    86    54    1
    87    87    55    1
    88    88    56    1
    89    89    57    1
    90    90    57    1
    91    91    57    1
    92    13    14    2
    93    16    17    1
    94    18    19    2
    95    21    22    1
    96    23    24    1
    97    26    27    1
    98    27    28    2
    99    33    34   ar
   100    39    40   ar
   101    45    46   ar
   102    51    52   ar
   103    55    56    2
   104    92    93   ar
   105    93    94   ar
   106    94    95   ar
   107    95    96   ar
   108    96    97   ar
   109    97    92   ar
   110    98    92    1
   111    99    93    1
   112   100    94    1
   113   101    95    1
   114   102    96    1
   115   103    97    1
   116   104    98    1
   117   105    98    1
   118   106    98    1
@<TRIPOS>SUBSTRUCTURE
     1 RES1        1 GROUP             0 ****  ****    0  
     2 RES2       92 GROUP             0 ****  ****    0  
@<TRIPOS>CRYSIN
    9.7677   13.2825   17.6251   74.7500   88.3660   83.7290     2     1
