@<TRIPOS>MOLECULE
FEMYAA
   110   116     3     0     0
SMALL
NO_CHARGES
****
Generated from the CSD

@<TRIPOS>ATOM
     1 Fe1      4.5539   6.3870  11.2149   Fe        1 RES1   0.0000
     2 N1       6.6623   5.9231  11.3286   N.2       1 RES1   0.0000
     3 O1       3.1793   2.4704   4.0134   O.3       1 RES1   0.0000
     4 H1       3.8269   2.7217   3.5771   H         1 RES1   0.0000
     5 C1       2.7527   7.9843   8.6641   C.ar      1 RES1   0.0000
     6 O2       4.9982   7.7924  12.4784   O.3       1 RES1   0.0000
     7 N2       4.2685   2.8623   8.7635   N.2       1 RES1   0.0000
     8 C2       6.1044   8.4944  12.7382   C.ar      1 RES1   0.0000
     9 N3       4.8287   8.8992   7.7101   N.2       1 RES1   0.0000
    10 N4       6.1056   8.7868   8.0997   N.pl3     1 RES1   0.0000
    11 N5       8.5017   4.9337  11.2695   N.pl3     1 RES1   0.0000
    12 N6       7.2352   4.7942  10.9375   N.2       1 RES1   0.0000
    13 N7       8.8032   6.0930  11.8566   N.2       1 RES1   0.0000
    14 C3       7.4012   8.0196  12.4643   C.ar      1 RES1   0.0000
    15 C4       7.0993  10.5140  13.6329   C.ar      1 RES1   0.0000
    16 H2       6.9932  11.3523  14.0212   H         1 RES1   0.0000
    17 C5       7.6182   6.7019  11.8866   C.2       1 RES1   0.0000
    18 C6       8.5158   8.8124  12.7626   C.ar      1 RES1   0.0000
    19 H3       9.3678   8.4966  12.5656   H         1 RES1   0.0000
    20 C7       5.9922   9.7507  13.3516   C.ar      1 RES1   0.0000
    21 H4       5.1483  10.0756  13.5710   H         1 RES1   0.0000
    22 C8       8.3759  10.0506  13.3459   C.ar      1 RES1   0.0000
    23 H5       9.1225  10.5663  13.5429   H         1 RES1   0.0000
    24 O3       4.1072   4.9760  12.4137   O.3       1 RES1   0.0000
    25 C9       4.2401   3.6622  12.4137   C.ar      1 RES1   0.0000
    26 C10      4.3947   2.8875  11.2395   C.ar      1 RES1   0.0000
    27 C11      4.3428   1.6085  13.7023   C.ar      1 RES1   0.0000
    28 H6       4.3214   1.1814  14.5277   H         1 RES1   0.0000
    29 C12      4.1906   2.9784  13.6348   C.ar      1 RES1   0.0000
    30 H7       4.0523   3.4600  14.4189   H         1 RES1   0.0000
    31 C13      4.5449   1.5017  11.3239   C.ar      1 RES1   0.0000
    32 H8       4.6568   1.0019  10.5473   H         1 RES1   0.0000
    33 C14      4.5278   0.8656  12.5469   C.ar      1 RES1   0.0000
    34 H9       4.6392  -0.0545  12.5956   H         1 RES1   0.0000
    35 C15      4.3774   3.5191   9.9208   C.2       1 RES1   0.0000
    36 C16      9.9998   3.1170  12.1849   C.3       1 RES1   0.0000
    37 C17      9.5041   3.8985  10.9656   C.3       1 RES1   0.0000
    38 H10     10.2651   4.3210  10.5398   H         1 RES1   0.0000
    39 H11      9.1215   3.2737  10.3316   H         1 RES1   0.0000
    40 C18      8.8093   2.4195  12.8470   C.3       1 RES1   0.0000
    41 H12      8.1501   3.0783  13.1152   H         1 RES1   0.0000
    42 H13      8.3911   1.8129  12.2149   H         1 RES1   0.0000
    43 C19     10.7236   4.0121  13.1771   C.3       1 RES1   0.0000
    44 H14     11.4150   4.4982  12.7232   H         1 RES1   0.0000
    45 H15     11.1134   3.4714  13.8693   H         1 RES1   0.0000
    46 H16     10.0996   4.6277  13.5654   H         1 RES1   0.0000
    47 C20     10.9674   2.0628  11.6184   C.3       1 RES1   0.0000
    48 H17     11.7094   2.5036  11.1963   H         1 RES1   0.0000
    49 H18     10.5091   1.5199  10.9731   H         1 RES1   0.0000
    50 H19     11.2902   1.5062  12.3312   H         1 RES1   0.0000
    51 C21      7.1947   9.5074   7.4373   C.3       1 RES1   0.0000
    52 H20      6.9925   9.5849   6.4920   H         1 RES1   0.0000
    53 H21      8.0123   8.9942   7.5236   H         1 RES1   0.0000
    54 C22      7.9086  10.8457   9.4631   C.3       1 RES1   0.0000
    55 H22      8.1133  11.7317   9.7745   H         1 RES1   0.0000
    56 H23      8.6971  10.3005   9.5082   H         1 RES1   0.0000
    57 H24      7.2233  10.4640  10.0146   H         1 RES1   0.0000
    58 C23      7.4198  10.9161   8.0226   C.3       1 RES1   0.0000
    59 C24      6.1485  11.7476   7.9100   C.3       1 RES1   0.0000
    60 H25      5.4641  11.3614   8.4634   H         1 RES1   0.0000
    61 H26      5.8535  11.7613   6.9984   H         1 RES1   0.0000
    62 H27      6.3260  12.6450   8.2026   H         1 RES1   0.0000
    63 C25      8.5305  11.5454   7.1747   C.3       1 RES1   0.0000
    64 H28      8.6961  12.4474   7.4936   H         1 RES1   0.0000
    65 H29      9.3462  11.0366   7.2967   H         1 RES1   0.0000
    66 O4       8.2237  11.5972   5.7927   O.3       1 RES1   0.0000
    67 H30      7.7952  12.2770   5.6329   H         1 RES1   0.0000
    68 N8       6.2829   8.0623   9.1747   N.2       1 RES1   0.0000
    69 N9       5.0698   7.6577   9.5256   N.2       1 RES1   0.0000
    70 C26      0.7263   7.3153   9.8008   C.ar      1 RES1   0.0000
    71 H31      0.2980   6.9586  10.5473   H         1 RES1   0.0000
    72 C27      0.5904   8.2808   7.5949   C.ar      1 RES1   0.0000
    73 H32      0.0820   8.5625   6.8709   H         1 RES1   0.0000
    74 C28      2.1232   7.4205   9.7970   C.ar      1 RES1   0.0000
    75 C29     -0.0262   7.7265   8.7222   C.ar      1 RES1   0.0000
    76 H33     -0.9512   7.6356   8.7429   H         1 RES1   0.0000
    77 C30      4.1881   8.1727   8.6266   C.2       1 RES1   0.0000
    78 C31      1.9579   8.4012   7.5743   C.ar      1 RES1   0.0000
    79 H34      2.3705   8.7670   6.8258   H         1 RES1   0.0000
    80 C32      1.8067   4.8663   6.5576   C.3       1 RES1   0.0000
    81 H35      2.2232   5.6500   6.1956   H         1 RES1   0.0000
    82 H36      1.8334   4.9026   7.5180   H         1 RES1   0.0000
    83 H37      0.8938   4.8231   6.2650   H         1 RES1   0.0000
    84 C33      2.5012   3.6009   4.5487   C.3       1 RES1   0.0000
    85 H38      1.5743   3.5849   4.2617   H         1 RES1   0.0000
    86 H39      2.9063   4.4119   4.2036   H         1 RES1   0.0000
    87 C34      2.5595   3.6145   6.0737   C.3       1 RES1   0.0000
    88 C35      4.0500   3.6849   6.4413   C.3       1 RES1   0.0000
    89 H40      4.4853   2.8670   6.1562   H         1 RES1   0.0000
    90 H41      4.4594   4.4233   5.9611   H         1 RES1   0.0000
    91 C36      1.9315   2.3354   6.6289   C.3       1 RES1   0.0000
    92 H42      1.0097   2.2923   6.3644   H         1 RES1   0.0000
    93 H43      1.9907   2.3400   7.5874   H         1 RES1   0.0000
    94 H44      2.4005   1.5744   6.2819   H         1 RES1   0.0000
    95 N10      4.4531   4.8592   9.7042   N.2       1 RES1   0.0000
    96 N11      4.2715   3.8673   7.8733   N.pl3     1 RES1   0.0000
    97 N12      4.3792   5.0648   8.4052   N.2       1 RES1   0.0000
    98 O5       9.2525   1.7021  13.9762   O.3       1 RES1   0.0000
    99 H45      8.6998   1.1291  14.1713   H         1 RES1   0.0000
   100 O6       2.7982   7.0079  10.8578   O.3       1 RES1   0.0000
   101 Cl1      6.5747   5.1609  14.7845   Cl        2 RES2   0.0000
   102 Cl2      7.2672   6.3391  17.3023   Cl        2 RES2   0.0000
   103 C37      7.7705   6.0567  15.6569   C.3       2 RES2   0.0000
   104 H46      7.9224   6.9064  15.2161   H         2 RES2   0.0000
   105 H47      8.6066   5.5637  15.6550   H         2 RES2   0.0000
   106 Cl3      8.6517   9.6969  17.0959   Cl        3 RES3   0.0000
   107 Cl4      6.9211  11.0402  18.9794   Cl        3 RES3   0.0000
   108 C38      7.0009  10.1437  17.4538   C.3       3 RES3   0.0000
   109 H48      6.4554   9.3440  17.5176   H         3 RES3   0.0000
   110 H49      6.6502  10.6935  16.7354   H         3 RES3   0.0000
@<TRIPOS>BOND
     1     1     2    1
     2     2    12    2
     3     3     4    1
     4     5    74   ar
     5     6     1    1
     6     7    35    2
     7     8     6    1
     8     9    10    1
     9    10    51    1
    10    11    12    1
    11    13    11    1
    12    14     8   ar
    13    15    16    1
    14    17     2    1
    15    18    14   ar
    16    19    18    1
    17    20     8   ar
    18    21    20    1
    19    22    15   ar
    20    23    22    1
    21    24     1    1
    22    25    24    1
    23    26    25   ar
    24    27    28    1
    25    29    25   ar
    26    30    29    1
    27    31    26   ar
    28    32    31    1
    29    33    27   ar
    30    34    33    1
    31    35    26    1
    32    36    37    1
    33    37    11    1
    34    38    37    1
    35    39    37    1
    36    40    36    1
    37    41    40    1
    38    42    40    1
    39    43    36    1
    40    44    43    1
    41    45    43    1
    42    46    43    1
    43    47    36    1
    44    48    47    1
    45    49    47    1
    46    50    47    1
    47    51    52    1
    48    53    51    1
    49    54    55    1
    50    56    54    1
    51    57    54    1
    52    58    51    1
    53    59    58    1
    54    60    59    1
    55    61    59    1
    56    62    59    1
    57    63    58    1
    58    64    63    1
    59    65    63    1
    60    66    63    1
    61    67    66    1
    62    68    10    1
    63    69     1    1
    64    70    71    1
    65    72    73    1
    66    74    70   ar
    67    75    70   ar
    68    76    75    1
    69    77     5    1
    70    78     5   ar
    71    79    78    1
    72    80    81    1
    73    82    80    1
    74    83    80    1
    75    84     3    1
    76    85    84    1
    77    86    84    1
    78    87    80    1
    79    88    87    1
    80    89    88    1
    81    90    88    1
    82    91    87    1
    83    92    91    1
    84    93    91    1
    85    94    91    1
    86    95     1    1
    87    96     7    1
    88    97    95    2
    89    98    40    1
    90    99    98    1
    91   100     1    1
    92     9    77    2
    93    13    17    2
    94    14    17    1
    95    15    20   ar
    96    18    22   ar
    97    27    29   ar
    98    31    33   ar
    99    35    95    1
   100    54    58    1
   101    68    69    2
   102    69    77    1
   103    72    75   ar
   104    72    78   ar
   105    74   100    1
   106    84    87    1
   107    88    96    1
   108    96    97    1
   109   101   103    1
   110   102   103    1
   111   103   104    1
   112   105   103    1
   113   106   108    1
   114   107   108    1
   115   108   109    1
   116   110   108    1
@<TRIPOS>SUBSTRUCTURE
     1 RES1        1 GROUP             0 ****  ****    0  
     2 RES2      101 GROUP             0 ****  ****    0  
     3 RES3      106 GROUP             0 ****  ****    0  
@<TRIPOS>CRYSIN
   10.4626   22.7183   18.7859   90.0000   93.1520   90.0000    14     1
