@<TRIPOS>MOLECULE
FEPAST10
    97   108     6     0     0
SMALL
USER_CHARGES
****
Generated from the CSD

@<TRIPOS>ATOM
     1 C1      -3.0007  -4.6824  -4.1418   C.2       1 RES1   0.0000
     2 C2      -3.2329  -4.3767  -5.5866   C.3       1 RES1   0.0000
     3 C3      -6.5216  -7.6592  -6.5498   C.2       1 RES1   0.0000
     4 C4      -5.5721  -8.3382  -5.5986   C.3       1 RES1   0.0000
     5 H1      -3.0657  -3.4112  -5.8996   H         1 RES1   0.0000
     6 H2      -6.0757  -9.1074  -5.1050   H         1 RES1   0.0000
     7 O1      -1.9360  -4.3670  -3.6650   O.co2     1 RES1   0.0000
     8 O2      -3.9780  -5.2391  -3.5289   O.co2     1 RES1   0.0000
     9 O3      -4.5140  -4.8321  -6.0357   O.3       1 RES1   0.0000
    10 O4      -7.1171  -8.3656  -7.4010   O.co2     1 RES1   0.0000
    11 O5      -6.7427  -6.4299  -6.3908   O.co2     1 RES1   0.0000
    12 O6      -5.0510  -7.4162  -4.6619   O.3       1 RES1   0.0000
    13 Sb1     -5.6957  -5.5883  -4.7028   Sb        1 RES1  -1.0000
    14 C2C     -2.1739  -4.9881  -6.4534   C.3       1 RES1   0.0000
    15 C4C     -4.4350  -8.9947  -6.4414   C.3       1 RES1   0.0000
    16 C1C     -2.5548  -4.9399  -7.8982   C.2       1 RES1   0.0000
    17 H1C     -1.4214  -4.3606  -6.1404   H         1 RES1   0.0000
    18 O3C     -1.9277  -6.3253  -6.0043   O.3       1 RES1   0.0000
    19 C3C     -3.3723  -9.4775  -5.4902   C.2       1 RES1   0.0000
    20 H2C     -4.8494  -9.8154  -6.9350   H         1 RES1   0.0000
    21 O6C     -3.8972  -8.0824  -7.3781   O.3       1 RES1   0.0000
    22 O1C     -2.8139  -3.8602  -8.3750   O.co2     1 RES1   0.0000
    23 O2C     -2.5482  -6.0646  -8.5111   O.co2     1 RES1   0.0000
    24 Sb1C    -1.9918  -7.7268  -7.3372   Sb        1 RES1  -1.0000
    25 O4C     -3.6863 -10.3464  -4.6390   O.co2     1 RES1   0.0000
    26 O5C     -2.1971  -9.0543  -5.6492   O.co2     1 RES1   0.0000
    27 C5      -4.7202  -0.5229  -3.5638   C.ar      2 RES2   0.0000
    28 C6      -6.6600   1.4916  -1.5050   C.ar      2 RES2   0.0000
    29 C7      -6.7557   2.5777  -0.6742   C.ar      2 RES2   0.0000
    30 C8      -7.7079   3.5287  -0.8404   C.ar      2 RES2   0.0000
    31 C9      -9.5538   4.3702  -2.2876   C.ar      2 RES2   0.0000
    32 C10    -10.3268   4.2126  -3.3592   C.ar      2 RES2   0.0000
    33 C11    -10.8451   2.9382  -5.4541   C.ar      2 RES2   0.0000
    34 C12    -10.5107   1.8826  -6.2849   C.ar      2 RES2   0.0000
    35 C13     -9.5027   1.0025  -5.9225   C.ar      2 RES2   0.0000
    36 C14     -8.5645   3.4193  -1.9384   C.ar      2 RES2   0.0000
    37 C15    -10.1326   3.1071  -4.2911   C.ar      2 RES2   0.0000
    38 C16     -9.1460   2.1803  -3.9828   C.ar      2 RES2   0.0000
    39 C17     -8.3573   2.3299  -2.8041   C.ar      2 RES2   0.0000
    40 C18     -5.9772  -1.9405  -2.2996   C.ar      2 RES2   0.0000
    41 C19     -4.8494  -2.5102  -1.7458   C.ar      2 RES2   0.0000
    42 C20     -3.6417  -2.1240  -2.1190   C.ar      2 RES2   0.0000
    43 C21     -2.3132  -0.4666  -3.5879   C.ar      2 RES2   0.0000
    44 C22     -3.5209  -1.0459  -3.0702   C.ar      2 RES2   0.0000
    45 Fe1     -7.4041  -0.0000  -4.0129   Fe        2 RES2   2.0000
    46 H3      -6.9118  -2.2849  -2.0107   H         2 RES2   0.0000
    47 H4     -11.5753   3.5721  -5.7190   H         2 RES2   0.0000
    48 H5     -11.0087   1.7861  -7.1518   H         2 RES2   0.0000
    49 H6      -9.2621   0.2092  -6.5257   H         2 RES2   0.0000
    50 H7      -4.9237  -3.3147  -1.0716   H         2 RES2   0.0000
    51 H8      -2.8242  -2.5423  -1.7217   H         2 RES2   0.0000
    52 H9      -1.4400  -0.8206  -3.2628   H         2 RES2   0.0000
    53 H10     -5.9828   0.7724  -1.3244   H         2 RES2   0.0000
    54 H11     -6.1314   2.6711   0.1445   H         2 RES2   0.0000
    55 H12     -7.7664   4.3123  -0.1806   H         2 RES2   0.0000
    56 H13     -9.7266   5.1651  -1.6976   H         2 RES2   0.0000
    57 H14    -11.0551   4.8916  -3.5518   H         2 RES2   0.0000
    58 N1      -5.9400  -0.9719  -3.1593   N.ar      2 RES2   0.0000
    59 N2      -7.4404   1.3597  -2.5766   N.ar      2 RES2   0.0000
    60 N3      -8.8227   1.1344  -4.7871   N.ar      2 RES2   0.0000
    61 C5D     -4.7202   0.5229  -4.4628   C.ar      2 RES2   0.0000
    62 C21D    -2.3132   0.4666  -4.4387   C.ar      2 RES2   0.0000
    63 N1D     -5.9400   0.9719  -4.8674   N.ar      2 RES2   0.0000
    64 N2D     -7.4404  -1.3597  -5.4501   N.ar      2 RES2   0.0000
    65 N3D     -8.8227  -1.1344  -3.2396   N.ar      2 RES2   0.0000
    66 C22D    -3.5209   1.0459  -4.9565   C.ar      2 RES2   0.0000
    67 H9D     -1.4400   0.8206  -4.7638   H         2 RES2   0.0000
    68 C18D    -5.9772   1.9405  -5.7270   C.ar      2 RES2   0.0000
    69 C6D     -6.6600  -1.4916  -6.5217   C.ar      2 RES2   0.0000
    70 C17D    -8.3573  -2.3299  -5.2226   C.ar      2 RES2   0.0000
    71 C13D    -9.5027  -1.0025  -2.1042   C.ar      2 RES2   0.0000
    72 C16D    -9.1460  -2.1803  -4.0438   C.ar      2 RES2   0.0000
    73 C20D    -3.6417   2.1240  -5.9076   C.ar      2 RES2   0.0000
    74 C19D    -4.8494   2.5102  -6.2809   C.ar      2 RES2   0.0000
    75 H3D     -6.9118   2.2849  -6.0160   H         2 RES2   0.0000
    76 C7D     -6.7557  -2.5777  -7.3524   C.ar      2 RES2   0.0000
    77 H10D    -5.9828  -0.7724  -6.7023   H         2 RES2   0.0000
    78 C14D    -8.5645  -3.4193  -6.0882   C.ar      2 RES2   0.0000
    79 C12D   -10.5107  -1.8826  -1.7418   C.ar      2 RES2   0.0000
    80 H6D     -9.2621  -0.2092  -1.5010   H         2 RES2   0.0000
    81 C15D   -10.1326  -3.1071  -3.7356   C.ar      2 RES2   0.0000
    82 H8D     -2.8242   2.5423  -6.3049   H         2 RES2   0.0000
    83 H7D     -4.9237   3.3147  -6.9551   H         2 RES2   0.0000
    84 C8D     -7.7079  -3.5287  -7.1863   C.ar      2 RES2   0.0000
    85 H11D    -6.1314  -2.6711  -8.1711   H         2 RES2   0.0000
    86 C9D     -9.5538  -4.3702  -5.7391   C.ar      2 RES2   0.0000
    87 C11D   -10.8451  -2.9382  -2.5725   C.ar      2 RES2   0.0000
    88 H5D    -11.0087  -1.7861  -0.8749   H         2 RES2   0.0000
    89 C10D   -10.3268  -4.2126  -4.6675   C.ar      2 RES2   0.0000
    90 H12D    -7.7664  -4.3123  -7.8461   H         2 RES2   0.0000
    91 H13D    -9.7266  -5.1651  -6.3290   H         2 RES2   0.0000
    92 H4D    -11.5753  -3.5721  -2.3077   H         2 RES2   0.0000
    93 H14D   -11.0551  -4.8916  -4.4749   H         2 RES2   0.0000
    94 O7       1.7186  -5.1008  -1.1920   O.3       3 RES3   0.0000
    95 O8       1.4028   1.1103  -4.8040   O.3       4 RES4   0.0000
    96 O9       4.4128   1.2712  -5.0688   O.3       5 RES5   0.0000
    97 O10      0.7525   3.6848  -3.5879   O.3       6 RES6   0.0000
@<TRIPOS>BOND
     1     1     2    1
     2     2     5    1
     3     3     4    1
     4     4     6    1
     5     7     1    2
     6     8     1    1
     7     9     2    1
     8    10     3    2
     9    11     3    1
    10    12     4    1
    11    13     8    1
    12    14     2    1
    13    15     4    1
    14    16    14    1
    15    17    14    1
    16    18    14    1
    17    19    15    1
    18    20    15    1
    19    21    15    1
    20    22    16    2
    21    23    16    1
    22    24    18    1
    23    25    19    2
    24    26    19    1
    25     9    13    1
    26    11    13    1
    27    12    13    1
    28    21    24    1
    29    23    24    1
    30    24    26    1
    31    27    44   ar
    32    28    29   ar
    33    29    30   ar
    34    30    36   ar
    35    31    32   ar
    36    32    37   ar
    37    33    34   ar
    38    34    35   ar
    39    35    49    1
    40    36    31   ar
    41    37    33   ar
    42    38    37   ar
    43    39    36   ar
    44    40    41   ar
    45    41    42   ar
    46    42    44   ar
    47    43    44   ar
    48    45    58    1
    49    46    40    1
    50    47    33    1
    51    48    34    1
    52    50    41    1
    53    51    42    1
    54    52    43    1
    55    53    28    1
    56    54    29    1
    57    55    30    1
    58    56    31    1
    59    57    32    1
    60    58    27   ar
    61    59    28   ar
    62    60    35   ar
    63    61    27   ar
    64    62    43   ar
    65    63    45    1
    66    64    45    1
    67    65    45    1
    68    66    61   ar
    69    67    62    1
    70    68    63   ar
    71    69    64   ar
    72    70    64   ar
    73    71    65   ar
    74    72    65   ar
    75    73    66   ar
    76    74    68   ar
    77    75    68    1
    78    76    69   ar
    79    77    69    1
    80    78    70   ar
    81    79    71   ar
    82    80    71    1
    83    81    72   ar
    84    82    73    1
    85    83    74    1
    86    84    76   ar
    87    85    76    1
    88    86    78   ar
    89    87    79   ar
    90    88    79    1
    91    89    81   ar
    92    90    84    1
    93    91    86    1
    94    92    87    1
    95    93    89    1
    96    38    39   ar
    97    38    60   ar
    98    39    59   ar
    99    40    58   ar
   100    45    59    1
   101    45    60    1
   102    61    63   ar
   103    62    66   ar
   104    70    72   ar
   105    73    74   ar
   106    78    84   ar
   107    81    87   ar
   108    86    89   ar
@<TRIPOS>SUBSTRUCTURE
     1 RES1        1 GROUP             0 ****  ****    0  
     2 RES2       27 GROUP             0 ****  ****    0  
     3 RES3       94 GROUP             0 ****  ****    0  
     4 RES4       95 GROUP             0 ****  ****    0  
     5 RES5       96 GROUP             0 ****  ****    0  
     6 RES6       97 GROUP             0 ****  ****    0  
@<TRIPOS>CRYSIN
   18.5800   18.5800   12.0400   90.0000   90.0000  120.0000   154     1
