@<TRIPOS>MOLECULE
FEPHSQ
    65    78     2     0     0
SMALL
NO_CHARGES
****
Generated from the CSD

@<TRIPOS>ATOM
     1 Fe1      1.9496  -3.7175   2.9679   Fe        1 RES1   0.0000
     2 O1       1.6490  -5.7105   2.8742   O.2       1 RES1   0.0000
     3 O2       3.8273  -4.3646   2.5016   O.2       1 RES1   0.0000
     4 C1       2.7067  -6.3825   2.5630   C.2       1 RES1   0.0000
     5 C2       3.8941  -5.6374   2.3219   C.2       1 RES1   0.0000
     6 C3       5.1019  -6.3097   1.8937   C.ar      1 RES1   0.0000
     7 C4       5.0924  -7.7168   1.7652   C.ar      1 RES1   0.0000
     8 C5       3.8789  -8.4853   2.0633   C.ar      1 RES1   0.0000
     9 C6       2.6926  -7.8237   2.4578   C.ar      1 RES1   0.0000
    10 C7       1.5366  -8.5422   2.7588   C.ar      1 RES1   0.0000
    11 C8       1.5338  -9.9097   2.6653   C.ar      1 RES1   0.0000
    12 C9       2.6973 -10.5812   2.2897   C.ar      1 RES1   0.0000
    13 C10      3.8463  -9.8798   1.9975   C.ar      1 RES1   0.0000
    14 C11      6.2683  -5.5646   1.5986   C.ar      1 RES1   0.0000
    15 C12      7.4078  -6.2133   1.1792   C.ar      1 RES1   0.0000
    16 C13      7.3977  -7.5887   1.0258   C.ar      1 RES1   0.0000
    17 C14      6.2651  -8.3215   1.3093   C.ar      1 RES1   0.0000
    18 O3       2.2292  -3.4839   4.9448   O.2       1 RES1   0.0000
    19 O4       0.0604  -3.2959   3.5552   O.2       1 RES1   0.0000
    20 C15      1.2114  -2.9863   5.5410   C.2       1 RES1   0.0000
    21 C16     -0.0056  -2.9031   4.7797   C.2       1 RES1   0.0000
    22 C17     -1.2004  -2.3542   5.3700   C.ar      1 RES1   0.0000
    23 C18     -1.1490  -1.8531   6.6837   C.ar      1 RES1   0.0000
    24 C19      0.0855  -1.9476   7.4727   C.ar      1 RES1   0.0000
    25 C20      1.2477  -2.5173   6.9101   C.ar      1 RES1   0.0000
    26 C21      2.4351  -2.6218   7.6583   C.ar      1 RES1   0.0000
    27 C22      2.4831  -2.1509   8.9369   C.ar      1 RES1   0.0000
    28 C23      1.3560  -1.6078   9.5024   C.ar      1 RES1   0.0000
    29 C24      0.1793  -1.4994   8.8010   C.ar      1 RES1   0.0000
    30 C25     -2.4048  -2.3110   4.6438   C.ar      1 RES1   0.0000
    31 C26     -3.5341  -1.7386   5.1830   C.ar      1 RES1   0.0000
    32 C27     -3.4512  -1.2021   6.4645   C.ar      1 RES1   0.0000
    33 C28     -2.3015  -1.2561   7.1965   C.ar      1 RES1   0.0000
    34 O5       2.6399  -1.8147   2.7266   O.2       1 RES1   0.0000
    35 O6       1.3395  -3.3350   1.0638   O.2       1 RES1   0.0000
    36 C29      2.3793  -1.3265   1.5767   C.2       1 RES1   0.0000
    37 C30      1.6235  -2.1573   0.6692   C.2       1 RES1   0.0000
    38 C31      1.1639  -1.6224  -0.5889   C.ar      1 RES1   0.0000
    39 C32      1.5260  -0.3076  -0.9527   C.ar      1 RES1   0.0000
    40 C33      2.4379   0.4828  -0.0848   C.ar      1 RES1   0.0000
    41 C34      2.8411  -0.0179   1.1675   C.ar      1 RES1   0.0000
    42 C35      3.6995   0.7172   1.9917   C.ar      1 RES1   0.0000
    43 C36      4.1830   1.9419   1.5547   C.ar      1 RES1   0.0000
    44 C37      3.8117   2.4273   0.3259   C.ar      1 RES1   0.0000
    45 C38      2.9547   1.7253  -0.4778   C.ar      1 RES1   0.0000
    46 C39      0.3318  -2.3785  -1.4145   C.ar      1 RES1   0.0000
    47 C40     -0.1454  -1.8524  -2.5834   C.ar      1 RES1   0.0000
    48 C41      0.1902  -0.5611  -2.9502   C.ar      1 RES1   0.0000
    49 C42      1.0025   0.2150  -2.1451   C.ar      1 RES1   0.0000
    50 O7       1.3537  -9.9256   6.4046   O.2       2 RES2   0.0000
    51 O8       3.4371  -8.4238   5.5936   O.2       2 RES2   0.0000
    52 C43      2.3638 -10.4844   6.0436   C.2       2 RES2   0.0000
    53 C44      3.5781  -9.6277   5.6447   C.2       2 RES2   0.0000
    54 C45      4.8236 -10.3017   5.3072   C.ar      2 RES2   0.0000
    55 C46      4.9035 -11.6958   5.2677   C.ar      2 RES2   0.0000
    56 C47      3.7416 -12.5356   5.6009   C.ar      2 RES2   0.0000
    57 C48      2.5113 -11.9586   5.9750   C.ar      2 RES2   0.0000
    58 C49      1.4228 -12.7464   6.3432   C.ar      2 RES2   0.0000
    59 C50      1.5079 -14.1156   6.2920   C.ar      2 RES2   0.0000
    60 C51      2.6984 -14.6993   5.8887   C.ar      2 RES2   0.0000
    61 C52      3.7636 -13.9259   5.5541   C.ar      2 RES2   0.0000
    62 C53      5.9255  -9.5112   5.0179   C.ar      2 RES2   0.0000
    63 C54      7.1191 -10.0837   4.6862   C.ar      2 RES2   0.0000
    64 C55      7.2187 -11.4631   4.6336   C.ar      2 RES2   0.0000
    65 C56      6.1323 -12.2584   4.9141   C.ar      2 RES2   0.0000
@<TRIPOS>BOND
     1     1     2    1
     2     2     4   un
     3     3     1    1
     4     4     5   un
     5     5     3   un
     6     6     5    1
     7     7     6   ar
     8     8     7    1
     9     9     4    1
    10    10     9   ar
    11    11    10   ar
    12    12    11   ar
    13    13     8   ar
    14    14     6   ar
    15    15    14   ar
    16    16    15   ar
    17    17     7   ar
    18    18     1    1
    19    19     1    1
    20    20    18   un
    21    21    19   un
    22    22    21    1
    23    23    22   ar
    24    24    23    1
    25    25    20    1
    26    26    25   ar
    27    27    26   ar
    28    28    27   ar
    29    29    24   ar
    30    30    22   ar
    31    31    30   ar
    32    32    31   ar
    33    33    23   ar
    34    34     1    1
    35    35     1    1
    36    36    34   un
    37    37    35   un
    38    38    37    1
    39    39    38   ar
    40    40    39    1
    41    41    36    1
    42    42    41   ar
    43    43    42   ar
    44    44    43   ar
    45    45    40   ar
    46    46    38   ar
    47    47    46   ar
    48    48    47   ar
    49    49    39   ar
    50     8     9   ar
    51    12    13   ar
    52    16    17   ar
    53    20    21   un
    54    24    25   ar
    55    28    29   ar
    56    32    33   ar
    57    36    37   un
    58    40    41   ar
    59    44    45   ar
    60    48    49   ar
    61    50    52    2
    62    51    53    2
    63    52    53    1
    64    53    54    1
    65    54    55   ar
    66    55    56    1
    67    56    57   ar
    68    57    52    1
    69    58    57   ar
    70    59    58   ar
    71    60    59   ar
    72    61    56   ar
    73    62    54   ar
    74    63    62   ar
    75    64    63   ar
    76    65    55   ar
    77    60    61   ar
    78    64    65   ar
@<TRIPOS>SUBSTRUCTURE
     1 RES1        1 GROUP             0 ****  ****    0  
     2 RES2       50 GROUP             0 ****  ****    0  
@<TRIPOS>CRYSIN
    8.8320   15.6210   16.4750  117.3600   91.8400   91.7500     2     1
