@<TRIPOS>MOLECULE
FEQCEN
    78    82     2     0     0
SMALL
USER_CHARGES
****
Generated from the CSD

@<TRIPOS>ATOM
     1 Fe1      6.6704  10.1850  10.0405   Fe        1 RES1   2.0000
     2 O1       4.0692   6.4003   6.9382   O.2       1 RES1   0.0000
     3 O2       1.9873   5.9114   6.5739   O.2       1 RES1   0.0000
     4 N1       6.2749   8.5746  11.1513   N.2       1 RES1   0.0000
     5 N2       7.8182   9.0638   8.8491   N.2       1 RES1   0.0000
     6 N3       3.4715   8.8470   7.8408   N.pl3     1 RES1   0.0000
     7 N4       6.2907   6.7694  12.3046   N.pl3     1 RES1   0.0000
     8 N5       9.3454   8.1850   7.6269   N.pl3     1 RES1   0.0000
     9 N6       5.0826   9.7719   8.9043   N.2       1 RES1   0.0000
    10 N7       2.8809   6.6621   6.9237   N.pl3     1 RES1   0.0000
    11 N8       5.0936   8.4505  11.8427   N.2       1 RES1   0.0000
    12 O3       7.1828   4.9204  15.1274   O.2       1 RES1   0.0000
    13 N9       5.1023   7.3768  12.5438   N.2       1 RES1   0.0000
    14 N10      7.2982   8.0062   8.1346   N.2       1 RES1   0.0000
    15 N11      3.5216  10.1325   7.4308   N.2       1 RES1   0.0000
    16 O4       9.7720   8.7897   5.0590   O.2       1 RES1   0.0000
    17 N12      4.4833  10.6874   8.0741   N.2       1 RES1   0.0000
    18 N13      8.2109   7.4827   7.4008   N.2       1 RES1   0.0000
    19 N14      7.1751   5.8411  14.3420   N.pl3     1 RES1   0.0000
    20 N15     10.7397   8.3807   5.6393   N.pl3     1 RES1   0.0000
    21 O5       7.5678   6.9574  14.5715   O.2       1 RES1   0.0000
    22 O6      11.8904   8.3303   5.2152   O.2       1 RES1   0.0000
    23 C1       6.9955   7.5187  11.4580   C.2       1 RES1   0.0000
    24 H1       7.8665   7.3239  11.1325   H         1 RES1   0.0000
    25 C2       9.0888   9.1450   8.5139   C.2       1 RES1   0.0000
    26 H2       9.7139   9.7782   8.8468   H         1 RES1   0.0000
    27 C3       6.6157   5.5443  12.9695   C.3       1 RES1   0.0000
    28 H3       7.2834   5.0426  12.4380   H         1 RES1   0.0000
    29 H4       5.8036   4.9843  13.0538   H         1 RES1   0.0000
    30 C4       2.3907   7.9937   7.4209   C.3       1 RES1   0.0000
    31 H5       1.8826   8.4433   6.6999   H         1 RES1   0.0000
    32 H6       1.7750   7.8499   8.1827   H         1 RES1   0.0000
    33 C5       4.4296   8.6449   8.7451   C.2       1 RES1   0.0000
    34 H7       4.6084   7.8278   9.1954   H         1 RES1   0.0000
    35 C6      10.5959   7.8180   7.0173   C.3       1 RES1   0.0000
    36 H8      10.6583   6.8306   6.9733   H         1 RES1   0.0000
    37 H9      11.3408   8.1445   7.5815   H         1 RES1   0.0000
    38 O1D      9.2716  13.9697  13.1428   O.2       1 RES1   0.0000
    39 O2D     11.3536  14.4586  13.5070   O.2       1 RES1   0.0000
    40 N1D      7.0660  11.7954   8.9296   N.2       1 RES1   0.0000
    41 N2D      5.5227  11.3062  11.2319   N.2       1 RES1   0.0000
    42 N3D      9.8694  11.5230  12.2401   N.pl3     1 RES1   0.0000
    43 N4D      7.0502  13.6006   7.7763   N.pl3     1 RES1   0.0000
    44 N5D      3.9955  12.1850  12.4540   N.pl3     1 RES1   0.0000
    45 N6D      8.2583  10.5981  11.1767   N.2       1 RES1   0.0000
    46 N7D     10.4600  13.7079  13.1572   N.pl3     1 RES1   0.0000
    47 N8D      8.2473  11.9195   8.2382   N.2       1 RES1   0.0000
    48 O3D      6.1581  15.4496   4.9536   O.2       1 RES1   0.0000
    49 N9D      8.2386  12.9932   7.5372   N.2       1 RES1   0.0000
    50 N10D     6.0427  12.3638  11.9464   N.2       1 RES1   0.0000
    51 N11D     9.8192  10.2375  12.6502   N.2       1 RES1   0.0000
    52 O4D      3.5689  11.5803  15.0220   O.2       1 RES1   0.0000
    53 N12D     8.8576   9.6826  12.0068   N.2       1 RES1   0.0000
    54 N13D     5.1300  12.8873  12.6801   N.2       1 RES1   0.0000
    55 N14D     6.1658  14.5289   5.7389   N.pl3     1 RES1   0.0000
    56 N15D     2.6012  11.9893  14.4416   N.pl3     1 RES1   0.0000
    57 O5D      5.7730  13.4126   5.5094   O.2       1 RES1   0.0000
    58 O6D      1.4505  12.0397  14.8657   O.2       1 RES1   0.0000
    59 C1D      6.3453  12.8513   8.6230   C.2       1 RES1   0.0000
    60 H1D      5.4744  13.0461   8.9484   H         1 RES1   0.0000
    61 C2D      4.2521  11.2250  11.5670   C.2       1 RES1   0.0000
    62 H2D      3.6270  10.5918  11.2342   H         1 RES1   0.0000
    63 C3D      6.7252  14.8257   7.1115   C.3       1 RES1   0.0000
    64 H3D      6.0575  15.3274   7.6429   H         1 RES1   0.0000
    65 H4D      7.5373  15.3857   7.0271   H         1 RES1   0.0000
    66 C4D     10.9502  12.3763  12.6600   C.3       1 RES1   0.0000
    67 H5D     11.4583  11.9267  13.3811   H         1 RES1   0.0000
    68 H6D     11.5659  12.5201  11.8982   H         1 RES1   0.0000
    69 C5D      8.9113  11.7251  11.3359   C.2       1 RES1   0.0000
    70 H7D      8.7325  12.5422  10.8855   H         1 RES1   0.0000
    71 C6D      2.7450  12.5520  13.0637   C.3       1 RES1   0.0000
    72 H8D      2.6826  13.5394  13.1077   H         1 RES1   0.0000
    73 H9D      2.0001  12.2255  12.4995   H         1 RES1   0.0000
    74 Cl1      3.6374   5.0316  10.1471   Cl        2 RES2   0.0000
    75 O7       4.9248   5.5570   9.7591   O.2       2 RES2   0.0000
    76 O8       2.5940   5.9247   9.6929   O.3       2 RES2  -1.0000
    77 O9       3.5769   4.9272  11.5741   O.2       2 RES2   0.0000
    78 O10      3.4523   3.7340   9.5529   O.2       2 RES2   0.0000
@<TRIPOS>BOND
     1     1     4    1
     2     2    10    2
     3     3    10    2
     4     4    11    1
     5     5     1    1
     6     6    15    1
     7     7    13    1
     8     8    18    1
     9     9     1    1
    10    10    30    1
    11    11    13    2
    12    12    19    2
    13    14     5    1
    14    15    17    2
    15    16    20    2
    16    17     9    1
    17    18    14    2
    18    19    21    2
    19    20    22    2
    20    23     4    2
    21    24    23    1
    22    25     5    2
    23    26    25    1
    24    27     7    1
    25    28    27    1
    26    29    27    1
    27    30     6    1
    28    31    30    1
    29    32    30    1
    30    33     6    1
    31    34    33    1
    32    35     8    1
    33    36    35    1
    34    37    35    1
    35    38    46    2
    36    39    46    2
    37    40     1    1
    38    41     1    1
    39    42    51    1
    40    43    49    1
    41    44    54    1
    42    45     1    1
    43    46    66    1
    44    47    40    1
    45    48    55    2
    46    49    47    2
    47    50    41    1
    48    51    53    2
    49    52    56    2
    50    53    45    1
    51    54    50    2
    52    55    57    2
    53    56    58    2
    54    59    40    2
    55    60    59    1
    56    61    41    2
    57    62    61    1
    58    63    43    1
    59    64    63    1
    60    65    63    1
    61    66    42    1
    62    67    66    1
    63    68    66    1
    64    69    42    1
    65    70    69    1
    66    71    44    1
    67    72    71    1
    68    73    71    1
    69     7    23    1
    70     8    25    1
    71     9    33    2
    72    19    27    1
    73    20    35    1
    74    43    59    1
    75    44    61    1
    76    45    69    2
    77    55    63    1
    78    56    71    1
    79    74    75    2
    80    76    74    1
    81    77    74    2
    82    78    74    2
@<TRIPOS>SUBSTRUCTURE
     1 RES1        1 GROUP             0 ****  ****    0  
     2 RES2       74 GROUP             0 ****  ****    0  
@<TRIPOS>CRYSIN
   18.1204   10.1850   20.6419   90.0000  103.3880   90.0000    15     1
