@<TRIPOS>MOLECULE
FEQCEN01
    78    82     2     0     0
SMALL
USER_CHARGES
****
Generated from the CSD

@<TRIPOS>ATOM
     1 Fe1      6.7816   0.0000  10.3106   Fe        1 RES1   2.0000
     2 O1       9.5084   3.7921  13.5062   O.2       1 RES1   0.0000
     3 O2      11.5858   4.2953  13.8673   O.2       1 RES1   0.0000
     4 N1       7.1337   3.5617   7.9389   N.pl3     1 RES1   0.0000
     5 N2      10.1117   1.3549  12.6082   N.pl3     1 RES1   0.0000
     6 N3       3.9955   2.0225  12.9024   N.pl3     1 RES1   0.0000
     7 N4       5.5226   1.1622  11.6664   N.2       1 RES1   0.0000
     8 N5       7.1888   1.8000   9.1546   N.2       1 RES1   0.0000
     9 N6      10.6978   3.5365  13.5198   N.pl3     1 RES1   0.0000
    10 N7       8.4983   0.4311  11.5567   N.2       1 RES1   0.0000
    11 N8       8.3503   2.9947   7.7513   N.2       1 RES1   0.0000
    12 N9       8.3795   1.9473   8.4833   N.2       1 RES1   0.0000
    13 N10      6.0426   2.2052  12.3948   N.2       1 RES1   0.0000
    14 N11     10.0166   0.0904  13.0757   N.2       1 RES1   0.0000
    15 O3       3.5179   1.4583  15.4731   O.2       1 RES1   0.0000
    16 N12      6.2496   4.3821   5.8543   N.pl3     1 RES1   0.0000
    17 N13      5.1327   2.7219  13.1338   N.2       1 RES1   0.0000
    18 N14      9.0470  -0.4646  12.4403   N.2       1 RES1   0.0000
    19 O4       6.1886   5.2849   5.0522   O.2       1 RES1   0.0000
    20 N15      2.5655   1.8474  14.8681   N.pl3     1 RES1   0.0000
    21 O5       5.9482   3.2373   5.6380   O.2       1 RES1   0.0000
    22 C1       6.4430   2.8114   8.7920   C.2       1 RES1   0.0000
    23 H1       5.5565   2.9813   9.0885   H         1 RES1   0.0000
    24 C2       4.2599   1.0731  12.0027   C.2       1 RES1   0.0000
    25 H2       3.6378   0.4402  11.6637   H         1 RES1   0.0000
    26 O6       1.3980   1.8821  15.2599   O.2       1 RES1   0.0000
    27 C3      11.1922   2.2085  13.0190   C.3       1 RES1   0.0000
    28 H3      11.8014   2.3554  12.2526   H         1 RES1   0.0000
    29 H4      11.7072   1.7607  13.7360   H         1 RES1   0.0000
    30 C4       6.7737   4.7487   7.2250   C.3       1 RES1   0.0000
    31 H5       7.5649   5.3365   7.1339   H         1 RES1   0.0000
    32 H6       6.0779   5.2425   7.7275   H         1 RES1   0.0000
    33 C5       9.1795   1.5363  11.6798   C.2       1 RES1   0.0000
    34 H7       9.0336   2.3360  11.1883   H         1 RES1   0.0000
    35 C6       2.7443   2.4030  13.4914   C.3       1 RES1   0.0000
    36 H8       2.0052   2.0832  12.9152   H         1 RES1   0.0000
    37 H9       2.6923   3.3904  13.5313   H         1 RES1   0.0000
    38 O1D      4.0547  -3.7921   7.1149   O.2       1 RES1   0.0000
    39 O2D      1.9773  -4.2953   6.7538   O.2       1 RES1   0.0000
    40 N1D      6.4295  -3.5617  12.6822   N.pl3     1 RES1   0.0000
    41 N2D      3.4514  -1.3549   8.0130   N.pl3     1 RES1   0.0000
    42 N3D      9.5676  -2.0225   7.7187   N.pl3     1 RES1   0.0000
    43 N4D      8.0405  -1.1622   8.9547   N.2       1 RES1   0.0000
    44 N5D      6.3743  -1.8000  11.4666   N.2       1 RES1   0.0000
    45 N6D      2.8653  -3.5365   7.1013   N.pl3     1 RES1   0.0000
    46 N7D      5.0648  -0.4311   9.0644   N.2       1 RES1   0.0000
    47 N8D      5.2128  -2.9947  12.8699   N.2       1 RES1   0.0000
    48 N9D      5.1837  -1.9473  12.1378   N.2       1 RES1   0.0000
    49 N10D     7.5205  -2.2052   8.2264   N.2       1 RES1   0.0000
    50 N11D     3.5465  -0.0904   7.5455   N.2       1 RES1   0.0000
    51 O3D     10.0452  -1.4583   5.1481   O.2       1 RES1   0.0000
    52 N12D     7.3136  -4.3821  14.7668   N.pl3     1 RES1   0.0000
    53 N13D     8.4305  -2.7219   7.4873   N.2       1 RES1   0.0000
    54 N14D     4.5161   0.4646   8.1808   N.2       1 RES1   0.0000
    55 O4D      7.3746  -5.2849  15.5690   O.2       1 RES1   0.0000
    56 N15D    10.9976  -1.8474   5.7531   N.pl3     1 RES1   0.0000
    57 O5D      7.6149  -3.2373  14.9831   O.2       1 RES1   0.0000
    58 C1D      7.1201  -2.8114  11.8291   C.2       1 RES1   0.0000
    59 H1D      8.0066  -2.9813  11.5327   H         1 RES1   0.0000
    60 C2D      9.3032  -1.0731   8.6184   C.2       1 RES1   0.0000
    61 H2D      9.9253  -0.4402   8.9574   H         1 RES1   0.0000
    62 O6D     12.1651  -1.8821   5.3613   O.2       1 RES1   0.0000
    63 C3D      2.3709  -2.2085   7.6022   C.3       1 RES1   0.0000
    64 H3D      1.7617  -2.3554   8.3686   H         1 RES1   0.0000
    65 H4D      1.8559  -1.7607   6.8851   H         1 RES1   0.0000
    66 C4D      6.7895  -4.7487  13.3961   C.3       1 RES1   0.0000
    67 H5D      5.9982  -5.3365  13.4872   H         1 RES1   0.0000
    68 H6D      7.4852  -5.2425  12.8936   H         1 RES1   0.0000
    69 C5D      4.3837  -1.5363   8.9413   C.2       1 RES1   0.0000
    70 H7D      4.5295  -2.3360   9.4329   H         1 RES1   0.0000
    71 C6D     10.8189  -2.4030   7.1298   C.3       1 RES1   0.0000
    72 H8D     11.5579  -2.0832   7.7059   H         1 RES1   0.0000
    73 H9D     10.8708  -3.3904   7.0898   H         1 RES1   0.0000
    74 Cl1      9.8978   5.1781  10.2838   Cl        2 RES2   0.0000
    75 O7       8.6100   4.6269  10.6088   O.2       2 RES2   0.0000
    76 O8      10.9314   4.2512  10.6768   O.3       2 RES2  -1.0000
    77 O9       9.9824   5.3942   8.8766   O.2       2 RES2   0.0000
    78 O10     10.0750   6.4157  10.9851   O.2       2 RES2   0.0000
@<TRIPOS>BOND
     1     1     7    1
     2     2     9    2
     3     3     9    2
     4     4    11    1
     5     5    14    1
     6     6    17    1
     7     7    13    1
     8     8     1    1
     9     9    27    1
    10    10     1    1
    11    11    12    2
    12    12     8    1
    13    13    17    2
    14    14    18    2
    15    15    20    2
    16    16    19    2
    17    18    10    1
    18    20    26    2
    19    21    16    2
    20    22     4    1
    21    23    22    1
    22    24     6    1
    23    25    24    1
    24    27     5    1
    25    28    27    1
    26    29    27    1
    27    30     4    1
    28    31    30    1
    29    32    30    1
    30    33     5    1
    31    34    33    1
    32    35     6    1
    33    36    35    1
    34    37    35    1
    35    38    45    2
    36    39    45    2
    37    40    47    1
    38    41    50    1
    39    42    53    1
    40    43     1    1
    41    44     1    1
    42    45    63    1
    43    46     1    1
    44    47    48    2
    45    48    44    1
    46    49    43    1
    47    50    54    2
    48    51    56    2
    49    52    55    2
    50    53    49    2
    51    54    46    1
    52    56    62    2
    53    57    52    2
    54    58    40    1
    55    59    58    1
    56    60    42    1
    57    61    60    1
    58    63    41    1
    59    64    63    1
    60    65    63    1
    61    66    40    1
    62    67    66    1
    63    68    66    1
    64    69    41    1
    65    70    69    1
    66    71    42    1
    67    72    71    1
    68    73    71    1
    69     7    24    2
    70     8    22    2
    71    10    33    2
    72    16    30    1
    73    20    35    1
    74    43    60    2
    75    44    58    2
    76    46    69    2
    77    52    66    1
    78    56    71    1
    79    74    75    2
    80    76    74    1
    81    77    74    2
    82    78    74    2
@<TRIPOS>SUBSTRUCTURE
     1 RES1        1 GROUP             0 ****  ****    0  
     2 RES2       74 GROUP             0 ****  ****    0  
@<TRIPOS>CRYSIN
   18.3493   10.2124   21.1693   90.0000  103.0670   90.0000    15     1
