@<TRIPOS>MOLECULE
FEWGOD
    51    53     2     0     0
SMALL
NO_CHARGES
****
Generated from the CSD

@<TRIPOS>ATOM
     1 Fe1      5.3348   0.0000   2.1603   Fe        1 RES1   0.0000
     2 P1       7.4972   0.0816   1.3826   P.3       1 RES1   0.0000
     3 O1       4.7734   2.4911   0.8460   O.3       1 RES1   0.0000
     4 O2       6.2410  -0.3701   4.8925   O.3       1 RES1   0.0000
     5 N1       5.1822   1.9001   2.0030   N.2       1 RES1   0.0000
     6 N2       5.8783   0.5253   3.8945   N.2       1 RES1   0.0000
     7 C1       5.4954   2.6204   3.0529   C.2       1 RES1   0.0000
     8 C2       5.9045   1.7907   4.1814   C.2       1 RES1   0.0000
     9 C3       5.4238   4.1067   3.1177   C.3       1 RES1   0.0000
    10 C4       6.3106   2.3299   5.5112   C.3       1 RES1   0.0000
    11 C5       7.9783  -1.3589   0.3629   C.ar      1 RES1   0.0000
    12 C6       8.4651  -2.5169   0.9617   C.ar      1 RES1   0.0000
    13 C7       8.7904  -3.6192   0.1884   C.ar      1 RES1   0.0000
    14 C8       8.6360  -3.5794  -1.1795   C.ar      1 RES1   0.0000
    15 C9       8.1284  -2.4632  -1.7826   C.ar      1 RES1   0.0000
    16 C10      7.7953  -1.3530  -1.0127   C.ar      1 RES1   0.0000
    17 C11      8.7745   0.1194   2.6986   C.3       1 RES1   0.0000
    18 C12     10.2332   0.1094   2.2311   C.3       1 RES1   0.0000
    19 C13      7.9310   1.4684   0.2644   C.3       1 RES1   0.0000
    20 C14      8.2006   2.8074   0.8658   C.3       1 RES1   0.0000
    21 H1       6.1935  -1.2475   4.4769   H         1 RES1   0.0000
    22 P1E      3.1723  -0.0816   2.9379   P.3       1 RES1   0.0000
    23 N1E      5.4873  -1.9001   2.3175   N.2       1 RES1   0.0000
    24 N2E      4.7912  -0.5253   0.4260   N.2       1 RES1   0.0000
    25 C5E      2.6912   1.3589   3.9576   C.ar      1 RES1   0.0000
    26 C11E     1.8950  -0.1194   1.6219   C.3       1 RES1   0.0000
    27 C13E     2.7385  -1.4684   4.0561   C.3       1 RES1   0.0000
    28 O1E      5.8961  -2.4911   3.4745   O.3       1 RES1   0.0000
    29 C1E      5.1741  -2.6204   1.2676   C.2       1 RES1   0.0000
    30 O2E      4.4285   0.3701  -0.5720   O.3       1 RES1   0.0000
    31 C2E      4.7650  -1.7907   0.1391   C.2       1 RES1   0.0000
    32 C6E      2.2044   2.5169   3.3588   C.ar      1 RES1   0.0000
    33 C10E     2.8742   1.3530   5.3332   C.ar      1 RES1   0.0000
    34 C12E     0.4363  -0.1094   2.0894   C.3       1 RES1   0.0000
    35 C14E     2.4689  -2.8074   3.4547   C.3       1 RES1   0.0000
    36 C3E      5.2457  -4.1067   1.2028   C.3       1 RES1   0.0000
    37 H1E      4.4760   1.2475  -0.1564   H         1 RES1   0.0000
    38 C4E      4.3589  -2.3299  -1.1907   C.3       1 RES1   0.0000
    39 C7E      1.8791   3.6192   4.1321   C.ar      1 RES1   0.0000
    40 C9E      2.5411   2.4632   6.1031   C.ar      1 RES1   0.0000
    41 C8E      2.0335   3.5794   5.5000   C.ar      1 RES1   0.0000
    42 O3       3.3090   4.6618   0.4969   O.3       2 RES2   0.0000
    43 N3       1.9904   4.2042   0.4744   N.2       2 RES2   0.0000
    44 C15      1.1435   5.1752   0.4079   C.2       2 RES2   0.0000
    45 C16      1.5067   6.6077   0.3595   C.3       2 RES2   0.0000
    46 H2       3.7982   3.8460   0.6740   H         2 RES2   0.0000
    47 C15B    -0.2662   4.7732   0.4079   C.2       2 RES2   0.0000
    48 N3B     -1.1130   5.7442   0.4744   N.2       2 RES2   0.0000
    49 C16B    -0.6294   3.3407   0.3595   C.3       2 RES2   0.0000
    50 O3B     -2.4316   5.2866   0.4969   O.3       2 RES2   0.0000
    51 H2B     -2.9209   6.1023   0.6740   H         2 RES2   0.0000
@<TRIPOS>BOND
     1     1     2    1
     2     2    11    1
     3     3     5    1
     4     4     6    1
     5     5     1    1
     6     6     1    1
     7     7     5    2
     8     8     6    2
     9     9     7    1
    10    10     8    1
    11    11    12   ar
    12    12    13   ar
    13    13    14   ar
    14    14    15   ar
    15    15    16   ar
    16    16    11   ar
    17    17     2    1
    18    18    17    1
    19    19     2    1
    20    20    19    1
    21    21     4    1
    22    22     1    1
    23    23     1    1
    24    24     1    1
    25    25    22    1
    26    26    22    1
    27    27    22    1
    28    28    23    1
    29    29    23    2
    30    30    24    1
    31    31    24    2
    32    32    25   ar
    33    33    25   ar
    34    34    26    1
    35    35    27    1
    36    36    29    1
    37    37    30    1
    38    38    31    1
    39    39    32   ar
    40    40    33   ar
    41    41    39   ar
    42     7     8    1
    43    29    31    1
    44    40    41   ar
    45    42    43    1
    46    43    44    2
    47    44    45    1
    48    46    42    1
    49    47    44    1
    50    48    47    2
    51    49    47    1
    52    50    48    1
    53    51    50    1
@<TRIPOS>SUBSTRUCTURE
     1 RES1        1 GROUP             0 ****  ****    0  
     2 RES2       42 GROUP             0 ****  ****    0  
@<TRIPOS>CRYSIN
   21.3390   19.9740    8.6410   90.0000   90.0000   84.9600    15     3
