@<TRIPOS>MOLECULE
FEWVIM
    52    59     2     0     0
SMALL
USER_CHARGES
****
Generated from the CSD

@<TRIPOS>ATOM
     1 Fe1      2.7661   4.2206  -0.0404   Fe        1 RES1   1.0000
     2 O1       2.2427   4.7809  -1.8098   O.3       1 RES1   0.0000
     3 C1       2.2984   5.8316  -3.9337   C.3       1 RES1   0.0000
     4 C2       2.9749   5.5076  -2.6049   C.2       1 RES1   0.0000
     5 C3       4.2486   5.9828  -2.3276   C.2       1 RES1   0.0000
     6 C4       4.9801   5.7261  -1.1378   C.2       1 RES1   0.0000
     7 C5       6.4063   6.3080  -1.0857   C.3       1 RES1   0.0000
     8 N1       4.4817   5.0439  -0.1346   N.2       1 RES1   0.0000
     9 C6       5.3717   4.7555   1.0480   C.3       1 RES1   0.0000
    10 C7       4.4436   4.4353   2.2307   C.3       1 RES1   0.0000
    11 N2       3.2681   3.6895   1.7049   N.2       1 RES1   0.0000
    12 C8       2.5916   2.8396   2.4514   C.2       1 RES1   0.0000
    13 C9       3.1190   2.4622   3.8476   C.3       1 RES1   0.0000
    14 C10      1.3968   2.2043   2.0216   C.2       1 RES1   0.0000
    15 C11      0.6881   2.5296   0.8883   C.2       1 RES1   0.0000
    16 C12     -0.6343   1.8321   0.6003   C.3       1 RES1   0.0000
    17 O2       1.0337   3.4113   0.0099   O.3       1 RES1   0.0000
    18 N3       1.9590   5.8723   0.7412   N.2       1 RES1   0.0000
    19 C13      2.5696   7.1237   0.9287   C.2       1 RES1   0.0000
    20 C14      0.7250   5.9459   1.2410   C.2       1 RES1   0.0000
    21 N4       0.4707   7.1847   1.7183   N.2       1 RES1   0.0000
    22 C15      1.6315   7.9355   1.5416   C.2       1 RES1   0.0000
    23 N5       3.3902   2.4737  -0.7394   N.2       1 RES1   0.0000
    24 N6       4.2388   0.4510  -0.8749   N.2       1 RES1   0.0000
    25 C16      4.2438   1.6085  -0.1759   C.2       1 RES1   0.0000
    26 C17      3.3225   0.5476  -1.9041   C.2       1 RES1   0.0000
    27 C18      2.7731   1.8143  -1.8107   C.2       1 RES1   0.0000
    28 B1      11.0563   4.3654   1.5783   B         2 RES2  -1.0000
    29 C19     10.5215   5.8532   1.0777   C.ar      2 RES2   0.0000
    30 C20     10.7290   6.2026  -0.2719   C.ar      2 RES2   0.0000
    31 C21     10.2269   7.3943  -0.8201   C.ar      2 RES2   0.0000
    32 C22      9.5264   8.2887  -0.0063   C.ar      2 RES2   0.0000
    33 C23      9.3161   7.9787   1.3343   C.ar      2 RES2   0.0000
    34 C24      9.8316   6.7680   1.8798   C.ar      2 RES2   0.0000
    35 C25     10.8810   4.1431   3.1989   C.ar      2 RES2   0.0000
    36 C26      9.6192   4.2816   3.8270   C.ar      2 RES2   0.0000
    37 C27      9.4265   4.0580   5.2025   C.ar      2 RES2   0.0000
    38 C28     10.5039   3.6324   5.9760   C.ar      2 RES2   0.0000
    39 C29     11.7658   3.4634   5.3999   C.ar      2 RES2   0.0000
    40 C30     11.9550   3.7429   4.0280   C.ar      2 RES2   0.0000
    41 C31     12.6060   4.2308   1.0866   C.ar      2 RES2   0.0000
    42 C32     13.0596   3.3135   0.1158   C.ar      2 RES2   0.0000
    43 C33     14.3852   3.2715  -0.3239   C.ar      2 RES2   0.0000
    44 C34     15.3507   4.1355   0.2414   C.ar      2 RES2   0.0000
    45 C35     14.9273   5.0566   1.2042   C.ar      2 RES2   0.0000
    46 C36     13.6036   5.0985   1.6133   C.ar      2 RES2   0.0000
    47 C37     10.0830   3.2067   0.8776   C.ar      2 RES2   0.0000
    48 C38     10.3511   1.8346   1.1162   C.ar      2 RES2   0.0000
    49 C39      9.5685   0.8296   0.5231   C.ar      2 RES2   0.0000
    50 C40      8.4885   1.1612  -0.3132   C.ar      2 RES2   0.0000
    51 C41      8.1933   2.4991  -0.5411   C.ar      2 RES2   0.0000
    52 C42      8.9989   3.5079   0.0520   C.ar      2 RES2   0.0000
@<TRIPOS>BOND
     1     1     2    1
     2     2     4    1
     3     3     4    1
     4     4     5    2
     5     5     6    1
     6     6     7    1
     7     8     1    1
     8     9     8    1
     9    10     9    1
    10    11     1    1
    11    12    11    2
    12    13    12    1
    13    14    12    1
    14    15    14    2
    15    16    15    1
    16    17     1    1
    17    18     1    1
    18    19    18    1
    19    20    18    1
    20    21    20    2
    21    22    19    2
    22    23     1    1
    23    24    25    2
    24    25    23    1
    25    26    24    1
    26    27    23    1
    27     6     8    2
    28    10    11    1
    29    15    17    1
    30    21    22    1
    31    26    27    2
    32    28    29    1
    33    29    30   ar
    34    30    31   ar
    35    31    32   ar
    36    32    33   ar
    37    33    34   ar
    38    34    29   ar
    39    35    28    1
    40    36    35   ar
    41    37    36   ar
    42    38    37   ar
    43    39    38   ar
    44    40    35   ar
    45    41    28    1
    46    42    41   ar
    47    43    42   ar
    48    44    43   ar
    49    45    44   ar
    50    46    41   ar
    51    47    28    1
    52    48    47   ar
    53    49    48   ar
    54    50    49   ar
    55    51    50   ar
    56    52    47   ar
    57    39    40   ar
    58    45    46   ar
    59    51    52   ar
@<TRIPOS>SUBSTRUCTURE
     1 RES1        1 GROUP             0 ****  ****    0  
     2 RES2       28 GROUP             0 ****  ****    0  
@<TRIPOS>CRYSIN
   32.9390   12.7050    8.9910   90.0000   93.6300   90.0000   231     1
