@<TRIPOS>MOLECULE
FEWVUY
    60    70     2     0     0
SMALL
USER_CHARGES
****
Generated from the CSD

@<TRIPOS>ATOM
     1 Fe1     13.2969   5.5047   3.1303   Fe        1 RES1   1.0000
     2 O1      13.9414   5.9867   4.8323   O.3       1 RES1   0.0000
     3 C1      14.9526   5.5794   5.5595   C.ar      1 RES1   0.0000
     4 C2      15.1117   6.0817   6.8692   C.ar      1 RES1   0.0000
     5 C3      16.2120   5.7084   7.6233   C.ar      1 RES1   0.0000
     6 C4      17.1585   4.8073   7.1520   C.ar      1 RES1   0.0000
     7 C5      17.0236   4.2372   5.8961   C.ar      1 RES1   0.0000
     8 C6      15.9072   4.6122   5.0666   C.ar      1 RES1   0.0000
     9 C7      15.8317   3.9623   3.7703   C.2       1 RES1   0.0000
    10 N1      14.9014   4.1591   2.8879   N.2       1 RES1   0.0000
    11 C8      14.9257   3.4753   1.6437   C.ar      1 RES1   0.0000
    12 C9      15.9288   2.5572   1.2622   C.ar      1 RES1   0.0000
    13 C10     15.8830   1.9446   0.0197   C.ar      1 RES1   0.0000
    14 C11     14.8259   2.2043  -0.8654   C.ar      1 RES1   0.0000
    15 C12     13.8228   3.1155  -0.5000   C.ar      1 RES1   0.0000
    16 C13     13.8686   3.7264   0.7451   C.ar      1 RES1   0.0000
    17 N2      12.9113   4.6919   1.1868   N.2       1 RES1   0.0000
    18 C14     11.9352   5.0432   0.4264   C.2       1 RES1   0.0000
    19 C15     10.9806   6.0902   0.7110   C.ar      1 RES1   0.0000
    20 C16     10.0394   6.3719  -0.3133   C.ar      1 RES1   0.0000
    21 C17      9.1307   7.4494  -0.1724   C.ar      1 RES1   0.0000
    22 C18      9.1523   8.1994   0.9767   C.ar      1 RES1   0.0000
    23 C19     10.0394   7.9483   2.0153   C.ar      1 RES1   0.0000
    24 C20     10.9320   6.8640   1.9229   C.ar      1 RES1   0.0000
    25 O2      11.7653   6.6315   2.9543   O.3       1 RES1   0.0000
    26 N3      14.4888   7.0286   2.1392   N.2       1 RES1   0.0000
    27 C21     14.1221   7.8040   1.1096   C.2       1 RES1   0.0000
    28 N4      15.1468   8.5948   0.7424   N.2       1 RES1   0.0000
    29 C22     16.2362   8.3063   1.5539   C.2       1 RES1   0.0000
    30 C23     15.8102   7.3391   2.4211   C.2       1 RES1   0.0000
    31 N5      12.0916   3.9385   3.9966   N.2       1 RES1   0.0000
    32 C24     10.7864   3.7366   3.8161   C.2       1 RES1   0.0000
    33 N6      10.3469   2.8033   4.7048   N.2       1 RES1   0.0000
    34 C25     11.4039   2.3824   5.4454   C.2       1 RES1   0.0000
    35 C26     12.5149   3.0748   4.9948   C.2       1 RES1   0.0000
    36 B1       5.4229   9.3177   4.3242   B         2 RES2  -1.0000
    37 C27      6.2103   7.9551   4.8575   C.ar      2 RES2   0.0000
    38 C28      5.7869   7.2322   5.9814   C.ar      2 RES2   0.0000
    39 C29      6.5608   6.1326   6.4581   C.ar      2 RES2   0.0000
    40 C30      7.7581   5.7457   5.8395   C.ar      2 RES2   0.0000
    41 C31      8.1653   6.4550   4.7066   C.ar      2 RES2   0.0000
    42 C32      7.4183   7.5393   4.2425   C.ar      2 RES2   0.0000
    43 C33      5.6790   9.4670   2.6814   C.ar      2 RES2   0.0000
    44 C34      6.1159  10.6616   2.0979   C.ar      2 RES2   0.0000
    45 C35      6.3397  10.7753   0.7092   C.ar      2 RES2   0.0000
    46 C36      6.1051   9.6706  -0.1068   C.ar      2 RES2   0.0000
    47 C37      5.6817   8.4590   0.4497   C.ar      2 RES2   0.0000
    48 C38      5.4849   8.3708   1.8331   C.ar      2 RES2   0.0000
    49 C39      3.8319   9.1768   4.6761   C.ar      2 RES2   0.0000
    50 C40      2.9015   8.6152   3.7650   C.ar      2 RES2   0.0000
    51 C41      1.9685   9.3177   6.3036   C.ar      2 RES2   0.0000
    52 C42      1.0732   8.7492   5.3718   C.ar      2 RES2   0.0000
    53 C43      1.5452   8.3861   4.1177   C.ar      2 RES2   0.0000
    54 C44      3.3249   9.4942   5.9607   C.ar      2 RES2   0.0000
    55 C45      6.0997  10.6294   5.0927   C.ar      2 RES2   0.0000
    56 C46      5.3581  11.8087   5.2812   C.ar      2 RES2   0.0000
    57 C47      5.8894  12.9541   5.9060   C.ar      2 RES2   0.0000
    58 C48      7.2431  12.9304   6.3970   C.ar      2 RES2   0.0000
    59 C49      7.9873  11.7629   6.1448   C.ar      2 RES2   0.0000
    60 C50      7.4237  10.6464   5.5505   C.ar      2 RES2   0.0000
@<TRIPOS>BOND
     1     1     2    1
     2     2     3    1
     3     3     4   ar
     4     4     5   ar
     5     5     6   ar
     6     6     7   ar
     7     7     8   ar
     8     8     3   ar
     9     9     8    1
    10    10     1    1
    11    11    10    1
    12    12    11   ar
    13    13    12   ar
    14    14    13   ar
    15    15    14   ar
    16    16    11   ar
    17    17     1    1
    18    18    17    2
    19    19    18    1
    20    20    19   ar
    21    21    20   ar
    22    22    21   ar
    23    23    22   ar
    24    24    19   ar
    25    25     1    1
    26    26     1    1
    27    27    26    1
    28    28    27    2
    29    29    28    1
    30    30    26    1
    31    31     1    1
    32    32    31    1
    33    33    32    2
    34    34    33    1
    35    35    31    1
    36     9    10    2
    37    15    16   ar
    38    16    17    1
    39    23    24   ar
    40    24    25    1
    41    29    30    2
    42    34    35    2
    43    36    37    1
    44    37    38   ar
    45    38    39   ar
    46    39    40   ar
    47    40    41   ar
    48    41    42   ar
    49    42    37   ar
    50    43    36    1
    51    44    43   ar
    52    45    44   ar
    53    46    45   ar
    54    47    46   ar
    55    48    43   ar
    56    49    36    1
    57    50    49   ar
    58    51    52   ar
    59    52    53   ar
    60    53    50   ar
    61    54    49   ar
    62    55    36    1
    63    56    55   ar
    64    57    56   ar
    65    58    57   ar
    66    59    58   ar
    67    60    55   ar
    68    47    48   ar
    69    51    54   ar
    70    59    60   ar
@<TRIPOS>SUBSTRUCTURE
     1 RES1        1 GROUP             0 ****  ****    0  
     2 RES2       36 GROUP             0 ****  ****    0  
@<TRIPOS>CRYSIN
   26.9660   16.9690    8.9770   90.0000   90.0000   90.0000    33     1
