@<TRIPOS>MOLECULE
FEYDIW
    43    46     1     0     0
SMALL
NO_CHARGES
****
Generated from the CSD

@<TRIPOS>ATOM
     1 Fe1      0.0000   0.0000   0.0000   Fe        1 RES1   0.0000
     2 Cl1     -0.0000  -0.0000  -2.3196   Cl        1 RES1   0.0000
     3 Cl2      0.0000   0.0000   2.2888   Cl        1 RES1   0.0000
     4 C1       1.6582  -0.8949  -0.0440   C.1       1 RES1   0.0000
     5 N1       2.6459  -1.4712  -0.0528   N.1       1 RES1   0.0000
     6 C2       3.7625  -2.2899  -0.1004   C.ar      1 RES1   0.0000
     7 C3       4.8305  -1.8591  -0.8821   C.ar      1 RES1   0.0000
     8 C4       5.9166  -2.7512  -0.9190   C.ar      1 RES1   0.0000
     9 C5       5.8709  -3.9578  -0.3416   C.ar      1 RES1   0.0000
    10 C6       4.7862  -4.3388   0.4824   C.ar      1 RES1   0.0000
    11 C7       3.7084  -3.4910   0.6056   C.ar      1 RES1   0.0000
    12 C8       4.8666  -0.5084  -1.5150   C.3       1 RES1   0.0000
    13 C9       2.4908  -3.8761   1.3662   C.3       1 RES1   0.0000
    14 C1A      0.8949   1.6582  -0.0440   C.1       1 RES1   0.0000
    15 C1B     -1.6582   0.8949  -0.0440   C.1       1 RES1   0.0000
    16 C1C     -0.8949  -1.6582  -0.0440   C.1       1 RES1   0.0000
    17 N1A      1.4712   2.6459  -0.0528   N.1       1 RES1   0.0000
    18 N1B     -2.6459   1.4712  -0.0528   N.1       1 RES1   0.0000
    19 N1C     -1.4712  -2.6459  -0.0528   N.1       1 RES1   0.0000
    20 C2A      2.2899   3.7625  -0.1004   C.ar      1 RES1   0.0000
    21 C2B     -3.7625   2.2899  -0.1004   C.ar      1 RES1   0.0000
    22 C2C     -2.2899  -3.7625  -0.1004   C.ar      1 RES1   0.0000
    23 C3A      1.8591   4.8305  -0.8821   C.ar      1 RES1   0.0000
    24 C7A      3.4910   3.7084   0.6056   C.ar      1 RES1   0.0000
    25 C3B     -4.8305   1.8591  -0.8821   C.ar      1 RES1   0.0000
    26 C7B     -3.7084   3.4910   0.6056   C.ar      1 RES1   0.0000
    27 C3C     -1.8591  -4.8305  -0.8821   C.ar      1 RES1   0.0000
    28 C7C     -3.4910  -3.7084   0.6056   C.ar      1 RES1   0.0000
    29 C4A      2.7512   5.9166  -0.9190   C.ar      1 RES1   0.0000
    30 C8A      0.5084   4.8666  -1.5150   C.3       1 RES1   0.0000
    31 C6A      4.3388   4.7862   0.4824   C.ar      1 RES1   0.0000
    32 C9A      3.8761   2.4908   1.3662   C.3       1 RES1   0.0000
    33 C4B     -5.9166   2.7512  -0.9190   C.ar      1 RES1   0.0000
    34 C8B     -4.8666   0.5084  -1.5150   C.3       1 RES1   0.0000
    35 C6B     -4.7862   4.3388   0.4824   C.ar      1 RES1   0.0000
    36 C9B     -2.4908   3.8761   1.3662   C.3       1 RES1   0.0000
    37 C4C     -2.7512  -5.9166  -0.9190   C.ar      1 RES1   0.0000
    38 C8C     -0.5084  -4.8666  -1.5150   C.3       1 RES1   0.0000
    39 C6C     -4.3388  -4.7862   0.4824   C.ar      1 RES1   0.0000
    40 C9C     -3.8761  -2.4908   1.3662   C.3       1 RES1   0.0000
    41 C5A      3.9578   5.8709  -0.3416   C.ar      1 RES1   0.0000
    42 C5B     -5.8709   3.9578  -0.3416   C.ar      1 RES1   0.0000
    43 C5C     -3.9578  -5.8709  -0.3416   C.ar      1 RES1   0.0000
@<TRIPOS>BOND
     1     1     2    1
     2     3     1    1
     3     4     1    1
     4     5     4    3
     5     6     5    1
     6     7     6   ar
     7     8     7   ar
     8     9     8   ar
     9    10     9   ar
    10    11     6   ar
    11    12     7    1
    12    13    11    1
    13    14     1    1
    14    15     1    1
    15    16     1    1
    16    17    14    3
    17    18    15    3
    18    19    16    3
    19    20    17    1
    20    21    18    1
    21    22    19    1
    22    23    20   ar
    23    24    20   ar
    24    25    21   ar
    25    26    21   ar
    26    27    22   ar
    27    28    22   ar
    28    29    23   ar
    29    30    23    1
    30    31    24   ar
    31    32    24    1
    32    33    25   ar
    33    34    25    1
    34    35    26   ar
    35    36    26    1
    36    37    27   ar
    37    38    27    1
    38    39    28   ar
    39    40    28    1
    40    41    29   ar
    41    42    33   ar
    42    43    37   ar
    43    10    11   ar
    44    31    41   ar
    45    35    42   ar
    46    39    43   ar
@<TRIPOS>SUBSTRUCTURE
     1 RES1        1 GROUP             0 ****  ****    0  
@<TRIPOS>CRYSIN
   13.8530   13.8530    8.8030   90.0000   90.0000   90.0000   104     1
