@<TRIPOS>MOLECULE
FEYWIR01
    89    98     1     0     0
SMALL
NO_CHARGES
****
Generated from the CSD

@<TRIPOS>ATOM
     1 Fe1      5.6798   3.2017   2.5403   Fe        1 RES1   0.0000
     2 Cl1      7.9399   0.9733   8.2556   Cl        1 RES1   0.0000
     3 Cl2      3.8380   7.0633  -2.9294   Cl        1 RES1   0.0000
     4 S1       2.7395   2.7860  -1.1622   S.2       1 RES1   0.0000
     5 S2       8.3973   4.3088   6.2499   S.2       1 RES1   0.0000
     6 N1       4.5079   3.0133   0.9955   N.2       1 RES1   0.0000
     7 N2       6.8301   3.4567   4.0876   N.2       1 RES1   0.0000
     8 N3       5.0356   1.4417   3.1913   N.ar      1 RES1   0.0000
     9 N4       7.0764   2.1783   1.5507   N.ar      1 RES1   0.0000
    10 N5       7.2750   0.7550   3.4018   N.pl3     1 RES1   0.0000
    11 N6       7.6095   0.7467   5.6843   N.ar      1 RES1   0.0000
    12 N7       9.4216   1.0617   4.1602   N.ar      1 RES1   0.0000
    13 N8       9.8114   1.1500   6.5105   N.ar      1 RES1   0.0000
    14 N9      11.5323   1.4167   5.0671   N.pl3     1 RES1   0.0000
    15 H1      11.8588   1.5500   5.6627   H         1 RES1   0.0000
    16 N10      6.3503   4.9466   1.9363   N.ar      1 RES1   0.0000
    17 N11      4.2690   4.2116   3.5353   N.ar      1 RES1   0.0000
    18 N12      4.1252   5.7183   1.7540   N.pl3     1 RES1   0.0000
    19 N13      3.9634   6.3266  -0.4581   N.ar      1 RES1   0.0000
    20 N14      2.0071   5.8100   0.8340   N.ar      1 RES1   0.0000
    21 N15      1.8128   6.4550  -1.4626   N.ar      1 RES1   0.0000
    22 N16     -0.0436   5.9583  -0.2217   N.pl3     1 RES1   0.0000
    23 H2      -0.4815   6.0833  -0.8063   H         1 RES1   0.0000
    24 C1       3.7821   2.9067   0.0898   C.1       1 RES1   0.0000
    25 C2       7.4581   3.8117   4.9938   C.1       1 RES1   0.0000
    26 C3       3.7156   1.1300   3.2144   C.ar      1 RES1   0.0000
    27 H3       3.0953   1.7683   2.8827   H         1 RES1   0.0000
    28 C4       3.2329  -0.0617   3.6927   C.ar      1 RES1   0.0000
    29 H4       2.2991  -0.2317   3.7037   H         1 RES1   0.0000
    30 C5       4.1305  -1.0167   4.1582   C.ar      1 RES1   0.0000
    31 H5       3.8223  -1.8417   4.5173   H         1 RES1   0.0000
    32 C6       5.4880  -0.7350   4.0867   C.ar      1 RES1   0.0000
    33 H6       6.1301  -1.3750   4.3689   H         1 RES1   0.0000
    34 C7       5.8864   0.4850   3.5974   C.ar      1 RES1   0.0000
    35 C8       7.4157   2.5067   0.2859   C.ar      1 RES1   0.0000
    36 H7       6.9941   3.2533  -0.1228   H         1 RES1   0.0000
    37 C9       8.3590   1.7883  -0.4380   C.ar      1 RES1   0.0000
    38 H8       8.5868   2.0567  -1.3213   H         1 RES1   0.0000
    39 C10      8.9609   0.6967   0.1228   C.ar      1 RES1   0.0000
    40 H9       9.6177   0.2050  -0.3555   H         1 RES1   0.0000
    41 C11      8.5948   0.3217   1.3983   C.ar      1 RES1   0.0000
    42 H10      8.9575  -0.4600   1.7959   H         1 RES1   0.0000
    43 C12      7.6883   1.1083   2.0873   C.ar      1 RES1   0.0000
    44 C13      8.1439   0.8467   4.4587   C.ar      1 RES1   0.0000
    45 C14      8.5160   0.9500   6.6120   C.ar      1 RES1   0.0000
    46 C15     10.2327   1.2000   5.2229   C.ar      1 RES1   0.0000
    47 C16     12.2552   1.5000   3.8484   C.ar      1 RES1   0.0000
    48 C17     13.2051   2.5200   3.6982   C.ar      1 RES1   0.0000
    49 H11     13.3438   3.1467   4.3964   H         1 RES1   0.0000
    50 C18     13.9307   2.6083   2.5436   C.ar      1 RES1   0.0000
    51 H12     14.5655   3.3067   2.4319   H         1 RES1   0.0000
    52 C19     13.7390   1.6800   1.5375   C.ar      1 RES1   0.0000
    53 H13     14.2426   1.7433   0.7349   H         1 RES1   0.0000
    54 C20     12.8230   0.6650   1.6915   C.ar      1 RES1   0.0000
    55 H14     12.7101   0.0250   0.9969   H         1 RES1   0.0000
    56 C21     12.0693   0.5667   2.8405   C.ar      1 RES1   0.0000
    57 H15     11.4319  -0.1300   2.9413   H         1 RES1   0.0000
    58 C22      7.6790   5.2116   1.9371   C.ar      1 RES1   0.0000
    59 H16      8.2801   4.5033   2.1368   H         1 RES1   0.0000
    60 C23      8.2060   6.4533   1.6622   C.ar      1 RES1   0.0000
    61 H17      9.1456   6.5850   1.6383   H         1 RES1   0.0000
    62 C24      7.3444   7.4983   1.4221   C.ar      1 RES1   0.0000
    63 H18      7.6814   8.3683   1.2370   H         1 RES1   0.0000
    64 C25      5.9853   7.2633   1.4514   C.ar      1 RES1   0.0000
    65 H19      5.3669   7.9716   1.3158   H         1 RES1   0.0000
    66 C26      5.5408   5.9750   1.6860   C.ar      1 RES1   0.0000
    67 C27      3.9352   3.8583   4.7996   C.ar      1 RES1   0.0000
    68 H20      4.4223   3.1617   5.2192   H         1 RES1   0.0000
    69 C28      2.9241   4.4650   5.4996   C.ar      1 RES1   0.0000
    70 H21      2.7209   4.1966   6.3866   H         1 RES1   0.0000
    71 C29      2.2056   5.4766   4.8857   C.ar      1 RES1   0.0000
    72 H22      1.4771   5.8883   5.3347   H         1 RES1   0.0000
    73 C30      2.5573   5.8750   3.6249   C.ar      1 RES1   0.0000
    74 H23      2.0823   6.5733   3.1887   H         1 RES1   0.0000
    75 C31      3.6121   5.2483   2.9963   C.ar      1 RES1   0.0000
    76 C32      3.3162   5.9566   0.6616   C.ar      1 RES1   0.0000
    77 C33      3.1089   6.5416  -1.4441   C.ar      1 RES1   0.0000
    78 C34      1.2896   6.0666  -0.2657   C.ar      1 RES1   0.0000
    79 C35     -0.8126   5.6383   0.9401   C.ar      1 RES1   0.0000
    80 C36     -0.7923   6.4433   2.0635   C.ar      1 RES1   0.0000
    81 H24     -0.2445   7.2200   2.0800   H         1 RES1   0.0000
    82 C37     -1.5554   6.1250   3.1484   C.ar      1 RES1   0.0000
    83 H25     -1.5354   6.6816   3.9199   H         1 RES1   0.0000
    84 C38     -2.3667   4.9900   3.1356   C.ar      1 RES1   0.0000
    85 H26     -2.8834   4.7633   3.8998   H         1 RES1   0.0000
    86 C39     -2.4125   4.2033   2.0122   C.ar      1 RES1   0.0000
    87 H27     -2.9723   3.4350   1.9957   H         1 RES1   0.0000
    88 C40     -1.6438   4.5250   0.8998   C.ar      1 RES1   0.0000
    89 H28     -1.6851   3.9883   0.1173   H         1 RES1   0.0000
@<TRIPOS>BOND
     1     1     6    1
     2     2    45    1
     3     3    77    1
     4     4    24    2
     5     5    25    2
     6     6    24    2
     7     7     1    1
     8     8     1    1
     9     9     1    1
    10    10    34    1
    11    11    44   ar
    12    12    44   ar
    13    13    45   ar
    14    14    15    1
    15    16     1    1
    16    17     1    1
    17    18    66    1
    18    19    76   ar
    19    20    76   ar
    20    21    77   ar
    21    22    23    1
    22    25     7    2
    23    26     8   ar
    24    27    26    1
    25    28    26   ar
    26    29    28    1
    27    30    28   ar
    28    31    30    1
    29    32    30   ar
    30    33    32    1
    31    34     8   ar
    32    35     9   ar
    33    36    35    1
    34    37    35   ar
    35    38    37    1
    36    39    37   ar
    37    40    39    1
    38    41    39   ar
    39    42    41    1
    40    43     9   ar
    41    44    10    1
    42    45    11   ar
    43    46    12   ar
    44    47    14    1
    45    48    47   ar
    46    49    48    1
    47    50    48   ar
    48    51    50    1
    49    52    50   ar
    50    53    52    1
    51    54    52   ar
    52    55    54    1
    53    56    47   ar
    54    57    56    1
    55    58    16   ar
    56    59    58    1
    57    60    58   ar
    58    61    60    1
    59    62    60   ar
    60    63    62    1
    61    64    62   ar
    62    65    64    1
    63    66    16   ar
    64    67    17   ar
    65    68    67    1
    66    69    67   ar
    67    70    69    1
    68    71    69   ar
    69    72    71    1
    70    73    71   ar
    71    74    73    1
    72    75    17   ar
    73    76    18    1
    74    77    19   ar
    75    78    20   ar
    76    79    22    1
    77    80    79   ar
    78    81    80    1
    79    82    80   ar
    80    83    82    1
    81    84    82   ar
    82    85    84    1
    83    86    84   ar
    84    87    86    1
    85    88    79   ar
    86    89    88    1
    87    10    43    1
    88    13    46   ar
    89    14    46    1
    90    18    75    1
    91    21    78   ar
    92    22    78    1
    93    32    34   ar
    94    41    43   ar
    95    54    56   ar
    96    64    66   ar
    97    73    75   ar
    98    86    88   ar
@<TRIPOS>SUBSTRUCTURE
     1 RES1        1 GROUP             0 ****  ****    0  
@<TRIPOS>CRYSIN
   13.3963   16.6666   18.8909   90.0000  104.0480   90.0000    14     1
