@<TRIPOS>MOLECULE
FEZDIA
   116   123     5     0     0
SMALL
NO_CHARGES
****
Generated from the CSD

@<TRIPOS>ATOM
     1 C1      12.8004  14.2121   6.2387   C.ar      1 RES1   0.0000
     2 C2      14.9971  13.7680   6.7138   C.ar      1 RES1   0.0000
     3 C3      15.3210  13.6965   5.3697   C.ar      1 RES1   0.0000
     4 C4      14.3283  13.9472   4.4229   C.ar      1 RES1   0.0000
     5 C5      13.0450  14.2024   4.8738   C.ar      1 RES1   0.0000
     6 C6      14.5868  13.9596   2.9475   C.2       1 RES1   0.0000
     7 C7      15.5767  13.1492   2.3963   C.2       1 RES1   0.0000
     8 C8      15.8522  13.1315   1.0263   C.2       1 RES1   0.0000
     9 C9      17.0467  12.3962   0.4872   C.ar      1 RES1   0.0000
    10 C10     18.1161  12.0194   1.2802   C.ar      1 RES1   0.0000
    11 C11     19.2268  11.4498   0.6842   C.ar      1 RES1   0.0000
    12 C12     18.2901  11.5812  -1.3683   C.ar      1 RES1   0.0000
    13 C13     17.1358  12.1568  -0.8742   C.ar      1 RES1   0.0000
    14 C14      8.8589  11.7266   2.0162   C.ar      1 RES1   0.0000
    15 C15     10.0293  12.2683   1.5135   C.ar      1 RES1   0.0000
    16 C16     10.1715  12.3998   0.1365   C.ar      1 RES1   0.0000
    17 C17      9.1337  11.9497  -0.6634   C.ar      1 RES1   0.0000
    18 C18      8.0043  11.4179  -0.0570   C.ar      1 RES1   0.0000
    19 C19     11.3786  13.1195  -0.4026   C.2       1 RES1   0.0000
    20 C20     11.6272  13.1785  -1.7726   C.2       1 RES1   0.0000
    21 C21     12.6117  13.9950  -2.3238   C.2       1 RES1   0.0000
    22 C22     12.8516  14.0136  -3.7975   C.ar      1 RES1   0.0000
    23 C23     14.1151  14.3834  -4.2571   C.ar      1 RES1   0.0000
    24 C24     14.3458  14.4272  -5.6098   C.ar      1 RES1   0.0000
    25 C25     12.1978  13.7959  -6.0815   C.ar      1 RES1   0.0000
    26 C26     11.8764  13.7005  -4.7391   C.ar      1 RES1   0.0000
    27 C27      9.2980  18.4602   2.5967   C.ar      1 RES1   0.0000
    28 C28     10.3943  17.7970   2.0784   C.ar      1 RES1   0.0000
    29 C29     11.2106  18.4423   1.1697   C.ar      1 RES1   0.0000
    30 C30     10.9043  19.7627   0.8552   C.ar      1 RES1   0.0000
    31 C31      9.7685  20.3403   1.4167   C.ar      1 RES1   0.0000
    32 C32     12.3790  17.6921   0.6116   C.2       1 RES1   0.0000
    33 C33     13.4589  18.3686   0.0553   C.2       1 RES1   0.0000
    34 C34     14.6508  17.7190  -0.2712   C.2       1 RES1   0.0000
    35 C35     15.7892  18.4801  -0.8777   C.ar      1 RES1   0.0000
    36 C36     16.7847  17.7532  -1.5238   C.ar      1 RES1   0.0000
    37 C37     17.8391  18.4363  -2.0922   C.ar      1 RES1   0.0000
    38 C38     17.0244  20.4479  -1.4495   C.ar      1 RES1   0.0000
    39 C39     15.9129  19.8623  -0.8518   C.ar      1 RES1   0.0000
    40 N1      13.7576  14.0110   7.1544   N.ar      1 RES1   0.0000
    41 N2      19.3230  11.2237  -0.6254   N.ar      1 RES1   0.0000
    42 N3       7.8533  11.3064   1.2509   N.ar      1 RES1   0.0000
    43 N4      13.4011  14.1466  -6.5297   N.ar      1 RES1   0.0000
    44 N5       8.9666  19.7034   2.2737   N.ar      1 RES1   0.0000
    45 N6      17.9828  19.7586  -2.0542   N.ar      1 RES1   0.0000
    46 O1      13.8571  14.7652   2.2844   O.2       1 RES1   0.0000
    47 O2      15.1618  13.7373   0.1498   O.2       1 RES1   0.0000
    48 O3      12.0942  13.6859   0.4829   O.2       1 RES1   0.0000
    49 O4      13.3486  14.7791  -1.6429   O.2       1 RES1   0.0000
    50 O5      12.2986  16.4284   0.7210   O.2       1 RES1   0.0000
    51 O6      14.8678  16.4800  -0.0852   O.2       1 RES1   0.0000
    52 Fe1     13.6102  14.9763   0.3214   Fe        1 RES1   0.0000
    53 H1      11.9185  14.3396   6.5825   H         1 RES1   0.0000
    54 H2      15.6921  13.6027   7.3773   H         1 RES1   0.0000
    55 H3      16.1625  13.5031   5.1313   H         1 RES1   0.0000
    56 H4      12.3460  14.3595   4.2674   H         1 RES1   0.0000
    57 H5      16.0378  12.6069   2.9371   H         1 RES1   0.0000
    58 H6      18.1151  12.1090   2.1251   H         1 RES1   0.0000
    59 H7      19.8774  11.2327   1.1230   H         1 RES1   0.0000
    60 H8      18.3245  11.4518  -2.2460   H         1 RES1   0.0000
    61 H9      16.4729  12.4276  -1.4167   H         1 RES1   0.0000
    62 H10      8.7923  11.6310   2.9025   H         1 RES1   0.0000
    63 H11     10.6259  12.5471   2.0732   H         1 RES1   0.0000
    64 H12      9.1309  11.9895  -1.6068   H         1 RES1   0.0000
    65 H13      7.2646  11.1729  -0.5701   H         1 RES1   0.0000
    66 H14     11.1579  12.7264  -2.2978   H         1 RES1   0.0000
    67 H15     14.7995  14.5587  -3.6800   H         1 RES1   0.0000
    68 H16     15.1339  14.6582  -6.0297   H         1 RES1   0.0000
    69 H17     11.5716  13.6027  -6.6862   H         1 RES1   0.0000
    70 H18     11.0401  13.5031  -4.4229   H         1 RES1   0.0000
    71 H19      8.7701  18.0440   3.2135   H         1 RES1   0.0000
    72 H20     10.6002  16.9884   2.3497   H         1 RES1   0.0000
    73 H21     11.3788  20.2746   0.2246   H         1 RES1   0.0000
    74 H22      9.5772  21.2106   1.1921   H         1 RES1   0.0000
    75 H23     13.4228  19.2390  -0.0346   H         1 RES1   0.0000
    76 H24     16.7135  16.8092  -1.6068   H         1 RES1   0.0000
    77 H25     18.4863  18.0440  -2.5052   H         1 RES1   0.0000
    78 H26     17.1038  21.3700  -1.3822   H         1 RES1   0.0000
    79 H27     15.2843  20.3742  -0.4146   H         1 RES1   0.0000
    80 C40     12.8478  14.7558  11.8641   C.ar      2 RES2   0.0000
    81 C41     11.5972  14.6622  12.4429   C.ar      2 RES2   0.0000
    82 C42     11.4121  14.8036  13.8112   C.ar      2 RES2   0.0000
    83 C43     12.4773  15.0586  14.6613   C.ar      2 RES2   0.0000
    84 C44     13.7272  15.1601  14.0756   C.ar      2 RES2   0.0000
    85 C45     13.9141  15.0088  12.7159   C.ar      2 RES2   0.0000
    86 I1      13.1438  14.4900   9.8012   I         2 RES2   0.0000
    87 I2      12.1814  15.3101  16.7243   I         2 RES2   0.0000
    88 F1      10.5181  14.4240  11.6729   F         2 RES2   0.0000
    89 F2      10.1691  14.6985  14.3003   F         2 RES2   0.0000
    90 F3      14.8031  15.4147  14.8480   F         2 RES2   0.0000
    91 F4      15.1593  15.1119  12.2299   F         2 RES2   0.0000
    92 C46     23.5011  10.7208  -3.1824   C.ar      3 RES3   0.0000
    93 C47     23.8691   9.5597  -3.8286   C.ar      3 RES3   0.0000
    94 C48     25.0496   9.4562  -4.5318   C.ar      3 RES3   0.0000
    95 C49     25.9396  10.5177  -4.6199   C.ar      3 RES3   0.0000
    96 C50     25.5613  11.6927  -3.9875   C.ar      3 RES3   0.0000
    97 C51     24.3704  11.7903  -3.2982   C.ar      3 RES3   0.0000
    98 I3      21.7352  10.8601  -2.0565   I         3 RES3   0.0000
    99 I4      27.8252  10.3359  -5.5074   I         3 RES3   0.0000
   100 F5      23.0740   8.4829  -3.7569   F         3 RES3   0.0000
   101 F6      25.3530   8.2861  -5.1152   F         3 RES3   0.0000
   102 F7      26.3890  12.7523  -4.0128   F         3 RES3   0.0000
   103 F8      24.0761  12.9560  -2.6952   F         3 RES3   0.0000
   104 C52      3.5507  10.6252   3.4917   C.ar      4 RES4   0.0000
   105 C53      2.8859  11.6888   4.0756   C.ar      4 RES4   0.0000
   106 C54      1.6436  11.5354   4.6561   C.ar      4 RES4   0.0000
   107 C55      1.0165  10.3046   4.7114   C.ar      4 RES4   0.0000
   108 C56      1.6984   9.2311   4.1638   C.ar      4 RES4   0.0000
   109 C57      2.9228   9.3865   3.5660   C.ar      4 RES4   0.0000
   110 I5       5.3812  10.8750   2.5014   I         4 RES4   0.0000
   111 I6      -0.9369  10.1353   5.4599   I         4 RES4   0.0000
   112 F9       3.4428  12.9124   4.0561   F         4 RES4   0.0000
   113 F10      1.0436  12.6129   5.1817   F         4 RES4   0.0000
   114 F11      1.1525   8.0015   4.1999   F         4 RES4   0.0000
   115 F12      3.5029   8.3158   2.9912   F         4 RES4   0.0000
   116 O7      13.3046  22.0810  -0.2626   O.3       5 RES5   0.0000
@<TRIPOS>BOND
     1     1     5   ar
     2     2     3   ar
     3     3     4   ar
     4     4     5   ar
     5     5    56    1
     6     6     4    1
     7     7     6   un
     8     8     7   un
     9     9     8    1
    10    10     9   ar
    11    11    10   ar
    12    12    13   ar
    13    13     9   ar
    14    14    15   ar
    15    15    16   ar
    16    16    17   ar
    17    17    18   ar
    18    18    42   ar
    19    19    16    1
    20    20    19   un
    21    21    20   un
    22    22    21    1
    23    23    22   ar
    24    24    23   ar
    25    25    26   ar
    26    26    22   ar
    27    27    28   ar
    28    28    29   ar
    29    29    30   ar
    30    30    31   ar
    31    31    44   ar
    32    32    29    1
    33    33    32   un
    34    34    33   un
    35    35    34    1
    36    36    35   ar
    37    37    36   ar
    38    38    39   ar
    39    39    35   ar
    40    40     1   ar
    41    41    11   ar
    42    42    14   ar
    43    43    24   ar
    44    44    27   ar
    45    45    37   ar
    46    46     6   un
    47    47     8   un
    48    48    19   un
    49    49    21   un
    50    50    32   un
    51    51    34   un
    52    52    46    1
    53    53     1    1
    54    54     2    1
    55    55     3    1
    56    57     7    1
    57    58    10    1
    58    59    11    1
    59    60    12    1
    60    61    13    1
    61    62    14    1
    62    63    15    1
    63    64    17    1
    64    65    18    1
    65    66    20    1
    66    67    23    1
    67    68    24    1
    68    69    25    1
    69    70    26    1
    70    71    27    1
    71    72    28    1
    72    73    30    1
    73    74    31    1
    74    75    33    1
    75    76    36    1
    76    77    37    1
    77    78    38    1
    78    79    39    1
    79     2    40   ar
    80    12    41   ar
    81    25    43   ar
    82    38    45   ar
    83    47    52    1
    84    48    52    1
    85    49    52    1
    86    50    52    1
    87    51    52    1
    88    80    81   ar
    89    81    82   ar
    90    82    83   ar
    91    83    84   ar
    92    84    85   ar
    93    85    80   ar
    94    86    80    1
    95    87    83    1
    96    88    81    1
    97    89    82    1
    98    90    84    1
    99    91    85    1
   100    92    93   ar
   101    93    94   ar
   102    94    95   ar
   103    95    96   ar
   104    96    97   ar
   105    97    92   ar
   106    98    92    1
   107    99    95    1
   108   100    93    1
   109   101    94    1
   110   102    96    1
   111   103    97    1
   112   104   105   ar
   113   105   106   ar
   114   106   107   ar
   115   107   108   ar
   116   108   109   ar
   117   109   104   ar
   118   110   104    1
   119   111   107    1
   120   112   105    1
   121   113   106    1
   122   114   108    1
   123   115   109    1
@<TRIPOS>SUBSTRUCTURE
     1 RES1        1 GROUP             0 ****  ****    0  
     2 RES2       80 GROUP             0 ****  ****    0  
     3 RES3       92 GROUP             0 ****  ****    0  
     4 RES4      104 GROUP             0 ****  ****    0  
     5 RES5      116 GROUP             0 ****  ****    0  
@<TRIPOS>CRYSIN
   17.9257   19.9161   18.7188   90.0000  112.6350   90.0000   231     1
