@<TRIPOS>MOLECULE
FEZJEB
    75    82     1     0     0
SMALL
NO_CHARGES
****
Generated from the CSD

@<TRIPOS>ATOM
     1 C1      -6.4926   2.2795  15.3996   C.ar      1 RES1   0.0000
     2 H1      -6.7797   3.1395  15.1927   H         1 RES1   0.0000
     3 C2      -6.9478   1.2404  14.6375   C.ar      1 RES1   0.0000
     4 H2      -7.5277   1.3975  13.9286   H         1 RES1   0.0000
     5 C3      -6.5353  -0.0469  14.9329   C.ar      1 RES1   0.0000
     6 H3      -6.8504  -0.7718  14.4436   H         1 RES1   0.0000
     7 C4      -5.6506  -0.2288  15.9650   C.ar      1 RES1   0.0000
     8 H4      -5.3510  -1.0846  16.1705   H         1 RES1   0.0000
     9 C5      -5.2012   0.8476  16.7021   C.ar      1 RES1   0.0000
    10 C6      -4.3092   0.7539  17.8320   C.2       1 RES1   0.0000
    11 C7      -3.5303  -0.4534  18.2249   C.3       1 RES1   0.0000
    12 H5      -4.0522  -1.2486  18.0324   H         1 RES1   0.0000
    13 H6      -3.3623  -0.4300  19.1795   H         1 RES1   0.0000
    14 C8      -2.1966  -0.5306  17.4776   C.3       1 RES1   0.0000
    15 H7      -2.3656  -0.7759  16.5540   H         1 RES1   0.0000
    16 H8      -1.7832   0.3473  17.4796   H         1 RES1   0.0000
    17 C9      -1.2406  -1.5229  18.0807   C.3       1 RES1   0.0000
    18 H9      -1.0236  -1.2555  18.9760   H         1 RES1   0.0000
    19 H10     -0.4381  -1.5560  17.5534   H         1 RES1   0.0000
    20 H11     -1.6478  -2.3926  18.0955   H         1 RES1   0.0000
    21 C10     -3.4995   3.3352  19.9661   C.2       1 RES1   0.0000
    22 C11     -2.7352   3.6564  21.1895   C.ar      1 RES1   0.0000
    23 C12     -2.0014   2.6944  21.8752   C.ar      1 RES1   0.0000
    24 C13     -1.2901   3.0072  23.0330   C.ar      1 RES1   0.0000
    25 H12     -0.8055   2.3526  23.4814   H         1 RES1   0.0000
    26 C14     -1.3166   4.2917  23.4922   C.ar      1 RES1   0.0000
    27 H13     -0.8470   4.5108  24.2647   H         1 RES1   0.0000
    28 C15     -2.0254   5.2647  22.8314   C.ar      1 RES1   0.0000
    29 H14     -2.0375   6.1344  23.1609   H         1 RES1   0.0000
    30 C16     -2.7235   4.9533  21.6735   C.ar      1 RES1   0.0000
    31 H15     -3.1872   5.6189  21.2197   H         1 RES1   0.0000
    32 C17     -2.2835   3.6095  16.6113   C.ar      1 RES1   0.0000
    33 H16     -2.1026   2.7977  17.0276   H         1 RES1   0.0000
    34 C18     -1.2659   4.2380  15.9312   C.ar      1 RES1   0.0000
    35 H17     -0.4240   3.8479  15.8734   H         1 RES1   0.0000
    36 C19     -1.5122   5.4522  15.3386   C.ar      1 RES1   0.0000
    37 H18     -0.8341   5.9042  14.8884   H         1 RES1   0.0000
    38 C20     -2.7811   5.9924  15.4200   C.ar      1 RES1   0.0000
    39 H19     -2.9627   6.8138  15.0234   H         1 RES1   0.0000
    40 C21     -3.7863   5.3088  16.0954   C.ar      1 RES1   0.0000
    41 C22     -5.1599   5.7912  16.2522   C.2       1 RES1   0.0000
    42 C23     -5.6895   7.0123  15.5923   C.3       1 RES1   0.0000
    43 H20     -5.0119   7.7055  15.6231   H         1 RES1   0.0000
    44 H21     -6.4597   7.3293  16.0913   H         1 RES1   0.0000
    45 C24     -6.1037   6.7890  14.1323   C.3       1 RES1   0.0000
    46 H22     -5.4484   6.2226  13.6963   H         1 RES1   0.0000
    47 H23     -6.9585   6.3301  14.1087   H         1 RES1   0.0000
    48 C25     -6.2155   8.0969  13.3774   C.3       1 RES1   0.0000
    49 H24     -6.7559   8.7116  13.8800   H         1 RES1   0.0000
    50 H25     -6.6233   7.9398  12.5222   H         1 RES1   0.0000
    51 H26     -5.3407   8.4690  13.2515   H         1 RES1   0.0000
    52 C26     -7.5262   4.3069  18.2592   C.2       1 RES1   0.0000
    53 C27     -8.8870   4.4254  18.8230   C.ar      1 RES1   0.0000
    54 C28     -9.8649   5.2316  18.2665   C.ar      1 RES1   0.0000
    55 C29    -11.1560   5.2689  18.8122   C.ar      1 RES1   0.0000
    56 H27    -11.8165   5.7898  18.4160   H         1 RES1   0.0000
    57 C30    -11.4352   4.5315  19.9268   C.ar      1 RES1   0.0000
    58 H28    -12.2920   4.5591  20.2905   H         1 RES1   0.0000
    59 C31    -10.4787   3.7542  20.5210   C.ar      1 RES1   0.0000
    60 H29    -10.6852   3.2746  21.2899   H         1 RES1   0.0000
    61 C32     -9.2068   3.6798  19.9828   C.ar      1 RES1   0.0000
    62 H30     -8.5631   3.1409  20.3824   H         1 RES1   0.0000
    63 Fe1     -5.0270   3.4430  17.7440   Fe        1 RES1   0.0000
    64 N1      -5.6491   2.1197  16.4332   N.ar      1 RES1   0.0000
    65 N2      -4.1964   1.9253  18.4228   N.2       1 RES1   0.0000
    66 N3      -3.3991   2.0687  19.5427   N.2       1 RES1   0.0000
    67 N4      -3.5254   4.1125  16.7012   N.ar      1 RES1   0.0000
    68 N5      -5.8345   4.9756  17.0248   N.2       1 RES1   0.0000
    69 N6      -7.1636   5.2228  17.3525   N.2       1 RES1   0.0000
    70 O1      -4.1982   4.2309  19.3796   O.3       1 RES1   0.0000
    71 O2      -1.9209   1.4168  21.4646   O.3       1 RES1   0.0000
    72 H31     -2.4018   1.3107  20.8092   H         1 RES1   0.0000
    73 O3      -6.7660   3.3631  18.6825   O.3       1 RES1   0.0000
    74 O4      -9.6426   6.0284  17.1892   O.3       1 RES1   0.0000
    75 H32     -8.8440   6.0186  17.0024   H         1 RES1   0.0000
@<TRIPOS>BOND
     1     1     2    1
     2     3     1   ar
     3     4     3    1
     4     5     3   ar
     5     6     5    1
     6     7     5   ar
     7     8     7    1
     8     9     7   ar
     9    10     9    1
    10    11    10    1
    11    12    11    1
    12    13    11    1
    13    14    11    1
    14    15    14    1
    15    16    14    1
    16    17    14    1
    17    18    17    1
    18    19    17    1
    19    20    17    1
    20    21    22    1
    21    22    23   ar
    22    23    24   ar
    23    24    25    1
    24    26    24   ar
    25    27    26    1
    26    28    26   ar
    27    29    28    1
    28    30    22   ar
    29    31    30    1
    30    32    33    1
    31    34    32   ar
    32    35    34    1
    33    36    34   ar
    34    37    36    1
    35    38    36   ar
    36    39    38    1
    37    40    38   ar
    38    41    40    1
    39    42    41    1
    40    43    42    1
    41    44    42    1
    42    45    42    1
    43    46    45    1
    44    47    45    1
    45    48    45    1
    46    49    48    1
    47    50    48    1
    48    51    48    1
    49    52    53    1
    50    53    54   ar
    51    54    55   ar
    52    55    56    1
    53    57    55   ar
    54    58    57    1
    55    59    57   ar
    56    60    59    1
    57    61    53   ar
    58    62    61    1
    59    63    64    1
    60    64     1   ar
    61    65    10    2
    62    66    21    2
    63    67    32   ar
    64    68    41    2
    65    69    52    2
    66    70    21    1
    67    71    23    1
    68    72    71    1
    69    73    52    1
    70    74    54    1
    71    75    74    1
    72     9    64   ar
    73    28    30   ar
    74    40    67   ar
    75    59    61   ar
    76    63    65    1
    77    63    67    1
    78    63    68    1
    79    63    70    1
    80    63    73    1
    81    65    66    1
    82    68    69    1
@<TRIPOS>SUBSTRUCTURE
     1 RES1        1 GROUP             0 ****  ****    0  
@<TRIPOS>CRYSIN
   11.9680   13.7820   19.0300   90.0000  108.8700   90.0000    14     1
