@<TRIPOS>MOLECULE
FEZJIF01
    81    88     1     0     0
SMALL
NO_CHARGES
****
Generated from the CSD

@<TRIPOS>ATOM
     1 Fe1     -3.7068  23.6840  26.1259   Fe        1 RES1   0.0000
     2 C1      -4.1793  26.5675  25.5020   C.ar      1 RES1   0.0000
     3 H1      -4.4308  26.6761  26.3912   H         1 RES1   0.0000
     4 C2      -4.1794  27.6731  24.6794   C.ar      1 RES1   0.0000
     5 H2      -4.3930  28.5117  25.0190   H         1 RES1   0.0000
     6 C3      -3.8623  27.5252  23.3568   C.ar      1 RES1   0.0000
     7 H3      -3.8794  28.2543  22.7809   H         1 RES1   0.0000
     8 C4      -3.5168  26.2640  22.8948   C.ar      1 RES1   0.0000
     9 H4      -3.3058  26.1365  21.9971   H         1 RES1   0.0000
    10 C5      -3.4870  25.1986  23.7716   C.ar      1 RES1   0.0000
    11 C6      -3.0185  23.8516  23.4318   C.2       1 RES1   0.0000
    12 C7      -2.6618  23.3986  22.0142   C.3       1 RES1   0.0000
    13 H5      -2.7883  22.4404  21.9344   H         1 RES1   0.0000
    14 H6      -3.2471  23.8358  21.3749   H         1 RES1   0.0000
    15 C8      -1.2587  23.7396  21.7188   C.3       1 RES1   0.0000
    16 H7      -0.6700  23.2826  22.3420   H         1 RES1   0.0000
    17 H8      -1.1237  24.6960  21.8186   H         1 RES1   0.0000
    18 C9      -0.9187  23.2979  20.2334   C.3       1 RES1   0.0000
    19 H9      -1.2071  22.3930  20.0943   H         1 RES1   0.0000
    20 H10      0.0300  23.3571  20.0919   H         1 RES1   0.0000
    21 H11     -1.3726  23.8764  19.6168   H         1 RES1   0.0000
    22 C10     -2.5877  21.2616  25.6557   C.2       1 RES1   0.0000
    23 C11     -1.9515  19.9417  25.8271   C.ar      1 RES1   0.0000
    24 C12     -1.2933  19.2878  24.7785   C.ar      1 RES1   0.0000
    25 C13     -0.6129  18.0761  24.9924   C.ar      1 RES1   0.0000
    26 C14     -0.6262  17.5468  26.2726   C.ar      1 RES1   0.0000
    27 H12     -0.1825  16.7440  26.4298   H         1 RES1   0.0000
    28 C15     -1.2706  18.1648  27.3209   C.ar      1 RES1   0.0000
    29 H13     -1.2592  17.7825  28.1687   H         1 RES1   0.0000
    30 C16     -1.9336  19.3578  27.1046   C.ar      1 RES1   0.0000
    31 H14     -2.3712  19.7762  27.8093   H         1 RES1   0.0000
    32 C17      0.1060  17.4116  23.8510   C.3       1 RES1   0.0000
    33 H15      0.5253  16.6062  24.1628   H         1 RES1   0.0000
    34 H16      0.7756  18.0061  23.5044   H         1 RES1   0.0000
    35 H17     -0.5227  17.1978  23.1571   H         1 RES1   0.0000
    36 N1      -3.8350  25.3444  25.0800   N.ar      1 RES1   0.0000
    37 N2      -2.9551  23.1047  24.4947   N.2       1 RES1   0.0000
    38 N3      -2.4573  21.8175  24.4404   N.2       1 RES1   0.0000
    39 O1      -3.1796  21.8326  26.6363   O.3       1 RES1   0.0000
    40 O2      -1.2638  19.7837  23.5269   O.3       1 RES1   0.0000
    41 H18     -1.6320  20.5145  23.5141   H         1 RES1   0.0000
    42 C1O     -0.9732  24.7164  26.7515   C.ar      1 RES1   0.0000
    43 H1O     -0.7535  24.5530  25.8623   H         1 RES1   0.0000
    44 C2O     -0.0156  25.2692  27.5741   C.ar      1 RES1   0.0000
    45 H2O      0.8173  25.5035  27.2345   H         1 RES1   0.0000
    46 C3O     -0.3023  25.4699  28.8967   C.ar      1 RES1   0.0000
    47 H3O      0.3376  25.8196  29.4726   H         1 RES1   0.0000
    48 C4O     -1.5673  25.1384  29.3587   C.ar      1 RES1   0.0000
    49 H4O     -1.7833  25.2574  30.2564   H         1 RES1   0.0000
    50 C5O     -2.5049  24.6316  28.4819   C.ar      1 RES1   0.0000
    51 C6O     -3.9057  24.3638  28.8217   C.2       1 RES1   0.0000
    52 C7O     -4.4763  24.4462  30.2393   C.3       1 RES1   0.0000
    53 H5O     -5.2429  23.8576  30.3191   H         1 RES1   0.0000
    54 H6O     -3.8051  24.1579  30.8786   H         1 RES1   0.0000
    55 C8O     -4.8826  25.8318  30.5347   C.3       1 RES1   0.0000
    56 H7O     -5.5727  26.1131  29.9115   H         1 RES1   0.0000
    57 H8O     -4.1218  26.4270  30.4349   H         1 RES1   0.0000
    58 C9O     -5.4350  25.9054  32.0201   C.3       1 RES1   0.0000
    59 H9O     -6.0745  25.2032  32.1592   H         1 RES1   0.0000
    60 H10O    -5.8582  26.7566  32.1616   H         1 RES1   0.0000
    61 H11O    -4.7071  25.8016  32.6367   H         1 RES1   0.0000
    62 C10O    -6.3641  23.4419  26.5978   C.2       1 RES1   0.0000
    63 C11O    -7.8252  23.3329  26.4264   C.ar      1 RES1   0.0000
    64 C12O    -8.7206  23.5760  27.4750   C.ar      1 RES1   0.0000
    65 C13O   -10.1102  23.5593  27.2611   C.ar      1 RES1   0.0000
    66 C14O   -10.5619  23.2832  25.9809   C.ar      1 RES1   0.0000
    67 H12O   -11.4791  23.2660  25.8237   H         1 RES1   0.0000
    68 C15O    -9.7045  23.0342  24.9326   C.ar      1 RES1   0.0000
    69 H13O   -10.0412  22.8528  24.0848   H         1 RES1   0.0000
    70 C16O    -8.3399  23.0565  25.1489   C.ar      1 RES1   0.0000
    71 H14O    -7.7587  22.8867  24.4442   H         1 RES1   0.0000
    72 C17O   -11.0451  23.8497  28.4025   C.3       1 RES1   0.0000
    73 H15O   -11.9522  23.8102  28.0907   H         1 RES1   0.0000
    74 H16O   -10.8651  24.7268  28.7491   H         1 RES1   0.0000
    75 H17O   -10.9159  23.1983  29.0964   H         1 RES1   0.0000
    76 N1O     -2.2046  24.4031  27.1735   N.ar      1 RES1   0.0000
    77 N2O     -4.5842  24.0452  27.7588   N.2       1 RES1   0.0000
    78 N3O     -5.9478  23.8327  27.8131   N.2       1 RES1   0.0000
    79 O1O     -5.5736  23.2148  25.6172   O.3       1 RES1   0.0000
    80 O2O     -8.3060  23.8494  28.7266   O.3       1 RES1   0.0000
    81 H18O    -7.4889  23.8960  28.7394   H         1 RES1   0.0000
@<TRIPOS>BOND
     1     1    36    1
     2     2     3    1
     3     4     2   ar
     4     5     4    1
     5     6     4   ar
     6     7     6    1
     7     8     6   ar
     8     9     8    1
     9    10     8   ar
    10    11    10    1
    11    12    11    1
    12    13    12    1
    13    14    12    1
    14    15    12    1
    15    16    15    1
    16    17    15    1
    17    18    15    1
    18    19    18    1
    19    20    18    1
    20    21    18    1
    21    22    23    1
    22    23    24   ar
    23    24    25   ar
    24    25    26   ar
    25    26    27    1
    26    28    26   ar
    27    29    28    1
    28    30    23   ar
    29    31    30    1
    30    32    25    1
    31    33    32    1
    32    34    32    1
    33    35    32    1
    34    36     2   ar
    35    37     1    1
    36    38    22    2
    37    39     1    1
    38    40    24    1
    39    41    40    1
    40    42    43    1
    41    44    42   ar
    42    45    44    1
    43    46    44   ar
    44    47    46    1
    45    48    46   ar
    46    49    48    1
    47    50    48   ar
    48    51    50    1
    49    52    51    1
    50    53    52    1
    51    54    52    1
    52    55    52    1
    53    56    55    1
    54    57    55    1
    55    58    55    1
    56    59    58    1
    57    60    58    1
    58    61    58    1
    59    62    63    1
    60    63    64   ar
    61    64    65   ar
    62    65    66   ar
    63    66    67    1
    64    68    66   ar
    65    69    68    1
    66    70    63   ar
    67    71    70    1
    68    72    65    1
    69    73    72    1
    70    74    72    1
    71    75    72    1
    72    76     1    1
    73    77     1    1
    74    78    62    2
    75    79     1    1
    76    80    64    1
    77    81    80    1
    78    10    36   ar
    79    11    37    2
    80    22    39    1
    81    28    30   ar
    82    37    38    1
    83    42    76   ar
    84    50    76   ar
    85    51    77    2
    86    62    79    1
    87    68    70   ar
    88    77    78    1
@<TRIPOS>SUBSTRUCTURE
     1 RES1        1 GROUP             0 ****  ****    0  
@<TRIPOS>CRYSIN
   26.0710   26.0710   24.1170   90.0000   90.0000  120.0000   238     1
