@<TRIPOS>MOLECULE
FIBWOE43
    78    85     3     0     0
SMALL
USER_CHARGES
****
Generated from the CSD

@<TRIPOS>ATOM
     1 Fe1      8.5585  12.2010   6.0388   Fe        1 RES1   1.0000
     2 O1       9.8855  11.2732   6.9669   O.3       1 RES1   0.0000
     3 O2       9.5504  12.2352   4.4220   O.3       1 RES1   0.0000
     4 N1       9.2764  13.9481   6.4278   N.2       1 RES1   0.0000
     5 N2       7.7034  10.5006   5.6889   N.2       1 RES1   0.0000
     6 O3       9.9843   8.4717   0.4060   O.3       1 RES1   0.0000
     7 N3       7.4036  12.1488   7.6603   N.ar      1 RES1   0.0000
     8 O4      14.3783  13.0970   9.5962   O.3       1 RES1   0.0000
     9 N4       7.1509  13.2506   5.1331   N.ar      1 RES1   0.0000
    10 C1       6.5998  11.0519   7.6936   C.ar      1 RES1   0.0000
    11 C2       7.3698  14.5975   5.2208   C.ar      1 RES1   0.0000
    12 C3      10.3901  14.1830   7.0568   C.2       1 RES1   0.0000
    13 H1      10.6677  15.0685   7.1283   H         1 RES1   0.0000
    14 C4       8.5025  15.0306   5.9452   C.ar      1 RES1   0.0000
    15 C5       9.6054  11.2754   3.5179   C.ar      1 RES1   0.0000
    16 C6       5.8689   9.0406   6.6108   C.ar      1 RES1   0.0000
    17 H2       5.9178   8.4270   5.9130   H         1 RES1   0.0000
    18 C7      11.8655  10.9295   8.1706   C.ar      1 RES1   0.0000
    19 H3      11.7217  10.0120   8.1147   H         1 RES1   0.0000
    20 C8      11.2153  13.1852   7.6448   C.ar      1 RES1   0.0000
    21 C9      13.2359  12.7636   8.9061   C.ar      1 RES1   0.0000
    22 C10      6.7151  10.1539   6.6197   C.ar      1 RES1   0.0000
    23 C11      7.9747   9.7320   4.6572   C.2       1 RES1   0.0000
    24 H4       7.5410   8.9104   4.6124   H         1 RES1   0.0000
    25 C12     10.4135  11.4539   2.4118   C.ar      1 RES1   0.0000
    26 H5      10.9115  12.2369   2.3399   H         1 RES1   0.0000
    27 C13      6.4837  15.5383   4.6261   C.ar      1 RES1   0.0000
    28 C14      9.7922   9.3045   1.5176   C.ar      1 RES1   0.0000
    29 C15      5.6739  10.8842   8.7408   C.ar      1 RES1   0.0000
    30 C16     10.5046  10.5189   1.4222   C.ar      1 RES1   0.0000
    31 H6      11.0404  10.6821   0.6795   H         1 RES1   0.0000
    32 C17     10.9443  11.7928   7.5726   C.ar      1 RES1   0.0000
    33 C18      8.8641  10.0464   3.6166   C.ar      1 RES1   0.0000
    34 C19      7.3736  13.0204   8.6842   C.ar      1 RES1   0.0000
    35 H7       7.9708  13.7342   8.6800   H         1 RES1   0.0000
    36 C20     12.3955  13.6578   8.3181   C.ar      1 RES1   0.0000
    37 H8      12.5823  14.5686   8.3520   H         1 RES1   0.0000
    38 C21      5.2028  13.6715   3.8196   C.ar      1 RES1   0.0000
    39 H9       4.4860  13.3294   3.3363   H         1 RES1   0.0000
    40 C22      8.7094  16.3882   6.0661   C.ar      1 RES1   0.0000
    41 H10      9.4467  16.6948   6.5423   H         1 RES1   0.0000
    42 C23     12.9657  11.3834   8.8329   C.ar      1 RES1   0.0000
    43 H11     13.5424  10.7773   9.2388   H         1 RES1   0.0000
    44 C24      6.5069  12.9028   9.7271   C.ar      1 RES1   0.0000
    45 H12      6.4935  13.5513  10.3931   H         1 RES1   0.0000
    46 C25      9.0131   9.1019   2.5627   C.ar      1 RES1   0.0000
    47 H13      8.5383   8.3035   2.6129   H         1 RES1   0.0000
    48 C26      5.6383  11.8159   9.8014   C.ar      1 RES1   0.0000
    49 H14      5.0590  11.7088  10.5212   H         1 RES1   0.0000
    50 C27      9.0683   7.3815   0.3328   C.3       1 RES1   0.0000
    51 H15      9.2353   6.8764  -0.4668   H         1 RES1   0.0000
    52 H16      8.1697   7.7181   0.3165   H         1 RES1   0.0000
    53 H17      9.1838   6.8142   1.0988   H         1 RES1   0.0000
    54 C28      4.8375   9.7155   8.7131   C.ar      1 RES1   0.0000
    55 H18      4.2355   9.5516   9.4023   H         1 RES1   0.0000
    56 C29      6.7594  16.9069   4.7726   C.ar      1 RES1   0.0000
    57 H19      6.2043  17.5415   4.3806   H         1 RES1   0.0000
    58 C30      7.8453  17.3016   5.4926   C.ar      1 RES1   0.0000
    59 H20      8.0107  18.2102   5.6016   H         1 RES1   0.0000
    60 C31     14.5417  14.4811   9.8735   C.3       1 RES1   0.0000
    61 H21     14.5835  14.9701   9.0487   H         1 RES1   0.0000
    62 H22     15.3554  14.6144  10.3660   H         1 RES1   0.0000
    63 H23     13.7983  14.7935  10.3940   H         1 RES1   0.0000
    64 C32      4.9387   8.8438   7.6581   C.ar      1 RES1   0.0000
    65 H24      4.3781   8.1017   7.6316   H         1 RES1   0.0000
    66 C33      5.3805  15.0056   3.9028   C.ar      1 RES1   0.0000
    67 H25      4.7804  15.5806   3.4857   H         1 RES1   0.0000
    68 C34      6.0969  12.7966   4.4619   C.ar      1 RES1   0.0000
    69 H26      5.9489  11.8803   4.4165   H         1 RES1   0.0000
    70 S1      13.5879   7.6743   7.5183   S.2       2 RES2  -1.0000
    71 N5      14.1990   8.2887  10.1486   N.1       2 RES2   0.0000
    72 C35     13.9593   8.0453   9.0725   C.1       2 RES2   0.0000
    73 C36      8.3517  16.4521  10.3849   C.1       3 RES3   0.0000
    74 N6       8.6611  15.9417   9.5030   N.1       3 RES3   0.0000
    75 C37      7.9547  17.1553  11.6396   C.3       3 RES3   0.0000
    76 H27      7.5258  17.9849  11.4189   H         3 RES3   0.0000
    77 H28      8.7356  17.3287  12.1695   H         3 RES3   0.0000
    78 H29      7.3465  16.6027  12.1365   H         3 RES3   0.0000
@<TRIPOS>BOND
     1     1     2    1
     2     2    32    1
     3     3     1    1
     4     4     1    1
     5     5     1    1
     6     6    28    1
     7     7     1    1
     8     8    21    1
     9     9     1    1
    10    10     7   ar
    11    11     9   ar
    12    12     4    2
    13    13    12    1
    14    14     4    1
    15    15     3    1
    16    16    17    1
    17    18    19    1
    18    20    12    1
    19    21    36   ar
    20    22     5    1
    21    23     5    2
    22    24    23    1
    23    25    15   ar
    24    26    25    1
    25    27    11   ar
    26    28    30   ar
    27    29    10   ar
    28    30    25   ar
    29    31    30    1
    30    32    18   ar
    31    33    15   ar
    32    34     7   ar
    33    35    34    1
    34    36    20   ar
    35    37    36    1
    36    38    39    1
    37    40    14   ar
    38    41    40    1
    39    42    18   ar
    40    43    42    1
    41    44    34   ar
    42    45    44    1
    43    46    28   ar
    44    47    46    1
    45    48    29   ar
    46    49    48    1
    47    50     6    1
    48    51    50    1
    49    52    50    1
    50    53    50    1
    51    54    29   ar
    52    55    54    1
    53    56    27   ar
    54    57    56    1
    55    58    40   ar
    56    59    58    1
    57    60     8    1
    58    61    60    1
    59    62    60    1
    60    63    60    1
    61    64    16   ar
    62    65    64    1
    63    66    27   ar
    64    67    66    1
    65    68     9   ar
    66    69    68    1
    67    10    22   ar
    68    11    14   ar
    69    16    22   ar
    70    20    32   ar
    71    21    42   ar
    72    23    33    1
    73    33    46   ar
    74    38    66   ar
    75    38    68   ar
    76    44    48   ar
    77    54    64   ar
    78    56    58   ar
    79    70    72    1
    80    71    72    3
    81    73    74    3
    82    75    73    1
    83    76    75    1
    84    77    75    1
    85    78    75    1
@<TRIPOS>SUBSTRUCTURE
     1 RES1        1 GROUP             0 ****  ****    0  
     2 RES2       70 GROUP             0 ****  ****    0  
     3 RES3       73 GROUP             0 ****  ****    0  
@<TRIPOS>CRYSIN
   12.3411   12.3789   12.6100   61.8510   83.9890   70.1760     2     1
