@<TRIPOS>MOLECULE
FIBWOE15
    78    85     3     0     0
SMALL
USER_CHARGES
****
Generated from the CSD

@<TRIPOS>ATOM
     1 Fe1      6.4924   6.4425   6.0931   Fe        1 RES1   1.0000
     2 O1       7.8337   5.5519   7.0466   O.3       1 RES1   0.0000
     3 O2       7.4377   6.4404   4.4696   O.3       1 RES1   0.0000
     4 N1       5.5933   4.7216   5.7239   N.2       1 RES1   0.0000
     5 O3      12.2771   7.4188   9.7200   O.3       1 RES1   0.0000
     6 N2       5.3207   6.3738   7.7242   N.ar      1 RES1   0.0000
     7 N3       7.2001   8.2331   6.5081   N.2       1 RES1   0.0000
     8 N4       5.0650   7.5386   5.1853   N.ar      1 RES1   0.0000
     9 O4       7.7969   2.6896   0.4589   O.3       1 RES1   0.0000
    10 C1       5.2851   8.8903   5.2886   C.ar      1 RES1   0.0000
    11 C2       4.4966   5.2751   7.7578   C.ar      1 RES1   0.0000
    12 C3       4.6057   4.3652   6.6831   C.ar      1 RES1   0.0000
    13 C4       8.2972   8.4680   7.1565   C.2       1 RES1   0.0000
    14 H1       8.5572   9.3565   7.2446   H         1 RES1   0.0000
    15 C5       5.8453   3.9535   4.7164   C.2       1 RES1   0.0000
    16 H2       5.4122   3.1306   4.6873   H         1 RES1   0.0000
    17 C6       6.7379   4.2658   3.6428   C.ar      1 RES1   0.0000
    18 C7       6.4179   9.3153   6.0111   C.ar      1 RES1   0.0000
    19 C8       7.4668   5.4865   3.5743   C.ar      1 RES1   0.0000
    20 C9       9.1368   7.4823   7.7466   C.ar      1 RES1   0.0000
    21 C10     10.2751   7.9426   8.4489   C.ar      1 RES1   0.0000
    22 H3      10.4371   8.8560   8.5041   H         1 RES1   0.0000
    23 C11      3.5604   5.0764   8.8057   C.ar      1 RES1   0.0000
    24 C12      8.8668   6.0841   7.6647   C.ar      1 RES1   0.0000
    25 C13     11.1339   7.0765   9.0424   C.ar      1 RES1   0.0000
    26 C14      6.8455   3.3119   2.6117   C.ar      1 RES1   0.0000
    27 H4       6.3762   2.5116   2.6783   H         1 RES1   0.0000
    28 C15      4.4117   9.8282   4.6906   C.ar      1 RES1   0.0000
    29 C16      8.2699   5.6752   2.4300   C.ar      1 RES1   0.0000
    30 H5       8.7593   6.4607   2.3429   H         1 RES1   0.0000
    31 C17      9.7830   5.2241   8.2941   C.ar      1 RES1   0.0000
    32 H6       9.6367   4.3063   8.2631   H         1 RES1   0.0000
    33 C18      5.2719   7.2398   8.7294   C.ar      1 RES1   0.0000
    34 H7       5.8482   7.9699   8.7220   H         1 RES1   0.0000
    35 C19      7.6310   3.5457   1.5101   C.ar      1 RES1   0.0000
    36 C20      4.0236   7.1008   4.4943   C.ar      1 RES1   0.0000
    37 H8       3.8753   6.1853   4.4280   H         1 RES1   0.0000
    38 C21     10.8896   5.7014   8.9549   C.ar      1 RES1   0.0000
    39 H9      11.4836   5.1035   9.3493   H         1 RES1   0.0000
    40 C22      8.3459   4.7357   1.4506   C.ar      1 RES1   0.0000
    41 H10      8.8934   4.8938   0.7157   H         1 RES1   0.0000
    42 C23      3.7755   3.2738   6.6460   C.ar      1 RES1   0.0000
    43 H11      3.8314   2.6646   5.9453   H         1 RES1   0.0000
    44 C24      2.7256   3.9489   8.7204   C.ar      1 RES1   0.0000
    45 H12      2.0915   3.7958   9.3837   H         1 RES1   0.0000
    46 C25      6.6426  10.6517   6.1457   C.ar      1 RES1   0.0000
    47 H13      7.3853  10.9439   6.6231   H         1 RES1   0.0000
    48 C26      3.1453   7.9802   3.8615   C.ar      1 RES1   0.0000
    49 H14      2.4325   7.6453   3.3665   H         1 RES1   0.0000
    50 C27      4.3809   7.0902   9.8030   C.ar      1 RES1   0.0000
    51 H15      4.3749   7.7127  10.4940   H         1 RES1   0.0000
    52 C28      2.8327   3.0816   7.6815   C.ar      1 RES1   0.0000
    53 H16      2.2706   2.3413   7.6509   H         1 RES1   0.0000
    54 C29      3.5273   6.0350   9.8322   C.ar      1 RES1   0.0000
    55 H17      2.9201   5.9465  10.5308   H         1 RES1   0.0000
    56 C30      3.3234   9.3206   3.9636   C.ar      1 RES1   0.0000
    57 H18      2.7256   9.9025   3.5532   H         1 RES1   0.0000
    58 C31     12.4342   8.7831  10.0364   C.3       1 RES1   0.0000
    59 H19     12.4749   9.2975   9.2267   H         1 RES1   0.0000
    60 H20     13.2460   8.9055  10.5341   H         1 RES1   0.0000
    61 H21     11.6881   9.0773  10.5646   H         1 RES1   0.0000
    62 C32      4.6992  11.1931   4.8634   C.ar      1 RES1   0.0000
    63 H22      4.1430  11.8347   4.4832   H         1 RES1   0.0000
    64 C33      5.7838  11.5821   5.5825   C.ar      1 RES1   0.0000
    65 H23      5.9530  12.4888   5.6999   H         1 RES1   0.0000
    66 C34      6.9079   1.6003   0.3612   C.3       1 RES1   0.0000
    67 H24      7.0874   1.1112  -0.4455   H         1 RES1   0.0000
    68 H25      6.0041   1.9245   0.3435   H         1 RES1   0.0000
    69 H26      7.0250   1.0217   1.1183   H         1 RES1   0.0000
    70 S1       3.5575  10.0478  14.7607   S.2       2 RES2  -1.0000
    71 N5       2.9994   9.3093  12.1837   N.1       2 RES2   0.0000
    72 C35      3.2430   9.6071  13.2158   C.1       2 RES2   0.0000
    73 C36      6.2412  10.7578  10.4077   C.1       3 RES3   0.0000
    74 N6       6.5999  10.1762   9.5831   N.1       3 RES3   0.0000
    75 C37      5.7900  11.5190  11.5980   C.3       3 RES3   0.0000
    76 H27      5.3769  12.3385  11.3157   H         3 RES3   0.0000
    77 H28      6.5445  11.7167  12.1569   H         3 RES3   0.0000
    78 H29      5.1549  10.9941  12.0908   H         3 RES3   0.0000
@<TRIPOS>BOND
     1     1     2    1
     2     2    24    1
     3     3     1    1
     4     4     1    1
     5     5    25    1
     6     6     1    1
     7     7     1    1
     8     8     1    1
     9     9    35    1
    10    10     8   ar
    11    11     6   ar
    12    12     4    1
    13    13     7    2
    14    14    13    1
    15    15     4    2
    16    16    15    1
    17    17    15    1
    18    18     7    1
    19    19     3    1
    20    20    13    1
    21    21    20   ar
    22    22    21    1
    23    23    11   ar
    24    24    20   ar
    25    25    21   ar
    26    26    17   ar
    27    27    26    1
    28    28    10   ar
    29    29    19   ar
    30    30    29    1
    31    31    24   ar
    32    32    31    1
    33    33     6   ar
    34    34    33    1
    35    35    26   ar
    36    36     8   ar
    37    37    36    1
    38    38    25   ar
    39    39    38    1
    40    40    29   ar
    41    41    40    1
    42    42    12   ar
    43    43    42    1
    44    44    23   ar
    45    45    44    1
    46    46    18   ar
    47    47    46    1
    48    48    36   ar
    49    49    48    1
    50    50    33   ar
    51    51    50    1
    52    52    42   ar
    53    53    52    1
    54    54    23   ar
    55    55    54    1
    56    56    28   ar
    57    57    56    1
    58    58     5    1
    59    59    58    1
    60    60    58    1
    61    61    58    1
    62    62    28   ar
    63    63    62    1
    64    64    46   ar
    65    65    64    1
    66    66     9    1
    67    67    66    1
    68    68    66    1
    69    69    66    1
    70    10    18   ar
    71    11    12   ar
    72    17    19   ar
    73    31    38   ar
    74    35    40   ar
    75    44    52   ar
    76    48    56   ar
    77    50    54   ar
    78    62    64   ar
    79    70    72    1
    80    71    72    3
    81    73    74    3
    82    75    73    1
    83    76    75    1
    84    77    75    1
    85    78    75    1
@<TRIPOS>SUBSTRUCTURE
     1 RES1        1 GROUP             0 ****  ****    0  
     2 RES2       70 GROUP             0 ****  ****    0  
     3 RES3       73 GROUP             0 ****  ****    0  
@<TRIPOS>CRYSIN
   12.2740   12.5196   12.7656   61.7260   83.9500   70.3550     2     1
