@<TRIPOS>MOLECULE
FIBWOE49
    78    85     3     0     0
SMALL
USER_CHARGES
****
Generated from the CSD

@<TRIPOS>ATOM
     1 Fe1      8.7595  12.4647   6.2981   Fe        1 RES1   1.0000
     2 O1      10.1720  11.7164   7.3193   O.3       1 RES1   0.0000
     3 O2       9.6005  12.3109   4.6003   O.3       1 RES1   0.0000
     4 N1       9.4260  14.3819   6.8148   N.2       1 RES1   0.0000
     5 O3      14.3399  13.6807  10.3015   O.3       1 RES1   0.0000
     6 N2       7.2982  13.7213   5.3913   N.ar      1 RES1   0.0000
     7 N3       7.4863  12.3235   7.9914   N.ar      1 RES1   0.0000
     8 N4       7.6713  10.7223   5.8852   N.2       1 RES1   0.0000
     9 O4       9.4709   8.7575   0.4310   O.3       1 RES1   0.0000
    10 C1      11.1090  12.2575   8.0415   C.ar      1 RES1   0.0000
    11 C2       6.6319  11.2469   7.9658   C.ar      1 RES1   0.0000
    12 C3       7.5408  15.0678   5.5299   C.ar      1 RES1   0.0000
    13 C4      10.4660  14.6136   7.5453   C.2       1 RES1   0.0000
    14 H1      10.6954  15.5060   7.6704   H         1 RES1   0.0000
    15 C5       8.6727  15.4522   6.2662   C.ar      1 RES1   0.0000
    16 C6       8.6703  10.2860   3.7220   C.ar      1 RES1   0.0000
    17 C7      11.2990  13.6448   8.1825   C.ar      1 RES1   0.0000
    18 C8       5.7085  11.0232   9.0131   C.ar      1 RES1   0.0000
    19 C9       7.4415  13.1424   9.0224   C.ar      1 RES1   0.0000
    20 H2       8.0289  13.8629   9.0396   H         1 RES1   0.0000
    21 C10      6.7102  10.3717   6.8778   C.ar      1 RES1   0.0000
    22 C11      7.8178  10.0007   4.8345   C.2       1 RES1   0.0000
    23 H3       7.3212   9.2158   4.7917   H         1 RES1   0.0000
    24 C12     11.9916  11.4270   8.7440   C.ar      1 RES1   0.0000
    25 H4      11.8658  10.5058   8.7120   H         1 RES1   0.0000
    26 C13      9.4886  11.4332   3.6194   C.ar      1 RES1   0.0000
    27 C14     12.3775  14.1428   8.9618   C.ar      1 RES1   0.0000
    28 H5      12.4964  15.0618   9.0402   H         1 RES1   0.0000
    29 C15      6.7179  16.0212   4.9067   C.ar      1 RES1   0.0000
    30 C16      6.2699  13.3246   4.6795   C.ar      1 RES1   0.0000
    31 H6       6.1031  12.4123   4.6013   H         1 RES1   0.0000
    32 C17     13.2318  13.3109   9.5909   C.ar      1 RES1   0.0000
    33 C18     13.0309  11.9299   9.4756   C.ar      1 RES1   0.0000
    34 H7      13.6147  11.3456   9.9027   H         1 RES1   0.0000
    35 C19      8.9319  16.7917   6.4211   C.ar      1 RES1   0.0000
    36 H8       9.6671  17.0646   6.9221   H         1 RES1   0.0000
    37 C20     10.1896  10.7280   1.4457   C.ar      1 RES1   0.0000
    38 H9      10.7005  10.8764   0.6832   H         1 RES1   0.0000
    39 C21      6.5653  12.9865  10.0802   C.ar      1 RES1   0.0000
    40 H10      6.5728  13.5848  10.7923   H         1 RES1   0.0000
    41 C22      9.3958   9.5807   1.5296   C.ar      1 RES1   0.0000
    42 C23      8.6460   9.3667   2.6502   C.ar      1 RES1   0.0000
    43 H11      8.1129   8.6069   2.7088   H         1 RES1   0.0000
    44 C24     10.2283  11.6222   2.4533   C.ar      1 RES1   0.0000
    45 H12     10.7582  12.3811   2.3685   H         1 RES1   0.0000
    46 C25      5.8590   9.3026   6.8207   C.ar      1 RES1   0.0000
    47 H13      5.8975   8.7119   6.1032   H         1 RES1   0.0000
    48 C26      4.8531   9.9136   8.9176   C.ar      1 RES1   0.0000
    49 H14      4.2384   9.7432   9.5938   H         1 RES1   0.0000
    50 C27      8.0955  17.7574   5.8258   C.ar      1 RES1   0.0000
    51 H15      8.2846  18.6619   5.9338   H         1 RES1   0.0000
    52 C28      5.6386  15.5619   4.1600   C.ar      1 RES1   0.0000
    53 H16      5.0695  16.1719   3.7480   H         1 RES1   0.0000
    54 C29      7.0282  17.3821   5.1071   C.ar      1 RES1   0.0000
    55 H17      6.4815  18.0336   4.7313   H         1 RES1   0.0000
    56 C30      4.9227   9.0997   7.8528   C.ar      1 RES1   0.0000
    57 H18      4.3355   8.3802   7.7957   H         1 RES1   0.0000
    58 C31      5.4085  14.2316   4.0272   C.ar      1 RES1   0.0000
    59 H19      4.6952  13.9229   3.5164   H         1 RES1   0.0000
    60 C32      5.6947  11.9447  10.0638   C.ar      1 RES1   0.0000
    61 H20      5.0841  11.8429  10.7580   H         1 RES1   0.0000
    62 C33     14.4902  15.0557  10.5951   C.3       1 RES1   0.0000
    63 H21     14.4984  15.5589   9.7777   H         1 RES1   0.0000
    64 H22     15.3163  15.1943  11.0644   H         1 RES1   0.0000
    65 H23     13.7582  15.3483  11.1435   H         1 RES1   0.0000
    66 C34      8.5433   7.6620   0.3716   C.3       1 RES1   0.0000
    67 H24      8.6606   7.1889  -0.4549   H         1 RES1   0.0000
    68 H25      7.6462   7.9997   0.4232   H         1 RES1   0.0000
    69 H26      8.7043   7.0671   1.1074   H         1 RES1   0.0000
    70 S1      13.1145   7.7019   8.1603   S.2       2 RES2  -1.0000
    71 N5      13.5187   8.7737  10.6615   N.1       2 RES2   0.0000
    72 C35     13.3499   8.3262   9.6654   C.1       2 RES2   0.0000
    73 C36      8.3344  16.8906  10.4890   C.1       3 RES3   0.0000
    74 N6       8.6719  16.1979   9.7540   N.1       3 RES3   0.0000
    75 C37      8.0170  17.8059  11.6307   C.3       3 RES3   0.0000
    76 H27      7.9791  18.7109  11.3135   H         3 RES3   0.0000
    77 H28      8.6996  17.7294  12.3010   H         3 RES3   0.0000
    78 H29      7.1686  17.5629  12.0082   H         3 RES3   0.0000
@<TRIPOS>BOND
     1     1     2    1
     2     2    10    1
     3     3     1    1
     4     4     1    1
     5     5    32    1
     6     6     1    1
     7     7     1    1
     8     8     1    1
     9     9    41    1
    10    10    17   ar
    11    11     7   ar
    12    12     6   ar
    13    13     4    2
    14    14    13    1
    15    15     4    1
    16    16    22    1
    17    17    13    1
    18    18    11   ar
    19    19     7   ar
    20    20    19    1
    21    21     8    1
    22    22     8    2
    23    23    22    1
    24    24    10   ar
    25    25    24    1
    26    26     3    1
    27    27    17   ar
    28    28    27    1
    29    29    12   ar
    30    30     6   ar
    31    31    30    1
    32    32    27   ar
    33    33    24   ar
    34    34    33    1
    35    35    15   ar
    36    36    35    1
    37    37    38    1
    38    39    19   ar
    39    40    39    1
    40    41    37   ar
    41    42    16   ar
    42    43    42    1
    43    44    26   ar
    44    45    44    1
    45    46    21   ar
    46    47    46    1
    47    48    18   ar
    48    49    48    1
    49    50    35   ar
    50    51    50    1
    51    52    29   ar
    52    53    52    1
    53    54    29   ar
    54    55    54    1
    55    56    46   ar
    56    57    56    1
    57    58    30   ar
    58    59    58    1
    59    60    18   ar
    60    61    60    1
    61    62     5    1
    62    63    62    1
    63    64    62    1
    64    65    62    1
    65    66     9    1
    66    67    66    1
    67    68    66    1
    68    69    66    1
    69    11    21   ar
    70    12    15   ar
    71    16    26   ar
    72    32    33   ar
    73    37    44   ar
    74    39    60   ar
    75    41    42   ar
    76    48    56   ar
    77    50    54   ar
    78    52    58   ar
    79    70    72    1
    80    71    72    3
    81    73    74    3
    82    75    73    1
    83    76    75    1
    84    77    75    1
    85    78    75    1
@<TRIPOS>SUBSTRUCTURE
     1 RES1        1 GROUP             0 ****  ****    0  
     2 RES2       70 GROUP             0 ****  ****    0  
     3 RES3       73 GROUP             0 ****  ****    0  
@<TRIPOS>CRYSIN
   11.7635   12.7160   13.2423   61.7430   83.2500   70.3120     2     1
