@<TRIPOS>MOLECULE
FIBWUK
    80    87     3     0     0
SMALL
USER_CHARGES
****
Generated from the CSD

@<TRIPOS>ATOM
     1 Fe1      5.7998   4.8635   1.4743   Fe        1 RES1   1.0000
     2 N1       5.2977   5.6368   3.2180   N.ar      1 RES1   0.0000
     3 N2       3.9144   4.4704   1.3620   N.2       1 RES1   0.0000
     4 N3       6.2522   3.1806   2.4121   N.ar      1 RES1   0.0000
     5 N4       7.6858   5.2403   1.7109   N.2       1 RES1   0.0000
     6 O1       6.2355   4.0514  -0.1520   O.3       1 RES1   0.0000
     7 O2       5.3994   6.5085   0.6724   O.3       1 RES1   0.0000
     8 O3       3.0057   1.7552  -3.9951   O.3       1 RES1   0.0000
     9 O4       8.7080  10.6823  -0.7714   O.3       1 RES1   0.0000
    10 C1       6.0613   6.2850   4.0942   C.ar      1 RES1   0.0000
    11 H1       6.9681   6.3814   3.9088   H         1 RES1   0.0000
    12 C2       5.5628   6.8249   5.2766   C.ar      1 RES1   0.0000
    13 H2       6.1305   7.2669   5.8661   H         1 RES1   0.0000
    14 C3       4.2344   6.6993   5.5656   C.ar      1 RES1   0.0000
    15 H3       3.8961   7.0559   6.3554   H         1 RES1   0.0000
    16 C4       3.3750   6.0277   4.6641   C.ar      1 RES1   0.0000
    17 C5       1.9889   5.8497   4.8586   C.ar      1 RES1   0.0000
    18 H4       1.5830   6.1692   5.6312   H         1 RES1   0.0000
    19 C6       1.2447   5.2077   3.9111   C.ar      1 RES1   0.0000
    20 H5       0.3326   5.0959   4.0516   H         1 RES1   0.0000
    21 C7       1.8183   4.7163   2.7379   C.ar      1 RES1   0.0000
    22 H6       1.2879   4.2838   2.1081   H         1 RES1   0.0000
    23 C8       3.1680   4.8704   2.5111   C.ar      1 RES1   0.0000
    24 C9       3.9585   5.5243   3.4759   C.ar      1 RES1   0.0000
    25 C10      3.3092   3.9340   0.3293   C.2       1 RES1   0.0000
    26 H7       2.3827   3.8653   0.3569   H         1 RES1   0.0000
    27 C11      3.9741   3.4525  -0.8278   C.ar      1 RES1   0.0000
    28 C12      3.1603   2.8480  -1.8272   C.ar      1 RES1   0.0000
    29 H8       2.2419   2.7883  -1.6948   H         1 RES1   0.0000
    30 C13      3.7056   2.3589  -2.9705   C.ar      1 RES1   0.0000
    31 C14      5.1011   2.4633  -3.1915   C.ar      1 RES1   0.0000
    32 H9       5.4709   2.1531  -3.9859   H         1 RES1   0.0000
    33 C15      5.9085   3.0244  -2.2290   C.ar      1 RES1   0.0000
    34 H10      6.8246   3.0701  -2.3798   H         1 RES1   0.0000
    35 C16      5.3877   3.5309  -1.0235   C.ar      1 RES1   0.0000
    36 C17      5.4593   2.1429   2.6884   C.ar      1 RES1   0.0000
    37 H11      4.5715   2.1656   2.4144   H         1 RES1   0.0000
    38 C18      5.9359   1.0152   3.3826   C.ar      1 RES1   0.0000
    39 H12      5.3621   0.3024   3.5542   H         1 RES1   0.0000
    40 C19      7.2304   0.9589   3.8052   C.ar      1 RES1   0.0000
    41 H13      7.5335   0.2190   4.2807   H         1 RES1   0.0000
    42 C20      8.1130   2.0315   3.5162   C.ar      1 RES1   0.0000
    43 C21      9.4569   2.0861   3.9192   C.ar      1 RES1   0.0000
    44 H14      9.8298   1.3811   4.3958   H         1 RES1   0.0000
    45 C22     10.2220   3.1900   3.6037   C.ar      1 RES1   0.0000
    46 H15     11.1088   3.2229   3.8812   H         1 RES1   0.0000
    47 C23      9.6929   4.2656   2.8726   C.ar      1 RES1   0.0000
    48 H16     10.2319   4.9960   2.6688   H         1 RES1   0.0000
    49 C24      8.3741   4.2460   2.4547   C.ar      1 RES1   0.0000
    50 C25      7.5729   3.1256   2.8012   C.ar      1 RES1   0.0000
    51 C26      8.3086   6.2747   1.2354   C.2       1 RES1   0.0000
    52 H17      9.2326   6.3039   1.3321   H         1 RES1   0.0000
    53 C27      7.6764   7.3691   0.5768   C.ar      1 RES1   0.0000
    54 C28      8.5097   8.4548   0.1957   C.ar      1 RES1   0.0000
    55 H18      9.4253   8.4064   0.3535   H         1 RES1   0.0000
    56 C29      7.9881   9.5655  -0.3984   C.ar      1 RES1   0.0000
    57 C30      6.6220   9.6287  -0.6563   C.ar      1 RES1   0.0000
    58 H19      6.2707  10.3801  -1.0777   H         1 RES1   0.0000
    59 C31      5.7835   8.6039  -0.3005   C.ar      1 RES1   0.0000
    60 H20      4.8734   8.6756  -0.4767   H         1 RES1   0.0000
    61 C32      6.2775   7.4415   0.3293   C.ar      1 RES1   0.0000
    62 C33     10.0603  10.7380  -0.3224   C.3       1 RES1   0.0000
    63 H21     10.0793  10.7465   0.6367   H         1 RES1   0.0000
    64 H22     10.4768  11.5358  -0.6574   H         1 RES1   0.0000
    65 H23     10.5364   9.9684  -0.6459   H         1 RES1   0.0000
    66 C34      1.6576   1.3862  -3.7015   C.3       1 RES1   0.0000
    67 H24      1.6447   0.8065  -2.9371   H         1 RES1   0.0000
    68 H25      1.2796   0.9308  -4.4557   H         1 RES1   0.0000
    69 H26      1.1450   2.1753  -3.5127   H         1 RES1   0.0000
    70 B1       9.5147   7.9467   5.0198   B         2 RES2  -1.0000
    71 F1       8.6245   7.7883   6.0779   F         2 RES2   0.0000
    72 F2      10.4247   6.8673   5.0809   F         2 RES2   0.0000
    73 F3       8.8957   7.8552   3.8270   F         2 RES2   0.0000
    74 F4      10.2111   9.1269   5.1718   F         2 RES2   0.0000
    75 C35      1.9644   0.1075   3.0936   C.3       3 RES3   0.0000
    76 H27      2.5659  -0.2332   3.7591   H         3 RES3   0.0000
    77 H28      2.1050  -0.3592   2.2658   H         3 RES3   0.0000
    78 H29      1.0593  -0.0237   3.3838   H         3 RES3   0.0000
    79 O5       2.2019   1.4794   2.9048   O.3       3 RES3   0.0000
    80 H30      1.9055   1.7379   3.6578   H         3 RES3   0.0000
@<TRIPOS>BOND
     1     1     2    1
     2     2    10   ar
     3     3     1    1
     4     4     1    1
     5     5     1    1
     6     6     1    1
     7     7     1    1
     8     8    30    1
     9     9    56    1
    10    10    11    1
    11    12    10   ar
    12    13    12    1
    13    14    12   ar
    14    15    14    1
    15    16    14   ar
    16    17    16   ar
    17    18    17    1
    18    19    17   ar
    19    20    19    1
    20    21    19   ar
    21    22    21    1
    22    23     3    1
    23    24     2   ar
    24    25     3    2
    25    26    25    1
    26    27    25    1
    27    28    27   ar
    28    29    28    1
    29    30    28   ar
    30    31    30   ar
    31    32    31    1
    32    33    31   ar
    33    34    33    1
    34    35     6    1
    35    36     4   ar
    36    37    36    1
    37    38    36   ar
    38    39    38    1
    39    40    38   ar
    40    41    40    1
    41    42    40   ar
    42    43    42   ar
    43    44    43    1
    44    45    43   ar
    45    46    45    1
    46    47    45   ar
    47    48    47    1
    48    49     5    1
    49    50     4   ar
    50    51     5    2
    51    52    51    1
    52    53    51    1
    53    54    53   ar
    54    55    54    1
    55    56    54   ar
    56    57    56   ar
    57    58    57    1
    58    59    57   ar
    59    60    59    1
    60    61     7    1
    61    62     9    1
    62    63    62    1
    63    64    62    1
    64    65    62    1
    65    66     8    1
    66    67    66    1
    67    68    66    1
    68    69    66    1
    69    16    24   ar
    70    21    23   ar
    71    23    24   ar
    72    27    35   ar
    73    33    35   ar
    74    42    50   ar
    75    47    49   ar
    76    49    50   ar
    77    53    61   ar
    78    59    61   ar
    79    70    71    1
    80    72    70    1
    81    73    70    1
    82    74    70    1
    83    75    76    1
    84    77    75    1
    85    78    75    1
    86    79    75    1
    87    80    79    1
@<TRIPOS>SUBSTRUCTURE
     1 RES1        1 GROUP             0 ****  ****    0  
     2 RES2       70 GROUP             0 ****  ****    0  
     3 RES3       75 GROUP             0 ****  ****    0  
@<TRIPOS>CRYSIN
   12.2670   12.2756   12.3111   84.3700   69.6460   63.0980     2     1
