@<TRIPOS>MOLECULE
FIBWOE01
    78    85     3     0     0
SMALL
USER_CHARGES
****
Generated from the CSD

@<TRIPOS>ATOM
     1 Fe1     14.2944   6.9495   5.0151   Fe        1 RES1   1.0000
     2 O1      14.7203   5.3795   4.0884   O.3       1 RES1   0.0000
     3 O2      13.9309   6.0433   6.6154   O.3       1 RES1   0.0000
     4 O3      11.4476   1.7483   1.5138   O.3       1 RES1   0.0000
     5 O4      17.3207   4.3504  10.6364   O.3       1 RES1   0.0000
     6 N1      14.7154   7.9927   3.3915   N.ar      1 RES1   0.0000
     7 N2      13.7984   8.6392   5.9171   N.ar      1 RES1   0.0000
     8 N3      12.3982   6.8710   4.6301   N.2       1 RES1   0.0000
     9 N4      16.1917   7.1669   5.3695   N.2       1 RES1   0.0000
    10 C1      16.0348   8.3914   3.3442   C.ar      1 RES1   0.0000
    11 C2      11.7957   5.8942   4.0086   C.2       1 RES1   0.0000
    12 H1      10.8501   5.9367   3.9306   H         1 RES1   0.0000
    13 C3      12.4512   8.9095   5.8311   C.ar      1 RES1   0.0000
    14 C4      12.1641   2.7174   2.1762   C.ar      1 RES1   0.0000
    15 C5      14.8260   5.6631   7.5148   C.ar      1 RES1   0.0000
    16 C6      15.2065   4.5359   9.6370   C.ar      1 RES1   0.0000
    17 H2      14.8594   4.0559  10.3799   H         1 RES1   0.0000
    18 C7      16.2189   5.9179   7.4409   C.ar      1 RES1   0.0000
    19 C8      11.6276   3.8301   2.7624   C.ar      1 RES1   0.0000
    20 H3      10.6904   3.9793   2.7158   H         1 RES1   0.0000
    21 C9      17.0810   5.4771   8.4855   C.ar      1 RES1   0.0000
    22 H4      18.0130   5.6495   8.4288   H         1 RES1   0.0000
    23 C10     16.8656   7.9757   4.4130   C.ar      1 RES1   0.0000
    24 C11     12.4562   4.7700   3.4400   C.ar      1 RES1   0.0000
    25 C12     17.8851   9.5980   2.3492   C.ar      1 RES1   0.0000
    26 H5      18.2453  10.1498   1.6647   H         1 RES1   0.0000
    27 C13     16.5343   9.1941   2.2908   C.ar      1 RES1   0.0000
    28 C14     14.3524   4.9536   8.6431   C.ar      1 RES1   0.0000
    29 H6      13.4251   4.7610   8.7164   H         1 RES1   0.0000
    30 C15     16.5825   4.8068   9.5687   C.ar      1 RES1   0.0000
    31 C16     13.8572   4.5628   3.4951   C.ar      1 RES1   0.0000
    32 C17     11.8740  10.0454   6.4349   C.ar      1 RES1   0.0000
    33 C18     11.6575   7.9766   5.1193   C.ar      1 RES1   0.0000
    34 C19     14.3728   3.4016   2.8836   C.ar      1 RES1   0.0000
    35 H7      15.3084   3.2416   2.9050   H         1 RES1   0.0000
    36 C20     13.5484   2.4944   2.2555   C.ar      1 RES1   0.0000
    37 H8      13.9209   1.7096   1.8706   H         1 RES1   0.0000
    38 C21     18.1789   8.3820   4.4339   C.ar      1 RES1   0.0000
    39 H9      18.7468   8.1165   5.1467   H         1 RES1   0.0000
    40 C22     10.3062   8.2222   4.9772   C.ar      1 RES1   0.0000
    41 H10      9.7621   7.6203   4.4847   H         1 RES1   0.0000
    42 C23     16.8305   6.6550   6.3820   C.2       1 RES1   0.0000
    43 H11     17.7715   6.7818   6.4192   H         1 RES1   0.0000
    44 C24     14.3321   9.1195   1.3156   C.ar      1 RES1   0.0000
    45 H12     13.7273   9.3408   0.6180   H         1 RES1   0.0000
    46 C25     14.5744   9.4624   6.5980   C.ar      1 RES1   0.0000
    47 H13     15.5025   9.2709   6.6633   H         1 RES1   0.0000
    48 C26     12.7403  10.9039   7.1512   C.ar      1 RES1   0.0000
    49 H14     12.3964  11.6812   7.5758   H         1 RES1   0.0000
    50 C27     18.6815   9.1930   3.3960   C.ar      1 RES1   0.0000
    51 H15     19.5907   9.4661   3.4206   H         1 RES1   0.0000
    52 C28     10.4879  10.2581   6.2829   C.ar      1 RES1   0.0000
    53 H16     10.0755  11.0175   6.6770   H         1 RES1   0.0000
    54 C29      9.7411   9.3661   5.5645   C.ar      1 RES1   0.0000
    55 H17      8.8103   9.5245   5.4598   H         1 RES1   0.0000
    56 C30     13.9028   8.3416   2.3966   C.ar      1 RES1   0.0000
    57 H18     12.9988   8.0522   2.4218   H         1 RES1   0.0000
    58 C31     14.0707  10.6137   7.2305   C.ar      1 RES1   0.0000
    59 H19     14.6562  11.1865   7.7124   H         1 RES1   0.0000
    60 C32     15.6260   9.5582   1.2683   C.ar      1 RES1   0.0000
    61 H20     15.9147  10.1079   0.5486   H         1 RES1   0.0000
    62 C33     18.6716   4.8110  10.7157   C.3       1 RES1   0.0000
    63 H21     19.1636   4.5156   9.9214   H         1 RES1   0.0000
    64 H22     19.0949   4.4433  11.5187   H         1 RES1   0.0000
    65 H23     18.6798   5.7899  10.7600   H         1 RES1   0.0000
    66 C34     10.0923   2.0672   1.2165   C.3       1 RES1   0.0000
    67 H24      9.6862   1.3307   0.7146   H         1 RES1   0.0000
    68 H25     10.0602   2.8864   0.6797   H         1 RES1   0.0000
    69 H26      9.5990   2.2048   2.0523   H         1 RES1   0.0000
    70 S1      12.0455  10.9011  -3.5773   S.2       2 RES2  -1.0000
    71 N5      12.8060  11.2796  -0.9112   N.1       2 RES2   0.0000
    72 C35     12.4835  11.1273  -2.0087   C.1       2 RES2   0.0000
    73 N6      10.7668   7.9996   1.5228   N.1       3 RES3   0.0000
    74 C36     10.3612   8.5571   0.6226   C.1       3 RES3   0.0000
    75 C37      9.8531   9.2089  -0.5829   C.3       3 RES3   0.0000
    76 H27      9.4223   8.5422  -1.1574   H         3 RES3   0.0000
    77 H28     10.5970   9.6252  -1.0667   H         3 RES3   0.0000
    78 H29      9.2010   9.8955  -0.3324   H         3 RES3   0.0000
@<TRIPOS>BOND
     1     1     2    1
     2     2    31    1
     3     3     1    1
     4     4    14    1
     5     5    30    1
     6     6     1    1
     7     7     1    1
     8     8     1    1
     9     9     1    1
    10    10     6   ar
    11    11     8    2
    12    12    11    1
    13    13     7   ar
    14    14    19   ar
    15    15     3    1
    16    16    17    1
    17    18    15   ar
    18    19    20    1
    19    21    18   ar
    20    22    21    1
    21    23     9    1
    22    24    11    1
    23    25    26    1
    24    27    10   ar
    25    28    15   ar
    26    29    28    1
    27    30    16   ar
    28    31    24   ar
    29    32    13   ar
    30    33     8    1
    31    34    31   ar
    32    35    34    1
    33    36    14   ar
    34    37    36    1
    35    38    23   ar
    36    39    38    1
    37    40    33   ar
    38    41    40    1
    39    42     9    2
    40    43    42    1
    41    44    45    1
    42    46     7   ar
    43    47    46    1
    44    48    32   ar
    45    49    48    1
    46    50    25   ar
    47    51    50    1
    48    52    32   ar
    49    53    52    1
    50    54    40   ar
    51    55    54    1
    52    56     6   ar
    53    57    56    1
    54    58    46   ar
    55    59    58    1
    56    60    27   ar
    57    61    60    1
    58    62     5    1
    59    63    62    1
    60    64    62    1
    61    65    62    1
    62    66     4    1
    63    67    66    1
    64    68    66    1
    65    69    66    1
    66    10    23   ar
    67    13    33   ar
    68    16    28   ar
    69    18    42    1
    70    19    24   ar
    71    21    30   ar
    72    25    27   ar
    73    34    36   ar
    74    38    50   ar
    75    44    56   ar
    76    44    60   ar
    77    48    58   ar
    78    52    54   ar
    79    70    72    1
    80    71    72    3
    81    73    74    3
    82    74    75    1
    83    75    76    1
    84    77    75    1
    85    78    75    1
@<TRIPOS>SUBSTRUCTURE
     1 RES1        1 GROUP             0 ****  ****    0  
     2 RES2       70 GROUP             0 ****  ****    0  
     3 RES3       73 GROUP             0 ****  ****    0  
@<TRIPOS>CRYSIN
   12.3109   12.3269   12.5501   83.7940   61.6290   69.9960     2     1
