@<TRIPOS>MOLECULE
FIBWOE50
    78    85     3     0     0
SMALL
USER_CHARGES
****
Generated from the CSD

@<TRIPOS>ATOM
     1 Fe1      8.7789   5.6144   5.3651   Fe        1 RES1   1.0000
     2 O1       7.3611   6.3688   4.3393   O.3       1 RES1   0.0000
     3 N1       9.8633   7.3601   5.7889   N.2       1 RES1   0.0000
     4 O2       7.9400   5.7530   7.0470   O.3       1 RES1   0.0000
     5 O3       3.2431   4.3887   1.3597   O.3       1 RES1   0.0000
     6 N2       8.1060   3.6991   4.7992   N.2       1 RES1   0.0000
     7 N3      10.2236   4.3736   6.2966   N.ar      1 RES1   0.0000
     8 C1      11.8119   7.0649   2.6633   C.ar      1 RES1   0.0000
     9 N4      10.0261   5.7526   3.6776   N.ar      1 RES1   0.0000
    10 C2      10.9447   6.8405   3.6694   C.ar      1 RES1   0.0000
    11 O4       8.0261   9.3045  11.2393   O.3       1 RES1   0.0000
    12 C3      10.1501   4.9402   2.6237   C.ar      1 RES1   0.0000
    13 H1       9.6089   4.1846   2.6155   H         1 RES1   0.0000
    14 C4       9.6873   8.0818   6.8182   C.2       1 RES1   0.0000
    15 H2      10.1390   8.8942   6.8312   H         1 RES1   0.0000
    16 C5       6.4452   5.8229   3.6192   C.ar      1 RES1   0.0000
    17 C6       8.0157   6.6364   8.0507   C.ar      1 RES1   0.0000
    18 C7       8.8760   7.7901   7.9597   C.ar      1 RES1   0.0000
    19 C8       8.8656   2.6352   5.4025   C.ar      1 RES1   0.0000
    20 C9       6.2575   4.4033   3.4535   C.ar      1 RES1   0.0000
    21 C10      7.0670   3.4832   4.1164   C.2       1 RES1   0.0000
    22 H3       6.8068   2.5933   4.0466   H         1 RES1   0.0000
    23 C11      7.2867   6.4792   9.2248   C.ar      1 RES1   0.0000
    24 H4       6.7654   5.7143   9.3117   H         1 RES1   0.0000
    25 C12      9.9569   2.9831   6.0946   C.ar      1 RES1   0.0000
    26 C13      5.1978   3.9439   2.6902   C.ar      1 RES1   0.0000
    27 H5       5.0783   3.0238   2.6284   H         1 RES1   0.0000
    28 C14     10.8103   7.7181   4.7746   C.ar      1 RES1   0.0000
    29 C15     10.8175   2.0488   6.7786   C.ar      1 RES1   0.0000
    30 C16      8.8439   8.6913   9.0252   C.ar      1 RES1   0.0000
    31 H6       9.3542   9.4649   8.9600   H         1 RES1   0.0000
    32 C17     10.9794   5.0989   1.5674   C.ar      1 RES1   0.0000
    33 H7      10.9208   4.5308   0.8335   H         1 RES1   0.0000
    34 C18     12.5825   8.9855   3.8351   C.ar      1 RES1   0.0000
    35 H8      13.1510   9.7177   3.8997   H         1 RES1   0.0000
    36 C19     11.6966   8.7940   4.8400   C.ar      1 RES1   0.0000
    37 H9      11.6788   9.3741   5.5664   H         1 RES1   0.0000
    38 C20      8.6033   1.2515   5.2251   C.ar      1 RES1   0.0000
    39 H10      7.8748   0.9707   4.7191   H         1 RES1   0.0000
    40 C21      5.5624   6.6417   2.8746   C.ar      1 RES1   0.0000
    41 H11      5.6993   7.5621   2.8692   H         1 RES1   0.0000
    42 C22     12.7073   8.1864   2.7310   C.ar      1 RES1   0.0000
    43 H12     13.3337   8.3585   2.0655   H         1 RES1   0.0000
    44 C23     11.9113   6.1109   1.5908   C.ar      1 RES1   0.0000
    45 H13     12.5744   6.1753   0.9418   H         1 RES1   0.0000
    46 C24      8.1147   8.5038  10.1410   C.ar      1 RES1   0.0000
    47 C25     11.2337   4.7363   6.9618   C.ar      1 RES1   0.0000
    48 H14     11.3987   5.6485   7.0291   H         1 RES1   0.0000
    49 C26      4.5348   6.1355   2.1778   C.ar      1 RES1   0.0000
    50 H15      3.9387   6.7287   1.7806   H         1 RES1   0.0000
    51 C27      4.3055   4.7542   2.0121   C.ar      1 RES1   0.0000
    52 C28     11.8675   2.4978   7.4485   C.ar      1 RES1   0.0000
    53 H16     12.4451   1.8716   7.8219   H         1 RES1   0.0000
    54 C29      7.2855   7.3561  10.2390   C.ar      1 RES1   0.0000
    55 H17      6.7541   7.2154  10.9891   H         1 RES1   0.0000
    56 C30     12.1606   3.8366   7.6294   C.ar      1 RES1   0.0000
    57 H18     12.8834   4.1344   8.1325   H         1 RES1   0.0000
    58 C31      8.9467  10.4242  11.3058   C.3       1 RES1   0.0000
    59 H19      8.8146  10.9929  10.5438   H         1 RES1   0.0000
    60 H20      9.8491  10.0965  11.3079   H         1 RES1   0.0000
    61 H21      8.7855  10.9233  12.1096   H         1 RES1   0.0000
    62 C32      9.4540   0.3140   5.8227   C.ar      1 RES1   0.0000
    63 H22      9.2827  -0.5927   5.7109   H         1 RES1   0.0000
    64 C33      3.0924   3.0131   1.0761   C.3       1 RES1   0.0000
    65 H23      3.7281   2.7531   0.4049   H         1 RES1   0.0000
    66 H24      2.2029   2.8472   0.7550   H         1 RES1   0.0000
    67 H25      3.2443   2.5023   1.8749   H         1 RES1   0.0000
    68 C34     10.4800   0.6861   6.5335   C.ar      1 RES1   0.0000
    69 H26     11.0226   0.0261   6.9013   H         1 RES1   0.0000
    70 S1       4.4490  10.3835   3.4862   S.2       2 RES2  -1.0000
    71 C35      4.1880   9.7802   1.9782   C.1       2 RES2   0.0000
    72 N5       4.0885   9.3021   0.9769   N.1       2 RES2   0.0000
    73 C36      9.2575   1.2035   1.1671   C.1       3 RES3   0.0000
    74 N6       8.8921   1.8508   1.8860   N.1       3 RES3   0.0000
    75 C37      9.5730   0.2423   0.0899   C.3       3 RES3   0.0000
    76 H27      8.8982   0.2921  -0.5910   H         3 RES3   0.0000
    77 H28      9.5973  -0.6466   0.4518   H         3 RES3   0.0000
    78 H29     10.4282   0.4557  -0.2913   H         3 RES3   0.0000
@<TRIPOS>BOND
     1     1     2    1
     2     2    16    1
     3     3     1    1
     4     4     1    1
     5     5    51    1
     6     6     1    1
     7     7     1    1
     8     8    10   ar
     9     9     1    1
    10    10     9   ar
    11    11    46    1
    12    12     9   ar
    13    13    12    1
    14    14     3    2
    15    15    14    1
    16    16    20   ar
    17    17     4    1
    18    18    14    1
    19    19     6    1
    20    20    21    1
    21    21     6    2
    22    22    21    1
    23    23    17   ar
    24    24    23    1
    25    25     7   ar
    26    26    20   ar
    27    27    26    1
    28    28     3    1
    29    29    25   ar
    30    30    18   ar
    31    31    30    1
    32    32    12   ar
    33    33    32    1
    34    34    35    1
    35    36    28   ar
    36    37    36    1
    37    38    19   ar
    38    39    38    1
    39    40    16   ar
    40    41    40    1
    41    42     8   ar
    42    43    42    1
    43    44     8   ar
    44    45    44    1
    45    46    30   ar
    46    47     7   ar
    47    48    47    1
    48    49    40   ar
    49    50    49    1
    50    51    26   ar
    51    52    29   ar
    52    53    52    1
    53    54    23   ar
    54    55    54    1
    55    56    47   ar
    56    57    56    1
    57    58    11    1
    58    59    58    1
    59    60    58    1
    60    61    58    1
    61    62    38   ar
    62    63    62    1
    63    64     5    1
    64    65    64    1
    65    66    64    1
    66    67    64    1
    67    68    29   ar
    68    69    68    1
    69    10    28   ar
    70    17    18   ar
    71    19    25   ar
    72    32    44   ar
    73    34    36   ar
    74    34    42   ar
    75    46    54   ar
    76    49    51   ar
    77    52    56   ar
    78    62    68   ar
    79    70    71    1
    80    71    72    3
    81    73    74    3
    82    75    73    1
    83    76    75    1
    84    77    75    1
    85    78    75    1
@<TRIPOS>SUBSTRUCTURE
     1 RES1        1 GROUP             0 ****  ****    0  
     2 RES2       70 GROUP             0 ****  ****    0  
     3 RES3       73 GROUP             0 ****  ****    0  
@<TRIPOS>CRYSIN
   11.7420   12.7260   13.2440   61.9700   83.7000   70.4000     2     1
