@<TRIPOS>MOLECULE
FIDNUE
   173   187     3     0     0
SMALL
NO_CHARGES
****
Generated from the CSD

@<TRIPOS>ATOM
     1 Fe1     10.0486   8.4344   5.3644   Fe        1 RES1   0.0000
     2 P1       7.7792   8.3103   5.6502   P.3       1 RES1   0.0000
     3 P2      10.3734   6.3847   4.4211   P.3       1 RES1   0.0000
     4 P3      10.4839   5.4867   7.0455   P.3       1 RES1   0.0000
     5 P4      12.9712   7.6983   7.2012   P.3       1 RES1   0.0000
     6 P5      12.1149   9.1380   4.9275   P.3       1 RES1   0.0000
     7 P6       9.2443  10.4474   5.7770   P.3       1 RES1   0.0000
     8 N1      10.4832   5.1301   5.4895   N.2       1 RES1   0.0000
     9 N2       7.6403   9.9945   5.5048   N.3       1 RES1   0.0000
    10 C1       9.4176  11.8990   4.6738   C.ar      1 RES1   0.0000
    11 C2       8.7620   4.4665   3.1919   C.ar      1 RES1   0.0000
    12 H1       9.1300   3.8756   3.8389   H         1 RES1   0.0000
    13 N3      13.2978   8.3964   5.7993   N.2       1 RES1   0.0000
    14 C3       9.9827  13.1063   5.0812   C.ar      1 RES1   0.0000
    15 H2      10.3177  13.1962   5.9665   H         1 RES1   0.0000
    16 C4       8.8437   5.1440   7.7856   C.ar      1 RES1   0.0000
    17 C5      10.0068  10.7913   8.4682   C.ar      1 RES1   0.0000
    18 H3      10.6420  10.1061   8.2946   H         1 RES1   0.0000
    19 C6      12.5653  10.9374   5.1804   C.ar      1 RES1   0.0000
    20 C7      11.4825   4.2058   7.8761   C.ar      1 RES1   0.0000
    21 C8      12.1459   3.2469   7.1175   C.ar      1 RES1   0.0000
    22 H4      12.1023   3.2875   6.1692   H         1 RES1   0.0000
    23 C9       6.0985   6.3768   4.4713   C.ar      1 RES1   0.0000
    24 H5       6.4579   5.7657   5.1032   H         1 RES1   0.0000
    25 C10      4.8295   7.7417   8.5189   C.ar      1 RES1   0.0000
    26 H6       3.9217   7.4662   8.5628   H         1 RES1   0.0000
    27 C11     12.8889   5.2787   3.7859   C.ar      1 RES1   0.0000
    28 H7      12.9130   5.0400   4.7043   H         1 RES1   0.0000
    29 C12      6.5614   7.6956   4.4372   C.ar      1 RES1   0.0000
    30 C13      8.5369   6.6747   2.2711   C.ar      1 RES1   0.0000
    31 H8       8.7450   7.6012   2.2867   H         1 RES1   0.0000
    32 C14     14.3420   5.6485   8.5619   C.ar      1 RES1   0.0000
    33 H9      13.8529   5.9191   9.3301   H         1 RES1   0.0000
    34 C15      9.1984  11.2604   7.4351   C.ar      1 RES1   0.0000
    35 C16     14.1569   6.3196   7.3468   C.ar      1 RES1   0.0000
    36 C17     14.0058   8.7327   2.8742   C.ar      1 RES1   0.0000
    37 H10     14.5908   8.4187   3.5533   H         1 RES1   0.0000
    38 C18     11.8446   9.5110   2.1714   C.ar      1 RES1   0.0000
    39 H11     10.9393   9.7223   2.3674   H         1 RES1   0.0000
    40 C19     12.9338  11.8102   4.1558   C.ar      1 RES1   0.0000
    41 H12     12.8316  11.5401   3.2503   H         1 RES1   0.0000
    42 C20     11.7981   5.9876   3.2915   C.ar      1 RES1   0.0000
    43 C21      9.0904   5.8208   3.2289   C.ar      1 RES1   0.0000
    44 C22      6.7943   8.5734   9.5928   C.ar      1 RES1   0.0000
    45 H13      7.2328   8.8983  10.3699   H         1 RES1   0.0000
    46 C23     12.2895   3.1240   9.8768   C.ar      1 RES1   0.0000
    47 H14     12.3397   3.0834  10.8255   H         1 RES1   0.0000
    48 C24      7.4929   8.4659   8.4054   C.ar      1 RES1   0.0000
    49 H15      8.4170   8.6813   8.3840   H         1 RES1   0.0000
    50 C25     14.4675   8.8630   1.5665   C.ar      1 RES1   0.0000
    51 H16     15.3629   8.6278   1.3559   H         1 RES1   0.0000
    52 C26      8.4847   5.4932   9.0890   C.ar      1 RES1   0.0000
    53 H17      9.0788   6.0074   9.6222   H         1 RES1   0.0000
    54 C27      5.4603   8.2123   9.6575   C.ar      1 RES1   0.0000
    55 H18      4.9825   8.2860  10.4746   H         1 RES1   0.0000
    56 C28      8.9616  11.7830   3.3656   C.ar      1 RES1   0.0000
    57 H19      8.5913  10.9595   3.0693   H         1 RES1   0.0000
    58 C29      7.9448   4.4025   7.0231   C.ar      1 RES1   0.0000
    59 H20      8.1684   4.1660   6.1300   H         1 RES1   0.0000
    60 C30      4.5909   6.8378   2.6573   C.ar      1 RES1   0.0000
    61 H21      3.8965   6.5544   2.0753   H         1 RES1   0.0000
    62 C31     15.9535   4.1987   7.5460   C.ar      1 RES1   0.0000
    63 H22     16.5441   3.4568   7.6036   H         1 RES1   0.0000
    64 C32     11.5742   4.1421   9.2671   C.ar      1 RES1   0.0000
    65 H23     11.1432   4.8008   9.7988   H         1 RES1   0.0000
    66 C33     10.0593  14.1762   4.2018   C.ar      1 RES1   0.0000
    67 H24     10.4441  14.9963   4.4885   H         1 RES1   0.0000
    68 C34      6.0557   8.5560   3.4646   C.ar      1 RES1   0.0000
    69 H25      6.3846   9.4459   3.4072   H         1 RES1   0.0000
    70 C35     12.9316   2.1665   9.1130   C.ar      1 RES1   0.0000
    71 H26     13.4147   1.4658   9.5350   H         1 RES1   0.0000
    72 C36     15.8130   4.8836   6.3558   C.ar      1 RES1   0.0000
    73 H27     16.3266   4.6260   5.6002   H         1 RES1   0.0000
    74 C37     14.5733   9.6141   8.4337   C.ar      1 RES1   0.0000
    75 H28     14.9644   9.7043   7.5731   H         1 RES1   0.0000
    76 C38     13.2098  12.6526   6.7741   C.ar      1 RES1   0.0000
    77 H29     13.2841  12.9434   7.6755   H         1 RES1   0.0000
    78 C39     12.3207   9.6505   0.8772   C.ar      1 RES1   0.0000
    79 H30     11.7412   9.9683   0.1940   H         1 RES1   0.0000
    80 C40     13.5263   8.7214   8.6260   C.ar      1 RES1   0.0000
    81 C41     12.6893   9.0630   3.1888   C.ar      1 RES1   0.0000
    82 C42      7.9044   3.9739   2.2220   C.ar      1 RES1   0.0000
    83 H31      7.6869   3.0485   2.2083   H         1 RES1   0.0000
    84 C43     13.4476  13.0696   4.4442   C.ar      1 RES1   0.0000
    85 H32     13.6907  13.6515   3.7342   H         1 RES1   0.0000
    86 C44      7.2668   5.0941   9.6080   C.ar      1 RES1   0.0000
    87 H33      7.0345   5.3344  10.4964   H         1 RES1   0.0000
    88 C45      8.1535  12.7802   8.9889   C.ar      1 RES1   0.0000
    89 H34      7.5209  13.4678   9.1644   H         1 RES1   0.0000
    90 C46      9.5793  14.0596   2.9128   C.ar      1 RES1   0.0000
    91 H35      9.6176  14.8006   2.3194   H         1 RES1   0.0000
    92 C47     12.8395   5.9366   1.1098   C.ar      1 RES1   0.0000
    93 H36     12.8156   6.1645   0.1875   H         1 RES1   0.0000
    94 C48     13.6257   9.3308   0.5735   C.ar      1 RES1   0.0000
    95 H37     13.9466   9.4327  -0.3139   H         1 RES1   0.0000
    96 C49     11.7925   6.3027   1.9312   C.ar      1 RES1   0.0000
    97 H38     11.0569   6.7784   1.5652   H         1 RES1   0.0000
    98 C50     15.2326   4.5987   8.6500   C.ar      1 RES1   0.0000
    99 H39     15.3488   4.1479   9.4783   H         1 RES1   0.0000
   100 C51      9.0384  12.8480   2.4895   C.ar      1 RES1   0.0000
   101 H40      8.7238  12.7546   1.5979   H         1 RES1   0.0000
   102 C52      7.6819   6.1749   1.2964   C.ar      1 RES1   0.0000
   103 H41      7.3148   6.7588   0.6431   H         1 RES1   0.0000
   104 C53      8.9556  12.3065  10.0137   C.ar      1 RES1   0.0000
   105 H42      8.8664  12.6563  10.8931   H         1 RES1   0.0000
   106 C54     14.9225   5.9483   6.2553   C.ar      1 RES1   0.0000
   107 H43     14.8420   6.4231   5.4367   H         1 RES1   0.0000
   108 C55      5.1177   5.9605   3.5886   C.ar      1 RES1   0.0000
   109 H44      4.8049   5.0640   3.6209   H         1 RES1   0.0000
   110 C56     13.9209   5.2420   1.6125   C.ar      1 RES1   0.0000
   111 H45     14.6397   4.9933   1.0442   H         1 RES1   0.0000
   112 B1      11.0713   7.2621   7.5197   B         1 RES1   0.0000
   113 C57      9.8913  11.3147   9.7467   C.ar      1 RES1   0.0000
   114 H46     10.4520  10.9941  10.4419   H         1 RES1   0.0000
   115 C58     12.9846   8.5934   9.8971   C.ar      1 RES1   0.0000
   116 H47     12.2724   7.9811  10.0429   H         1 RES1   0.0000
   117 C59     12.8697   2.2336   7.7281   C.ar      1 RES1   0.0000
   118 H48     13.3228   1.5869   7.2003   H         1 RES1   0.0000
   119 C60      6.8545   8.0436   7.2343   C.ar      1 RES1   0.0000
   120 C61      5.0764   8.1239   2.5799   C.ar      1 RES1   0.0000
   121 H49      4.7407   8.7177   1.9183   H         1 RES1   0.0000
   122 C62      8.2661  12.2592   7.7108   C.ar      1 RES1   0.0000
   123 H50      7.7042  12.5858   7.0172   H         1 RES1   0.0000
   124 C63      7.3633   4.8226   1.2757   C.ar      1 RES1   0.0000
   125 H51      6.7754   4.4833   0.6126   H         1 RES1   0.0000
   126 C64      5.5144   7.6710   7.3185   C.ar      1 RES1   0.0000
   127 H52      5.0648   7.3655   6.5398   H         1 RES1   0.0000
   128 C65     12.6987  11.3919   6.4879   C.ar      1 RES1   0.0000
   129 H53     12.4339  10.8268   7.2047   H         1 RES1   0.0000
   130 C66     15.0520  10.3759   9.4919   C.ar      1 RES1   0.0000
   131 H54     15.7656  10.9880   9.3519   H         1 RES1   0.0000
   132 C67      6.3870   4.3524   8.8503   C.ar      1 RES1   0.0000
   133 H55      5.5533   4.0806   9.2146   H         1 RES1   0.0000
   134 C68     13.6091  13.4807   5.7437   C.ar      1 RES1   0.0000
   135 H56     13.9931  14.3292   5.9338   H         1 RES1   0.0000
   136 C69      6.7291   4.0079   7.5552   C.ar      1 RES1   0.0000
   137 H57      6.1261   3.4971   7.0281   H         1 RES1   0.0000
   138 C70     14.4931  10.2447  10.7497   C.ar      1 RES1   0.0000
   139 H58     14.8141  10.7740  11.4686   H         1 RES1   0.0000
   140 C71     13.4700   9.3453  10.9607   C.ar      1 RES1   0.0000
   141 H59     13.0969   9.2404  11.8283   H         1 RES1   0.0000
   142 C72     13.9434   4.9141   2.9560   C.ar      1 RES1   0.0000
   143 H60     14.6826   4.4362   3.3135   H         1 RES1   0.0000
   144 H61     10.8363   7.3984   8.5976   H         1 RES1   0.0000
   145 H62      9.6968   8.8095   4.0329   H         1 RES1   0.0000
   146 H63     10.4004   8.1249   7.0325   H         1 RES1   0.0000
   147 H64      7.0363  10.4464   5.6896   H         1 RES1   0.0000
   148 O1      18.2092  11.7773   5.7733   O.3       2 RES2   0.0000
   149 C73     17.8637  12.2700   4.4815   C.3       2 RES2   0.0000
   150 H65     18.6419  12.2118   3.8737   H         2 RES2   0.0000
   151 H66     17.5814  13.2171   4.5408   H         2 RES2   0.0000
   152 C74     16.7205  11.4134   3.9546   C.3       2 RES2   0.0000
   153 H67     16.9997  10.9098   3.1478   H         2 RES2   0.0000
   154 H68     15.9360  11.9723   3.7277   H         2 RES2   0.0000
   155 C75     16.3947  10.4603   5.1063   C.3       2 RES2   0.0000
   156 H69     15.4164  10.3645   5.2253   H         2 RES2   0.0000
   157 H70     16.7914   9.5658   4.9528   H         2 RES2   0.0000
   158 C76     17.0263  11.1381   6.2952   C.3       2 RES2   0.0000
   159 H71     16.4098  11.8071   6.6858   H         2 RES2   0.0000
   160 H72     17.2632  10.4753   6.9910   H         2 RES2   0.0000
   161 O2       5.0216  10.6625   0.3915   O.3       3 RES3   0.0000
   162 C77      6.3972  11.0850   0.4643   C.3       3 RES3   0.0000
   163 H73      6.4532  12.0721   0.4055   H         3 RES3   0.0000
   164 H74      6.7956  10.7995   1.3254   H         3 RES3   0.0000
   165 C78      4.8299  10.2678  -0.9308   C.3       3 RES3   0.0000
   166 H75      4.5394  11.0379  -1.4802   H         3 RES3   0.0000
   167 H76      4.1362   9.5632  -0.9831   H         3 RES3   0.0000
   168 C79      7.0981  10.4891  -0.6213   C.3       3 RES3   0.0000
   169 H77      7.7973   9.8759  -0.2834   H         3 RES3   0.0000
   170 H78      7.5312  11.1864  -1.1750   H         3 RES3   0.0000
   171 C80      6.1195   9.7544  -1.4104   C.3       3 RES3   0.0000
   172 H79      6.1953   8.7801  -1.2513   H         3 RES3   0.0000
   173 H80      6.2366   9.9327  -2.3761   H         3 RES3   0.0000
@<TRIPOS>BOND
     1     1     2    1
     2     2     9    1
     3     3     1    1
     4     4     8    2
     5     5    13    2
     6     6     1    1
     7     7     1    1
     8     8     3    1
     9     9     7    1
    10    10     7    1
    11    11    12    1
    12    13     6    1
    13    14    10   ar
    14    15    14    1
    15    16     4    1
    16    17    18    1
    17    19     6    1
    18    20     4    1
    19    21    20   ar
    20    22    21    1
    21    23    24    1
    22    25    26    1
    23    27    28    1
    24    29     2    1
    25    30    31    1
    26    32    33    1
    27    34     7    1
    28    35     5    1
    29    36    37    1
    30    38    39    1
    31    40    19   ar
    32    41    40    1
    33    42     3    1
    34    43     3    1
    35    44    45    1
    36    46    47    1
    37    48    44   ar
    38    49    48    1
    39    50    36   ar
    40    51    50    1
    41    52    16   ar
    42    53    52    1
    43    54    25   ar
    44    55    54    1
    45    56    10   ar
    46    57    56    1
    47    58    16   ar
    48    59    58    1
    49    60    61    1
    50    62    63    1
    51    64    20   ar
    52    65    64    1
    53    66    14   ar
    54    67    66    1
    55    68    29   ar
    56    69    68    1
    57    70    46   ar
    58    71    70    1
    59    72    62   ar
    60    73    72    1
    61    74    75    1
    62    76    77    1
    63    78    38   ar
    64    79    78    1
    65    80     5    1
    66    81     6    1
    67    82    11   ar
    68    83    82    1
    69    84    40   ar
    70    85    84    1
    71    86    52   ar
    72    87    86    1
    73    88    89    1
    74    90    66   ar
    75    91    90    1
    76    92    93    1
    77    94    50   ar
    78    95    94    1
    79    96    42   ar
    80    97    96    1
    81    98    32   ar
    82    99    98    1
    83   100    56   ar
    84   101   100    1
    85   102    30   ar
    86   103   102    1
    87   104    88   ar
    88   105   104    1
    89   106    35   ar
    90   107   106    1
    91   108    23   ar
    92   109   108    1
    93   110    92   ar
    94   111   110    1
    95   112     4    1
    96   113    17   ar
    97   114   113    1
    98   115    80   ar
    99   116   115    1
   100   117    21   ar
   101   118   117    1
   102   119     2    1
   103   120    60   ar
   104   121   120    1
   105   122    34   ar
   106   123   122    1
   107   124    82   ar
   108   125   124    1
   109   126    25   ar
   110   127   126    1
   111   128    19   ar
   112   129   128    1
   113   130    74   ar
   114   131   130    1
   115   132    86   ar
   116   133   132    1
   117   134    76   ar
   118   135   134    1
   119   136    58   ar
   120   137   136    1
   121   138   130   ar
   122   139   138    1
   123   140   115   ar
   124   141   140    1
   125   142    27   ar
   126   143   142    1
   127   144   112    1
   128   145     1    1
   129   146     1    1
   130   147     9    1
   131     5   112    1
   132    11    43   ar
   133    17    34   ar
   134    23    29   ar
   135    27    42   ar
   136    30    43   ar
   137    32    35   ar
   138    36    81   ar
   139    38    81   ar
   140    44    54   ar
   141    46    64   ar
   142    48   119   ar
   143    60   108   ar
   144    62    98   ar
   145    68   120   ar
   146    70   117   ar
   147    72   106   ar
   148    74    80   ar
   149    76   128   ar
   150    78    94   ar
   151    84   134   ar
   152    88   122   ar
   153    90   100   ar
   154    92    96   ar
   155   102   124   ar
   156   104   113   ar
   157   110   142   ar
   158   112   146    1
   159   119   126   ar
   160   132   136   ar
   161   138   140   ar
   162   148   149    1
   163   149   150    1
   164   151   149    1
   165   152   149    1
   166   153   152    1
   167   154   152    1
   168   155   152    1
   169   156   155    1
   170   157   155    1
   171   158   148    1
   172   159   158    1
   173   160   158    1
   174   155   158    1
   175   161   162    1
   176   162   163    1
   177   164   162    1
   178   165   161    1
   179   166   165    1
   180   167   165    1
   181   168   162    1
   182   169   168    1
   183   170   168    1
   184   171   165    1
   185   172   171    1
   186   173   171    1
   187   168   171    1
@<TRIPOS>SUBSTRUCTURE
     1 RES1        1 GROUP             0 ****  ****    0  
     2 RES2      148 GROUP             0 ****  ****    0  
     3 RES3      161 GROUP             0 ****  ****    0  
@<TRIPOS>CRYSIN
   12.8745   12.9582   22.3650   87.1140   77.1990   69.4550     2     1
