@<TRIPOS>MOLECULE
FIHXAX
    92    97     2     0     0
SMALL
USER_CHARGES
****
Generated from the CSD

@<TRIPOS>ATOM
     1 Fe1      8.3577  14.9106   6.7376   Fe        1 RES1   0.0000
     2 O1       6.9038  13.7520   6.2324   O.3       1 RES1  -1.0000
     3 C1       5.9846  13.8091   5.2636   C.ar      1 RES1   0.0000
     4 C2       4.8817  12.9251   5.3273   C.ar      1 RES1   0.0000
     5 C3       4.7066  12.0261   6.5540   C.3       1 RES1   0.0000
     6 H1       4.6648  12.5689   7.3453   H         1 RES1   0.0000
     7 H2       5.4507  11.4232   6.6177   H         1 RES1   0.0000
     8 H3       3.8924  11.5219   6.4684   H         1 RES1   0.0000
     9 C4       3.9241  12.9594   4.3366   C.ar      1 RES1   0.0000
    10 H4       3.2083  12.3672   4.3846   H         1 RES1   0.0000
    11 C5       3.9858  13.8413   3.2739   C.ar      1 RES1   0.0000
    12 C6       2.9047  13.9464   2.2090   C.3       1 RES1   0.0000
    13 H5       2.1606  13.3907   2.4523   H         1 RES1   0.0000
    14 H6       3.2584  13.6567   1.3645   H         1 RES1   0.0000
    15 H7       2.6127  14.8583   2.1391   H         1 RES1   0.0000
    16 C7       5.0953  14.7081   3.2112   C.ar      1 RES1   0.0000
    17 H8       5.1587  15.3217   2.5159   H         1 RES1   0.0000
    18 C8       6.0847  14.6566   4.1685   C.ar      1 RES1   0.0000
    19 C9       7.2642  15.6221   4.0224   C.3       1 RES1   0.0000
    20 H9       8.0517  15.1222   3.7593   H         1 RES1   0.0000
    21 H10      7.0657  16.2594   3.3167   H         1 RES1   0.0000
    22 N1       7.5579  16.3709   5.2856   N.3       1 RES1   0.0000
    23 C10      6.3266  17.0168   5.7418   C.3       1 RES1   0.0000
    24 H11      6.4767  17.4244   6.5978   H         1 RES1   0.0000
    25 H12      5.6292  16.3602   5.8169   H         1 RES1   0.0000
    26 H13      6.0646  17.6883   5.1091   H         1 RES1   0.0000
    27 C11      8.6006  17.3600   4.9766   C.3       1 RES1   0.0000
    28 H14      8.2102  18.1024   4.4911   H         1 RES1   0.0000
    29 H15      9.2780  16.9545   4.4139   H         1 RES1   0.0000
    30 C12      9.2313  17.8621   6.2512   C.3       1 RES1   0.0000
    31 H16      9.9253  18.5058   6.0404   H         1 RES1   0.0000
    32 H17      8.5622  18.3041   6.7962   H         1 RES1   0.0000
    33 N2       9.8169  16.7207   7.0029   N.3       1 RES1   0.0000
    34 C13     11.1799  16.4482   6.4757   C.3       1 RES1   0.0000
    35 H18     11.1332  16.2980   5.5288   H         1 RES1   0.0000
    36 H19     11.5403  15.6693   6.9058   H         1 RES1   0.0000
    37 H20     11.7489  17.2013   6.6521   H         1 RES1   0.0000
    38 C14      9.9804  17.0382   8.4383   C.3       1 RES1   0.0000
    39 H21     10.6477  17.7377   8.5250   H         1 RES1   0.0000
    40 H22     10.3207  16.2508   8.8904   H         1 RES1   0.0000
    41 C15      8.7257  17.4888   9.1461   C.ar      1 RES1   0.0000
    42 C16      8.7491  18.6002   9.9416   C.ar      1 RES1   0.0000
    43 H23      9.5249  19.1130   9.9834   H         1 RES1   0.0000
    44 C17      7.6446  18.9864  10.6902   C.ar      1 RES1   0.0000
    45 C18      7.6680  20.2201  11.5525   C.3       1 RES1   0.0000
    46 H24      7.1741  20.9196  11.1223   H         1 RES1   0.0000
    47 H25      8.5756  20.5012  11.6830   H         1 RES1   0.0000
    48 H26      7.2692  20.0227  12.4033   H         1 RES1   0.0000
    49 C19      6.5084  18.2011  10.6181   C.ar      1 RES1   0.0000
    50 H27      5.7743  18.4157  11.1474   H         1 RES1   0.0000
    51 C20      6.4317  17.1026   9.7777   C.ar      1 RES1   0.0000
    52 C21      5.1420  16.3023   9.6786   C.3       1 RES1   0.0000
    53 H28      5.1987  15.6951   8.9363   H         1 RES1   0.0000
    54 H29      4.4046  16.9030   9.5460   H         1 RES1   0.0000
    55 H30      5.0102  15.8066  10.4897   H         1 RES1   0.0000
    56 C22      7.5495  16.7228   9.0501   C.ar      1 RES1   0.0000
    57 O2       7.5028  15.6187   8.2828   O.3       1 RES1   0.0000
    58 O3       9.5883  14.2112   5.2835   O.3       1 RES1   0.0000
    59 C23     10.5643  13.4915   5.7418   C.ar      1 RES1   0.0000
    60 C24     11.6254  13.0388   4.9724   C.ar      1 RES1   0.0000
    61 Br1     11.6171  13.4825   3.1394   Br        1 RES1   0.0000
    62 C25     12.7049  12.3136   5.5570   C.ar      1 RES1   0.0000
    63 Br2     14.0708  11.6356   4.4322   Br        1 RES1   0.0000
    64 C26     12.7532  12.1570   6.9121   C.ar      1 RES1   0.0000
    65 Br3     14.3045  11.4532   7.7360   Br        1 RES1   0.0000
    66 C27     11.6821  12.5668   7.6940   C.ar      1 RES1   0.0000
    67 Br4     11.7077  12.3576   9.5836   Br        1 RES1   0.0000
    68 C28     10.5727  13.2062   7.1355   C.ar      1 RES1   0.0000
    69 O4       9.5449  13.6664   7.8266   O.3       1 RES1   0.0000
    70 N3       8.1885  12.4810  -0.3341   N.4       2 RES2   1.0000
    71 H31      8.7908  12.7770  -0.9500   H         2 RES2   0.0000
    72 C29      8.5322  13.1718   1.0001   C.3       2 RES2   0.0000
    73 H32      7.7731  13.0946   1.5993   H         2 RES2   0.0000
    74 H33      9.2813  12.7127   1.4104   H         2 RES2   0.0000
    75 C30      8.8609  14.5450   0.8487   C.3       2 RES2   0.0000
    76 H34      8.0967  15.0235   0.5188   H         2 RES2   0.0000
    77 H35      9.5866  14.6330   0.2265   H         2 RES2   0.0000
    78 H36      9.1211  14.9076   1.6985   H         2 RES2   0.0000
    79 C31      8.4371  11.0155  -0.1482   C.3       2 RES2   0.0000
    80 H37      9.2963  10.8975   0.2860   H         2 RES2   0.0000
    81 H38      7.7564  10.6593   0.4437   H         2 RES2   0.0000
    82 C32      8.4288  10.2517  -1.3812   C.3       2 RES2   0.0000
    83 H39      9.1061  10.5885  -1.9710   H         2 RES2   0.0000
    84 H40      7.5695  10.3311  -1.8019   H         2 RES2   0.0000
    85 H41      8.6056   9.3291  -1.1859   H         2 RES2   0.0000
    86 C33      6.8371  12.7449  -0.8874   C.3       2 RES2   0.0000
    87 H42      6.7620  12.3608  -1.7632   H         2 RES2   0.0000
    88 H43      6.7854  13.7018  -0.9364   H         2 RES2   0.0000
    89 C34      5.6859  12.3115   0.0000   C.3       2 RES2   0.0000
    90 H44      5.6542  11.3545   0.0376   H         2 RES2   0.0000
    91 H45      4.8617  12.6462  -0.3591   H         2 RES2   0.0000
    92 H46      5.8144  12.6633   0.8853   H         2 RES2   0.0000
@<TRIPOS>BOND
     1     1     2    1
     2     2     3    1
     3     3     4   ar
     4     4     5    1
     5     5     6    1
     6     7     5    1
     7     8     5    1
     8     9     4   ar
     9    10     9    1
    10    11     9   ar
    11    12    11    1
    12    13    12    1
    13    14    12    1
    14    15    12    1
    15    16    11   ar
    16    17    16    1
    17    18     3   ar
    18    19    18    1
    19    20    19    1
    20    21    19    1
    21    22     1    1
    22    23    22    1
    23    24    23    1
    24    25    23    1
    25    26    23    1
    26    27    22    1
    27    28    27    1
    28    29    27    1
    29    30    27    1
    30    31    30    1
    31    32    30    1
    32    33     1    1
    33    34    33    1
    34    35    34    1
    35    36    34    1
    36    37    34    1
    37    38    33    1
    38    39    38    1
    39    40    38    1
    40    41    38    1
    41    42    41   ar
    42    43    42    1
    43    44    42   ar
    44    45    44    1
    45    46    45    1
    46    47    45    1
    47    48    45    1
    48    49    44   ar
    49    50    49    1
    50    51    49   ar
    51    52    51    1
    52    53    52    1
    53    54    52    1
    54    55    52    1
    55    56    41   ar
    56    57     1    1
    57    58     1    1
    58    59    58    1
    59    60    59   ar
    60    61    60    1
    61    62    60   ar
    62    63    62    1
    63    64    62   ar
    64    65    64    1
    65    66    64   ar
    66    67    66    1
    67    68    59   ar
    68    69     1    1
    69    16    18   ar
    70    19    22    1
    71    30    33    1
    72    51    56   ar
    73    56    57    1
    74    66    68   ar
    75    68    69    1
    76    70    71    1
    77    72    70    1
    78    73    72    1
    79    74    72    1
    80    75    72    1
    81    76    75    1
    82    77    75    1
    83    78    75    1
    84    79    70    1
    85    80    79    1
    86    81    79    1
    87    82    79    1
    88    83    82    1
    89    84    82    1
    90    85    82    1
    91    86    70    1
    92    87    86    1
    93    88    86    1
    94    89    86    1
    95    90    89    1
    96    91    89    1
    97    92    89    1
@<TRIPOS>SUBSTRUCTURE
     1 RES1        1 GROUP             0 ****  ****    0  
     2 RES2       70 GROUP             0 ****  ****    0  
@<TRIPOS>CRYSIN
   16.6840   21.4560   10.4396   90.0000   90.0000   90.0000    33     1
