@<TRIPOS>MOLECULE
FIHXIF
    80    85     2     0     0
SMALL
USER_CHARGES
****
Generated from the CSD

@<TRIPOS>ATOM
     1 Fe1      8.3719   6.3151   2.9245   Fe        1 RES1   0.0000
     2 O1       9.2255   5.6020   4.5100   O.3       1 RES1  -1.0000
     3 C1       9.2155   4.4765   5.2147   C.ar      1 RES1   0.0000
     4 C2      10.2664   4.1148   5.9681   C.ar      1 RES1   0.0000
     5 Br1     11.8531   5.1413   5.9716   Br        1 RES1   0.0000
     6 C3      10.2865   2.9169   6.7111   C.ar      1 RES1   0.0000
     7 H1      11.0458   2.6765   7.1920   H         1 RES1   0.0000
     8 C4       9.1870   2.1191   6.7184   C.ar      1 RES1   0.0000
     9 Br2      9.1816   0.4791   7.6428   Br        1 RES1   0.0000
    10 C5       8.0438   2.5212   5.9940   C.ar      1 RES1   0.0000
    11 H2       7.2778   1.9936   6.0023   H         1 RES1   0.0000
    12 C6       8.0690   3.7127   5.2645   C.ar      1 RES1   0.0000
    13 C7       6.7750   4.1701   4.6147   C.3       1 RES1   0.0000
    14 H3       6.1112   3.4701   4.7059   H         1 RES1   0.0000
    15 H4       6.4448   4.9531   5.0831   H         1 RES1   0.0000
    16 N1       6.9342   4.4956   3.1981   N.3       1 RES1   0.0000
    17 C8       7.5360   3.3786   2.3959   C.3       1 RES1   0.0000
    18 H5       8.1863   2.9063   2.9390   H         1 RES1   0.0000
    19 H6       6.8420   2.7510   2.1452   H         1 RES1   0.0000
    20 C9       8.2064   3.8999   1.1607   C.3       1 RES1   0.0000
    21 H7       8.6137   3.1616   0.6819   H         1 RES1   0.0000
    22 H8       7.5410   4.3020   0.5793   H         1 RES1   0.0000
    23 N2       9.2121   4.8743   1.4757   N.3       1 RES1   0.0000
    24 C10      9.5809   5.5977   0.2156   C.3       1 RES1   0.0000
    25 H9       9.8541   4.9509  -0.4539   H         1 RES1   0.0000
    26 H10      8.8015   6.0637  -0.1233   H         1 RES1   0.0000
    27 C11     10.6788   6.5764   0.4218   C.ar      1 RES1   0.0000
    28 C12     11.7062   6.5743  -0.5399   C.ar      1 RES1   0.0000
    29 H11     11.6828   5.9509  -1.2280   H         1 RES1   0.0000
    30 C13     12.7287   7.4657  -0.4871   C.ar      1 RES1   0.0000
    31 Br3     14.1286   7.3645  -1.7922   Br        1 RES1   0.0000
    32 C14     12.7823   8.4168   0.4912   C.ar      1 RES1   0.0000
    33 H12     13.4461   9.0700   0.4912   H         1 RES1   0.0000
    34 C15     11.8068   8.3764   1.4913   C.ar      1 RES1   0.0000
    35 Br4     11.9734   9.6236   2.9043   Br        1 RES1   0.0000
    36 C16     10.7408   7.4934   1.4571   C.ar      1 RES1   0.0000
    37 O2       9.8725   7.4679   2.4333   O.3       1 RES1   0.0000
    38 C17      5.5548   4.8254   2.6716   C.3       1 RES1   0.0000
    39 H13      5.1894   5.5594   3.1701   H         1 RES1   0.0000
    40 H14      4.9832   4.0595   2.7649   H         1 RES1   0.0000
    41 H15      5.6151   5.0679   1.7441   H         1 RES1   0.0000
    42 C18     10.4541   4.2552   2.0042   C.3       1 RES1   0.0000
    43 H16     10.8849   3.7552   1.3058   H         1 RES1   0.0000
    44 H17     10.2346   3.6659   2.7296   H         1 RES1   0.0000
    45 H18     11.0458   4.9424   2.3182   H         1 RES1   0.0000
    46 O3       7.2074   7.5891   3.9566   O.3       1 RES1   0.0000
    47 C19      6.2403   8.0593   3.2095   C.ar      1 RES1   0.0000
    48 C20      5.1056   8.7955   3.6934   C.ar      1 RES1   0.0000
    49 Br5      5.1009   9.1657   5.5441   Br        1 RES1   0.0000
    50 C21      4.1250   9.2465   2.8467   C.ar      1 RES1   0.0000
    51 Br6      2.6176  10.1187   3.5668   Br        1 RES1   0.0000
    52 C22      4.1887   8.9487   1.4736   C.ar      1 RES1   0.0000
    53 Br7      2.8701   9.6304   0.3035   Br        1 RES1   0.0000
    54 C23      5.2246   8.1849   0.9555   C.ar      1 RES1   0.0000
    55 Br8      5.2373   7.5915  -0.7919   Br        1 RES1   0.0000
    56 C24      6.2370   7.7508   1.8322   C.ar      1 RES1   0.0000
    57 O4       7.2309   6.9573   1.4374   O.3       1 RES1   0.0000
    58 N3       8.1980  12.4082   1.0954   N.4       2 RES2   1.0000
    59 H19      8.8132  12.6741   0.4798   H         2 RES2   0.0000
    60 C25      8.5500  13.0677   2.3680   C.3       2 RES2   0.0000
    61 H20      9.3697  12.6826   2.7151   H         2 RES2   0.0000
    62 H21      7.8477  12.9124   3.0177   H         2 RES2   0.0000
    63 C26      8.7361  14.5507   2.1763   C.3       2 RES2   0.0000
    64 H22      8.5936  15.0017   3.0115   H         2 RES2   0.0000
    65 H23      8.1042  14.8698   1.5286   H         2 RES2   0.0000
    66 H24      9.6278  14.7251   1.8664   H         2 RES2   0.0000
    67 C27      8.3841  10.9082   1.2944   C.3       2 RES2   0.0000
    68 H25      9.2574  10.7380   1.6819   H         2 RES2   0.0000
    69 H26      7.7120  10.5763   1.9089   H         2 RES2   0.0000
    70 C28      8.2668  10.1891  -0.0155   C.3       2 RES2   0.0000
    71 H27      8.8517  10.5976  -0.6581   H         2 RES2   0.0000
    72 H28      7.3617  10.2401  -0.3285   H         2 RES2   0.0000
    73 H29      8.5148   9.2700   0.1016   H         2 RES2   0.0000
    74 C29      6.8655  12.7741   0.5606   C.3       2 RES2   0.0000
    75 H30      6.7616  12.3614  -0.3109   H         2 RES2   0.0000
    76 H31      6.8387  13.7358   0.4342   H         2 RES2   0.0000
    77 C30      5.7056  12.3762   1.4115   C.3       2 RES2   0.0000
    78 H32      4.9413  12.9081   1.1772   H         2 RES2   0.0000
    79 H33      5.9235  12.5209   2.3358   H         2 RES2   0.0000
    80 H34      5.5078  11.4486   1.2695   H         2 RES2   0.0000
@<TRIPOS>BOND
     1     1     2    1
     2     2     3    1
     3     3     4   ar
     4     4     5    1
     5     6     4   ar
     6     7     6    1
     7     8     6   ar
     8     9     8    1
     9    10     8   ar
    10    11    10    1
    11    12     3   ar
    12    13    12    1
    13    14    13    1
    14    15    13    1
    15    16     1    1
    16    17    16    1
    17    18    17    1
    18    19    17    1
    19    20    17    1
    20    21    20    1
    21    22    20    1
    22    23     1    1
    23    24    23    1
    24    25    24    1
    25    26    24    1
    26    27    24    1
    27    28    27   ar
    28    29    28    1
    29    30    28   ar
    30    31    30    1
    31    32    30   ar
    32    33    32    1
    33    34    32   ar
    34    35    34    1
    35    36    27   ar
    36    37     1    1
    37    38    16    1
    38    39    38    1
    39    40    38    1
    40    41    38    1
    41    42    23    1
    42    43    42    1
    43    44    42    1
    44    45    42    1
    45    46     1    1
    46    47    46    1
    47    48    47   ar
    48    49    48    1
    49    50    48   ar
    50    51    50    1
    51    52    50   ar
    52    53    52    1
    53    54    52   ar
    54    55    54    1
    55    56    47   ar
    56    57     1    1
    57    10    12   ar
    58    13    16    1
    59    20    23    1
    60    34    36   ar
    61    36    37    1
    62    54    56   ar
    63    56    57    1
    64    58    59    1
    65    60    58    1
    66    61    60    1
    67    62    60    1
    68    63    60    1
    69    64    63    1
    70    65    63    1
    71    66    63    1
    72    67    58    1
    73    68    67    1
    74    69    67    1
    75    70    67    1
    76    71    70    1
    77    72    70    1
    78    73    70    1
    79    74    58    1
    80    75    74    1
    81    76    74    1
    82    77    74    1
    83    78    77    1
    84    79    77    1
    85    80    77    1
@<TRIPOS>SUBSTRUCTURE
     1 RES1        1 GROUP             0 ****  ****    0  
     2 RES2       58 GROUP             0 ****  ****    0  
@<TRIPOS>CRYSIN
   16.7615   21.2760   10.3631   90.0000   90.0000   90.0000    33     1
