@<TRIPOS>MOLECULE
FIHXEB
    80    85     2     0     0
SMALL
USER_CHARGES
****
Generated from the CSD

@<TRIPOS>ATOM
     1 Fe1      8.4504  14.9689   1.9710   Fe        1 RES1   0.0000
     2 O1       6.9800  13.8060   2.4805   O.3       1 RES1  -1.0000
     3 C1       6.0997  13.8295   3.4715   C.ar      1 RES1   0.0000
     4 C2       5.0598  12.9208   3.5024   C.ar      1 RES1   0.0000
     5 Cl1      4.8997  11.7628   2.2124   Cl        1 RES1   0.0000
     6 C3       4.0764  12.9272   4.4655   C.ar      1 RES1   0.0000
     7 H1       3.3926  12.3002   4.4501   H         1 RES1   0.0000
     8 C4       4.1313  13.8846   5.4503   C.ar      1 RES1   0.0000
     9 Cl2      2.8527  14.0022   6.6297   Cl        1 RES1   0.0000
    10 C5       5.1396  14.7721   5.4822   C.ar      1 RES1   0.0000
    11 H2       5.1696  15.4118   6.1580   H         1 RES1   0.0000
    12 C6       6.1513  14.7467   4.5036   C.ar      1 RES1   0.0000
    13 C7       7.3176  15.7401   4.6468   C.3       1 RES1   0.0000
    14 H3       7.0947  16.3925   5.3277   H         1 RES1   0.0000
    15 H4       8.1063  15.2593   4.9456   H         1 RES1   0.0000
    16 N1       7.6409  16.4554   3.3777   N.3       1 RES1   0.0000
    17 C8       8.6969  17.4135   3.6775   C.3       1 RES1   0.0000
    18 H5       9.3608  16.9941   4.2471   H         1 RES1   0.0000
    19 H6       8.3226  18.1675   4.1565   H         1 RES1   0.0000
    20 C9       9.3675  17.9060   2.3940   C.3       1 RES1   0.0000
    21 H7       8.7236  18.3857   1.8490   H         1 RES1   0.0000
    22 H8      10.0929  18.5128   2.6124   H         1 RES1   0.0000
    23 N2       9.8889  16.7507   1.6513   N.3       1 RES1   0.0000
    24 C10     10.0114  17.0788   0.1844   C.3       1 RES1   0.0000
    25 H9      10.6719  17.7799   0.0731   H         1 RES1   0.0000
    26 H10     10.3325  16.2930  -0.2864   H         1 RES1   0.0000
    27 C11      8.7319  17.5196  -0.4357   C.ar      1 RES1   0.0000
    28 C12      8.7136  18.6950  -1.2032   C.ar      1 RES1   0.0000
    29 H11      9.4740  19.2266  -1.2681   H         1 RES1   0.0000
    30 C13      7.5622  19.0487  -1.8542   C.ar      1 RES1   0.0000
    31 Cl3      7.5327  20.5651  -2.7439   Cl        1 RES1   0.0000
    32 C14      6.4374  18.3031  -1.8161   C.ar      1 RES1   0.0000
    33 H12      5.6787  18.5531  -2.2920   H         1 RES1   0.0000
    34 C15      6.4524  17.1457  -1.0414   C.ar      1 RES1   0.0000
    35 Cl4      5.0295  16.1616  -0.9914   Cl        1 RES1   0.0000
    36 C16      7.5805  16.7376  -0.3338   C.ar      1 RES1   0.0000
    37 O2       7.5597  15.6391   0.3987   O.3       1 RES1   0.0000
    38 C17      6.4225  17.0852   2.8709   C.3       1 RES1   0.0000
    39 H13      5.8468  16.4137   2.4960   H         1 RES1   0.0000
    40 H14      6.6504  17.7248   2.1941   H         1 RES1   0.0000
    41 H15      5.9682  17.5279   3.5910   H         1 RES1   0.0000
    42 C18     11.2776  16.4279   2.1035   C.3       1 RES1   0.0000
    43 H16     11.8699  17.1381   1.8480   H         1 RES1   0.0000
    44 H17     11.5654  15.6088   1.6945   H         1 RES1   0.0000
    45 H18     11.2892  16.3290   3.0584   H         1 RES1   0.0000
    46 O3       9.5933  13.6654   0.9590   O.3       1 RES1   0.0000
    47 C19     10.5588  13.1517   1.7038   C.ar      1 RES1   0.0000
    48 C20     11.6070  12.3746   1.2320   C.ar      1 RES1   0.0000
    49 Br1     11.6345  11.9840  -0.5876   Br        1 RES1   0.0000
    50 C21     12.5970  11.9005   2.1025   C.ar      1 RES1   0.0000
    51 Br2     14.0659  10.9425   1.4253   Br        1 RES1   0.0000
    52 C22     12.5188  12.2007   3.4498   C.ar      1 RES1   0.0000
    53 Br3     13.8211  11.4970   4.6630   Br        1 RES1   0.0000
    54 C23     11.5172  13.0056   3.9227   C.ar      1 RES1   0.0000
    55 Br4     11.5055  13.6037   5.7209   Br        1 RES1   0.0000
    56 C24     10.5305  13.5330   3.0883   C.ar      1 RES1   0.0000
    57 O4       9.6101  14.3485   3.4663   O.3       1 RES1   0.0000
    58 N3       8.0896  12.3868  -1.2639   N.4       2 RES2   1.0000
    59 H19      8.6986  12.6412  -0.6366   H         2 RES2   0.0000
    60 C25      6.7719  12.7493  -0.7479   C.3       2 RES2   0.0000
    61 H20      6.7486  13.7109  -0.6253   H         2 RES2   0.0000
    62 H21      6.6687  12.3447   0.1277   H         2 RES2   0.0000
    63 C26      5.6155  12.3638  -1.5668   C.3       2 RES2   0.0000
    64 H22      5.7536  12.6561  -2.4712   H         2 RES2   0.0000
    65 H23      4.8235  12.7768  -1.2145   H         2 RES2   0.0000
    66 H24      5.5140  11.4106  -1.5503   H         2 RES2   0.0000
    67 C27      8.4607  13.0712  -2.5320   C.3       2 RES2   0.0000
    68 H25      9.2610  12.6497  -2.8833   H         2 RES2   0.0000
    69 H26      7.7502  12.9272  -3.1758   H         2 RES2   0.0000
    70 C28      8.6986  14.4671  -2.4321   C.3       2 RES2   0.0000
    71 H27      8.9948  14.8039  -3.2819   H         2 RES2   0.0000
    72 H28      9.3758  14.6302  -1.7708   H         2 RES2   0.0000
    73 H29      7.8883  14.9119  -2.1766   H         2 RES2   0.0000
    74 C29      8.2793  10.9086  -1.4813   C.3       2 RES2   0.0000
    75 H30      7.5838  10.5845  -2.0736   H         2 RES2   0.0000
    76 H31      9.1329  10.7603  -1.9160   H         2 RES2   0.0000
    77 C30      8.2394  10.1418  -0.2246   C.3       2 RES2   0.0000
    78 H32      8.3193   9.2056  -0.4203   H         2 RES2   0.0000
    79 H33      7.4058  10.3049   0.2235   H         2 RES2   0.0000
    80 H34      8.9665  10.4129   0.3399   H         2 RES2   0.0000
@<TRIPOS>BOND
     1     1     2    1
     2     2     3    1
     3     3     4   ar
     4     4     5    1
     5     6     4   ar
     6     7     6    1
     7     8     6   ar
     8     9     8    1
     9    10     8   ar
    10    11    10    1
    11    12     3   ar
    12    13    12    1
    13    14    13    1
    14    15    13    1
    15    16     1    1
    16    17    16    1
    17    18    17    1
    18    19    17    1
    19    20    17    1
    20    21    20    1
    21    22    20    1
    22    23     1    1
    23    24    23    1
    24    25    24    1
    25    26    24    1
    26    27    24    1
    27    28    27   ar
    28    29    28    1
    29    30    28   ar
    30    31    30    1
    31    32    30   ar
    32    33    32    1
    33    34    32   ar
    34    35    34    1
    35    36    27   ar
    36    37     1    1
    37    38    16    1
    38    39    38    1
    39    40    38    1
    40    41    38    1
    41    42    23    1
    42    43    42    1
    43    44    42    1
    44    45    42    1
    45    46     1    1
    46    47    46    1
    47    48    47   ar
    48    49    48    1
    49    50    48   ar
    50    51    50    1
    51    52    50   ar
    52    53    52    1
    53    54    52   ar
    54    55    54    1
    55    56    47   ar
    56    57     1    1
    57    10    12   ar
    58    13    16    1
    59    20    23    1
    60    34    36   ar
    61    36    37    1
    62    54    56   ar
    63    56    57    1
    64    58    59    1
    65    60    58    1
    66    61    60    1
    67    62    60    1
    68    63    60    1
    69    64    63    1
    70    65    63    1
    71    66    63    1
    72    67    58    1
    73    68    67    1
    74    69    67    1
    75    70    67    1
    76    71    70    1
    77    72    70    1
    78    73    70    1
    79    74    58    1
    80    75    74    1
    81    76    74    1
    82    77    74    1
    83    78    77    1
    84    79    77    1
    85    80    77    1
@<TRIPOS>SUBSTRUCTURE
     1 RES1        1 GROUP             0 ****  ****    0  
     2 RES2       58 GROUP             0 ****  ****    0  
@<TRIPOS>CRYSIN
   16.6385   21.1817   10.3011   90.0000   90.0000   90.0000    33     1
