@<TRIPOS>MOLECULE
FILCAF
    77    84     3     0     0
SMALL
USER_CHARGES
****
Generated from the CSD

@<TRIPOS>ATOM
     1 Fe1      3.9207   2.8068   3.7221   Fe        1 RES1   2.0000
     2 N1       2.8909   4.3400   4.7719   N.ar      1 RES1   0.0000
     3 C1       3.3172   5.6027   4.6622   C.ar      1 RES1   0.0000
     4 C2       2.5734   6.6966   5.0653   C.ar      1 RES1   0.0000
     5 H1       2.9088   7.5824   5.0006   H         1 RES1   0.0000
     6 C3       1.3124   6.4271   5.5669   C.ar      1 RES1   0.0000
     7 H2       0.7622   7.1503   5.8437   H         1 RES1   0.0000
     8 C4       0.8272   5.1274   5.6767   C.ar      1 RES1   0.0000
     9 H3      -0.0402   4.9443   6.0196   H         1 RES1   0.0000
    10 C5       1.6785   4.1119   5.2582   C.ar      1 RES1   0.0000
    11 N2       4.5758   5.7112   4.0577   N.pl3     1 RES1   0.0000
    12 N3       5.1341   4.5994   3.4682   N.2       1 RES1   0.0000
    13 C6       6.2933   5.0159   2.9766   C.2       1 RES1   0.0000
    14 C7       6.4915   6.3862   3.2297   C.2       1 RES1   0.0000
    15 H4       7.2397   6.9149   2.9791   H         1 RES1   0.0000
    16 C8       5.3854   6.7944   3.9102   C.2       1 RES1   0.0000
    17 H5       5.2113   7.6746   4.2239   H         1 RES1   0.0000
    18 C9       7.2018   4.0801   2.2464   C.3       1 RES1   0.0000
    19 H6       7.9698   3.8458   2.8264   H         1 RES1   0.0000
    20 H7       6.7129   3.2454   2.0331   H         1 RES1   0.0000
    21 O1       7.6808   4.6728   1.0406   O.3       1 RES1   0.0000
    22 H8       7.0635   4.6850   0.4713   H         1 RES1   0.0000
    23 N4       1.3310   2.7519   5.2902   N.pl3     1 RES1   0.0000
    24 N5       2.1629   1.8276   4.7087   N.2       1 RES1   0.0000
    25 C10      1.6203   0.6482   5.0051   C.2       1 RES1   0.0000
    26 C11      0.4545   0.8005   5.7684   C.2       1 RES1   0.0000
    27 H9      -0.1108   0.1114   6.0960   H         1 RES1   0.0000
    28 C12      0.3018   2.1446   5.9429   C.2       1 RES1   0.0000
    29 H10     -0.3924   2.5756   6.4279   H         1 RES1   0.0000
    30 C13      2.2424  -0.6425   4.5417   C.3       1 RES1   0.0000
    31 H11      2.5339  -0.5492   3.5998   H         1 RES1   0.0000
    32 H12      3.0412  -0.8392   5.0919   H         1 RES1   0.0000
    33 O2       1.3213  -1.7138   4.6474   O.3       1 RES1   0.0000
    34 H13      0.9713  -1.8569   3.8969   H         1 RES1   0.0000
    35 N6       4.8106   0.9461   3.1099   N.ar      1 RES1   0.0000
    36 C14      4.4470   0.3923   1.9516   C.ar      1 RES1   0.0000
    37 C15      4.9223  -0.8278   1.5103   C.ar      1 RES1   0.0000
    38 H14      4.6576  -1.1940   0.6738   H         1 RES1   0.0000
    39 C16      5.8068  -1.4953   2.3484   C.ar      1 RES1   0.0000
    40 H15      6.1567  -2.3368   2.0812   H         1 RES1   0.0000
    41 C17      6.1871  -0.9586   3.5613   C.ar      1 RES1   0.0000
    42 H16      6.7871  -1.4157   4.1392   H         1 RES1   0.0000
    43 C18      5.6524   0.2831   3.8996   C.ar      1 RES1   0.0000
    44 N7       3.5379   1.1874   1.2333   N.pl3     1 RES1   0.0000
    45 N8       3.3581   2.4862   1.6313   N.2       1 RES1   0.0000
    46 C19      2.6107   3.0407   0.6727   C.2       1 RES1   0.0000
    47 C20      2.2822   2.0935  -0.3145   C.2       1 RES1   0.0000
    48 H17      1.7421   2.2299  -1.0838   H         1 RES1   0.0000
    49 C21      2.9018   0.9347   0.0634   C.2       1 RES1   0.0000
    50 H18      2.8885   0.1092  -0.4050   H         1 RES1   0.0000
    51 C22      2.2968   4.4974   0.6914   C.3       1 RES1   0.0000
    52 H19      3.0144   5.0023   0.2324   H         1 RES1   0.0000
    53 H20      1.4449   4.6645   0.2141   H         1 RES1   0.0000
    54 O3       2.1890   4.9270   2.0333   O.3       1 RES1   0.0000
    55 H21      2.3577   5.7482   2.0779   H         1 RES1   0.0000
    56 N9       5.9291   0.9591   5.1013   N.pl3     1 RES1   0.0000
    57 N10      5.2790   2.1385   5.3594   N.2       1 RES1   0.0000
    58 C23      5.7456   2.5449   6.5341   C.2       1 RES1   0.0000
    59 C24      6.6920   1.6375   7.0458   C.2       1 RES1   0.0000
    60 H22      7.1680   1.7068   7.8652   H         1 RES1   0.0000
    61 C25      6.7847   0.6368   6.1199   C.2       1 RES1   0.0000
    62 H23      7.3370  -0.1342   6.1723   H         1 RES1   0.0000
    63 C26      5.2865   3.8424   7.1577   C.3       1 RES1   0.0000
    64 H24      5.5435   4.5986   6.5723   H         1 RES1   0.0000
    65 H25      4.3003   3.8378   7.2378   H         1 RES1   0.0000
    66 O4       5.8610   4.0229   8.4356   O.3       1 RES1   0.0000
    67 H26      6.6427   4.3189   8.3515   H         1 RES1   0.0000
    68 Cl1      6.0917   2.7144  -1.2909   Cl        2 RES2   0.0000
    69 O5       5.7125   4.0650  -0.9621   O.3       2 RES2  -1.0000
    70 O6       6.1546   1.9172  -0.1036   O.2       2 RES2   0.0000
    71 O7       7.3929   2.7209  -1.9264   O.2       2 RES2   0.0000
    72 O8       5.1205   2.1559  -2.2097   O.2       2 RES2   0.0000
    73 Cl2      1.8495   8.4235   1.0026   Cl        3 RES3   0.0000
    74 O9       2.6381   8.8390  -0.1165   O.3       3 RES3  -1.0000
    75 O10      0.8162   7.5381   0.5517   O.2       3 RES3   0.0000
    76 O11      2.6909   7.7371   1.9533   O.2       3 RES3   0.0000
    77 O12      1.3074   9.5815   1.6165   O.2       3 RES3   0.0000
@<TRIPOS>BOND
     1     1     2    1
     2     2     3   ar
     3     3     4   ar
     4     4     5    1
     5     6     4   ar
     6     7     6    1
     7     8     6   ar
     8     9     8    1
     9    10     2   ar
    10    11     3    1
    11    12     1    1
    12    13    12    2
    13    14    13    1
    14    15    14    1
    15    16    11    1
    16    17    16    1
    17    18    13    1
    18    19    18    1
    19    20    18    1
    20    21    18    1
    21    22    21    1
    22    23    10    1
    23    24     1    1
    24    25    24    2
    25    26    25    1
    26    27    26    1
    27    28    23    1
    28    29    28    1
    29    30    25    1
    30    31    30    1
    31    32    30    1
    32    33    30    1
    33    34    33    1
    34    35     1    1
    35    36    35   ar
    36    37    36   ar
    37    38    37    1
    38    39    37   ar
    39    40    39    1
    40    41    39   ar
    41    42    41    1
    42    43    35   ar
    43    44    36    1
    44    45     1    1
    45    46    45    2
    46    47    46    1
    47    48    47    1
    48    49    44    1
    49    50    49    1
    50    51    46    1
    51    52    51    1
    52    53    51    1
    53    54    51    1
    54    55    54    1
    55    56    43    1
    56    57     1    1
    57    58    57    2
    58    59    58    1
    59    60    59    1
    60    61    56    1
    61    62    61    1
    62    63    58    1
    63    64    63    1
    64    65    63    1
    65    66    63    1
    66    67    66    1
    67     8    10   ar
    68    11    12    1
    69    14    16    2
    70    23    24    1
    71    26    28    2
    72    41    43   ar
    73    44    45    1
    74    47    49    2
    75    56    57    1
    76    59    61    2
    77    68    69    1
    78    70    68    2
    79    71    68    2
    80    72    68    2
    81    73    74    1
    82    75    73    2
    83    76    73    2
    84    77    73    2
@<TRIPOS>SUBSTRUCTURE
     1 RES1        1 GROUP             0 ****  ****    0  
     2 RES2       68 GROUP             0 ****  ****    0  
     3 RES3       73 GROUP             0 ****  ****    0  
@<TRIPOS>CRYSIN
   16.2700   11.3714   16.6040   90.0000   91.6986   90.0000    13     1
