@<TRIPOS>MOLECULE
FILFEM
   122   132     2     0     0
SMALL
USER_CHARGES
****
Generated from the CSD

@<TRIPOS>ATOM
     1 Fe1     13.2869   1.5027   4.4586   Fe        1 RES1   1.0000
     2 O1      13.7745   3.1002   5.3104   O.3       1 RES1   0.0000
     3 O2      15.0598   0.9306   4.8628   O.3       1 RES1   0.0000
     4 N1      12.7238  -0.3151   3.6047   N.3       1 RES1   0.0000
     5 N2      13.9088   1.8173   2.5450   N.ar      1 RES1   0.0000
     6 N3      11.3835   2.0511   3.9218   N.ar      1 RES1   0.0000
     7 N4      12.4773   0.5635   6.0887   N.ar      1 RES1   0.0000
     8 C1      15.0368   3.0775   5.7682   C.ar      1 RES1   0.0000
     9 C2      15.6035   4.1168   6.5295   C.ar      1 RES1   0.0000
    10 C3      16.9255   3.9171   6.9314   C.ar      1 RES1   0.0000
    11 C4      17.6394   2.7803   6.5719   C.ar      1 RES1   0.0000
    12 C5      17.1185   1.7328   5.8378   C.ar      1 RES1   0.0000
    13 C6      15.7590   1.8903   5.4851   C.ar      1 RES1   0.0000
    14 C7      14.8193   5.3998   6.8805   C.3       1 RES1   0.0000
    15 C8      13.5429   5.0425   7.6588   C.3       1 RES1   0.0000
    16 C9      14.4484   6.1355   5.5817   C.3       1 RES1   0.0000
    17 C10     15.6324   6.3612   7.7266   C.3       1 RES1   0.0000
    18 C11     17.9230   0.5148   5.3867   C.3       1 RES1   0.0000
    19 C12     17.9291   0.4336   3.8574   C.3       1 RES1   0.0000
    20 C13     17.3181  -0.7730   5.9514   C.3       1 RES1   0.0000
    21 C14     19.3717   0.5928   5.8598   C.3       1 RES1   0.0000
    22 C15     13.6601  -0.5749   2.4721   C.3       1 RES1   0.0000
    23 C16     13.9723   0.7178   1.7786   C.ar      1 RES1   0.0000
    24 C17     14.4093   0.7665   0.4612   C.ar      1 RES1   0.0000
    25 C18     14.8387   1.9780  -0.0441   C.ar      1 RES1   0.0000
    26 C19     14.8220   3.0872   0.7579   C.ar      1 RES1   0.0000
    27 C20     14.3318   2.9898   2.0313   C.ar      1 RES1   0.0000
    28 C21     11.3137  -0.2550   3.1486   C.3       1 RES1   0.0000
    29 C22     10.6814   1.1043   3.2877   C.ar      1 RES1   0.0000
    30 C23      9.3965   1.3333   2.8265   C.ar      1 RES1   0.0000
    31 C24      8.8227   2.5578   3.0384   C.ar      1 RES1   0.0000
    32 C25      9.5232   3.5354   3.7082   C.ar      1 RES1   0.0000
    33 C26     10.8053   3.2480   4.1320   C.ar      1 RES1   0.0000
    34 C27     12.9023  -1.3333   4.6848   C.3       1 RES1   0.0000
    35 C28     12.3552  -0.7698   5.9649   C.ar      1 RES1   0.0000
    36 C29     11.7937  -1.5363   6.9653   C.ar      1 RES1   0.0000
    37 C30     11.3743  -0.9127   8.1233   C.ar      1 RES1   0.0000
    38 C31     11.5139   0.4304   8.2505   C.ar      1 RES1   0.0000
    39 C32     12.0491   1.1514   7.2077   C.ar      1 RES1   0.0000
    40 H1      17.3461   4.5797   7.4638   H         1 RES1   0.0000
    41 H2      18.5472   2.7202   6.8568   H         1 RES1   0.0000
    42 H3      13.0489   5.8350   7.8232   H         1 RES1   0.0000
    43 H4      13.0174   4.4400   7.1467   H         1 RES1   0.0000
    44 H5      13.7803   4.6381   8.4828   H         1 RES1   0.0000
    45 H6      13.9334   6.9069   5.7971   H         1 RES1   0.0000
    46 H7      15.2337   6.3921   5.1239   H         1 RES1   0.0000
    47 H8      13.9286   5.5590   5.0290   H         1 RES1   0.0000
    48 H9      15.8917   5.9325   8.5337   H         1 RES1   0.0000
    49 H10     16.4118   6.6275   7.2484   H         1 RES1   0.0000
    50 H11     15.1083   7.1261   7.9284   H         1 RES1   0.0000
    51 H12     17.0358   0.3898   3.5386   H         1 RES1   0.0000
    52 H13     18.3492   1.2115   3.5047   H         1 RES1   0.0000
    53 H14     18.4051  -0.3378   3.5827   H         1 RES1   0.0000
    54 H15     16.4089  -0.8396   5.6767   H         1 RES1   0.0000
    55 H16     17.8038  -1.5184   5.6241   H         1 RES1   0.0000
    56 H17     17.3595  -0.7535   6.8992   H         1 RES1   0.0000
    57 H18     19.4001   0.5993   6.8093   H         1 RES1   0.0000
    58 H19     19.8531  -0.1608   5.5342   H         1 RES1   0.0000
    59 H20     19.7724   1.3885   5.5258   H         1 RES1   0.0000
    60 H21     14.4633  -0.9565   2.8129   H         1 RES1   0.0000
    61 H22     13.2579  -1.1758   1.8617   H         1 RES1   0.0000
    62 H23     14.4191  -0.0162  -0.0780   H         1 RES1   0.0000
    63 H24     15.1455   2.0381  -0.9427   H         1 RES1   0.0000
    64 H25     15.1494   3.9171   0.4290   H         1 RES1   0.0000
    65 H26     14.2927   3.7709   2.5738   H         1 RES1   0.0000
    66 H27     11.2811  -0.5034   2.2330   H         1 RES1   0.0000
    67 H28     10.8015  -0.8705   3.6607   H         1 RES1   0.0000
    68 H29      8.9193   0.6545   2.3687   H         1 RES1   0.0000
    69 H30      7.9460   2.7332   2.7247   H         1 RES1   0.0000
    70 H31      9.1350   4.3816   3.8828   H         1 RES1   0.0000
    71 H32     11.3022   3.9187   4.5847   H         1 RES1   0.0000
    72 H33     12.4330  -2.1274   4.4627   H         1 RES1   0.0000
    73 H34     13.8239  -1.5282   4.7967   H         1 RES1   0.0000
    74 H35     11.7066  -2.4766   6.8585   H         1 RES1   0.0000
    75 H36     10.9872  -1.4259   8.8253   H         1 RES1   0.0000
    76 H37     11.2403   0.8688   9.0474   H         1 RES1   0.0000
    77 H38     12.1189   2.0982   7.2857   H         1 RES1   0.0000
    78 C33     14.3349  -6.8533   2.2517   C.ar      2 RES2   0.0000
    79 C34     13.3309  -7.7400   2.6535   C.ar      2 RES2   0.0000
    80 C35     13.1874  -9.0262   2.1347   C.ar      2 RES2   0.0000
    81 C36     14.0487  -9.4630   1.1835   C.ar      2 RES2   0.0000
    82 C37     15.0849  -8.6527   0.7579   C.ar      2 RES2   0.0000
    83 C38     15.2306  -7.3486   1.2937   C.ar      2 RES2   0.0000
    84 C39     15.1468  -4.2922   1.8431   C.ar      2 RES2   0.0000
    85 C40     14.7681  -4.3361   0.4883   C.ar      2 RES2   0.0000
    86 C41     15.2237  -3.4169  -0.4391   C.ar      2 RES2   0.0000
    87 C42     16.0866  -2.4133  -0.0678   C.ar      2 RES2   0.0000
    88 C43     16.4832  -2.3434   1.2530   C.ar      2 RES2   0.0000
    89 C44     16.0208  -3.2724   2.1839   C.ar      2 RES2   0.0000
    90 C45     12.9994  -4.8054   3.3657   C.ar      2 RES2   0.0000
    91 C46     12.1741  -4.1087   2.4840   C.ar      2 RES2   0.0000
    92 C47     10.8777  -3.7206   2.8248   C.ar      2 RES2   0.0000
    93 C48     10.3758  -3.9983   4.0829   C.ar      2 RES2   0.0000
    94 C49     11.1593  -4.6690   4.9832   C.ar      2 RES2   0.0000
    95 C50     12.4438  -5.0750   4.6204   C.ar      2 RES2   0.0000
    96 C51     15.4324  -5.4826   4.2812   C.ar      2 RES2   0.0000
    97 C52     16.1946  -6.6162   4.5814   C.ar      2 RES2   0.0000
    98 C53     16.9423  -6.7364   5.7581   C.ar      2 RES2   0.0000
    99 C54     16.9394  -5.7214   6.6720   C.ar      2 RES2   0.0000
   100 C55     16.2040  -4.5878   6.4278   C.ar      2 RES2   0.0000
   101 C56     15.4744  -4.4806   5.2494   C.ar      2 RES2   0.0000
   102 B1      14.5054  -5.3413   2.9197   B         2 RES2  -1.0000
   103 H39     12.7204  -7.4509   3.3165   H         2 RES2   0.0000
   104 H40     12.4944  -9.5897   2.4399   H         2 RES2   0.0000
   105 H41     13.9483 -10.3270   0.8020   H         2 RES2   0.0000
   106 H42     15.6989  -8.9661   0.0950   H         2 RES2   0.0000
   107 H43     15.9516  -6.8046   0.9987   H         2 RES2   0.0000
   108 H44     14.1810  -5.0230   0.1984   H         2 RES2   0.0000
   109 H45     14.9304  -3.4737  -1.3412   H         2 RES2   0.0000
   110 H46     16.4135  -1.7864  -0.7020   H         2 RES2   0.0000
   111 H47     17.0701  -1.6532   1.5328   H         2 RES2   0.0000
   112 H48     16.3158  -3.2025   3.0859   H         2 RES2   0.0000
   113 H49     12.5062  -3.8879   1.6192   H         2 RES2   0.0000
   114 H50     10.3330  -3.2691   2.1906   H         2 RES2   0.0000
   115 H51      9.5027  -3.7206   4.3236   H         2 RES2   0.0000
   116 H52     10.8334  -4.8590   5.8530   H         2 RES2   0.0000
   117 H53     12.9616  -5.5573   5.2528   H         2 RES2   0.0000
   118 H54     16.2045  -7.3356   3.9591   H         2 RES2   0.0000
   119 H55     17.4527  -7.5224   5.9124   H         2 RES2   0.0000
   120 H56     17.4476  -5.8026   7.4756   H         2 RES2   0.0000
   121 H57     16.1908  -3.8765   7.0568   H         2 RES2   0.0000
   122 H58     14.9718  -3.6897   5.1002   H         2 RES2   0.0000
@<TRIPOS>BOND
     1     1     2    1
     2     2     8    1
     3     3     1    1
     4     4     1    1
     5     5     1    1
     6     6     1    1
     7     7     1    1
     8     8     9   ar
     9     9    10   ar
    10    10    11   ar
    11    11    12   ar
    12    12    13   ar
    13    13     3    1
    14    14     9    1
    15    15    14    1
    16    16    14    1
    17    17    14    1
    18    18    12    1
    19    19    18    1
    20    20    18    1
    21    21    18    1
    22    22     4    1
    23    23     5   ar
    24    24    23   ar
    25    25    24   ar
    26    26    25   ar
    27    27     5   ar
    28    28     4    1
    29    29     6   ar
    30    30    29   ar
    31    31    30   ar
    32    32    31   ar
    33    33     6   ar
    34    34     4    1
    35    35     7   ar
    36    36    35   ar
    37    37    36   ar
    38    38    37   ar
    39    39     7   ar
    40    40    10    1
    41    41    11    1
    42    42    15    1
    43    43    15    1
    44    44    15    1
    45    45    16    1
    46    46    16    1
    47    47    16    1
    48    48    17    1
    49    49    17    1
    50    50    17    1
    51    51    19    1
    52    52    19    1
    53    53    19    1
    54    54    20    1
    55    55    20    1
    56    56    20    1
    57    57    21    1
    58    58    21    1
    59    59    21    1
    60    60    22    1
    61    61    22    1
    62    62    24    1
    63    63    25    1
    64    64    26    1
    65    65    27    1
    66    66    28    1
    67    67    28    1
    68    68    30    1
    69    69    31    1
    70    70    32    1
    71    71    33    1
    72    72    34    1
    73    73    34    1
    74    74    36    1
    75    75    37    1
    76    76    38    1
    77    77    39    1
    78     8    13   ar
    79    22    23    1
    80    26    27   ar
    81    28    29    1
    82    32    33   ar
    83    34    35    1
    84    38    39   ar
    85    78    79   ar
    86    79    80   ar
    87    80    81   ar
    88    81    82   ar
    89    82    83   ar
    90    83    78   ar
    91    84    85   ar
    92    85    86   ar
    93    86    87   ar
    94    87    88   ar
    95    88    89   ar
    96    89    84   ar
    97    90    91   ar
    98    91    92   ar
    99    92    93   ar
   100    93    94   ar
   101    94    95   ar
   102    95    90   ar
   103    96    97   ar
   104    97    98   ar
   105    98    99   ar
   106    99   100   ar
   107   100   101   ar
   108   101    96   ar
   109   102    78    1
   110   103    79    1
   111   104    80    1
   112   105    81    1
   113   106    82    1
   114   107    83    1
   115   108    85    1
   116   109    86    1
   117   110    87    1
   118   111    88    1
   119   112    89    1
   120   113    91    1
   121   114    92    1
   122   115    93    1
   123   116    94    1
   124   117    95    1
   125   118    97    1
   126   119    98    1
   127   120    99    1
   128   121   100    1
   129   122   101    1
   130    84   102    1
   131    90   102    1
   132    96   102    1
@<TRIPOS>SUBSTRUCTURE
     1 RES1        1 GROUP             0 ****  ****    0  
     2 RES2       78 GROUP             0 ****  ****    0  
@<TRIPOS>CRYSIN
   17.2940   16.2400   18.8080   90.0000  115.6440   90.0000    14     2
