@<TRIPOS>MOLECULE
FILFUF
   104   104     4     0     0
SMALL
USER_CHARGES
****
Generated from the CSD

@<TRIPOS>ATOM
     1 Fe1      7.5050   2.9142   3.6089   Fe        1 RES1   2.0000
     2 C1       5.9656   1.8644   5.9076   C.ar      1 RES1   0.0000
     3 C2       7.0697   1.0112   5.7698   C.ar      1 RES1   0.0000
     4 C3       6.9470  -0.3037   6.2085   C.ar      1 RES1   0.0000
     5 H1       7.6889  -0.8917   6.1252   H         1 RES1   0.0000
     6 C4       5.7721  -0.7734   6.7629   C.ar      1 RES1   0.0000
     7 H2       5.7084  -1.6746   7.0568   H         1 RES1   0.0000
     8 C5       4.6854   0.0798   6.8875   C.ar      1 RES1   0.0000
     9 H3       3.8728  -0.2372   7.2650   H         1 RES1   0.0000
    10 C6       4.7859   1.3898   6.4619   C.ar      1 RES1   0.0000
    11 H4       4.0397   1.9715   6.5494   H         1 RES1   0.0000
    12 C7       9.3903   1.0457   5.4154   C.cat     1 RES1   0.0000
    13 C8       9.1121   1.6845   7.7673   C.3       1 RES1   0.0000
    14 H5       8.7195   2.4996   7.3917   H         1 RES1   0.0000
    15 H6       9.7774   1.9244   8.4459   H         1 RES1   0.0000
    16 H7       8.4077   1.1412   8.1783   H         1 RES1   0.0000
    17 C9      10.6382  -0.1314   7.1739   C.3       1 RES1   0.0000
    18 H8      10.8606  -0.7236   6.4253   H         1 RES1   0.0000
    19 H9      10.1904  -0.6476   7.8765   H         1 RES1   0.0000
    20 H10     11.4597   0.2644   7.5325   H         1 RES1   0.0000
    21 C10      9.9502   0.1371   3.2245   C.3       1 RES1   0.0000
    22 H11     10.2860   0.6780   2.4795   H         1 RES1   0.0000
    23 H12      8.9744   0.0701   3.1659   H         1 RES1   0.0000
    24 H13     10.3426  -0.7599   3.1798   H         1 RES1   0.0000
    25 C11     11.7485   0.9485   4.6934   C.3       1 RES1   0.0000
    26 H14     12.1741   0.0765   4.8298   H         1 RES1   0.0000
    27 H15     11.8909   1.5090   5.4846   H         1 RES1   0.0000
    28 H16     12.1416   1.3849   3.9089   H         1 RES1   0.0000
    29 C12      6.8605   4.0635   6.3172   C.ar      1 RES1   0.0000
    30 C13      7.9908   4.7451   5.8547   C.ar      1 RES1   0.0000
    31 C14      8.7026   5.5323   6.7649   C.ar      1 RES1   0.0000
    32 H17      9.4868   5.9854   6.4781   H         1 RES1   0.0000
    33 C15      8.2845   5.6615   8.0705   C.ar      1 RES1   0.0000
    34 H18      8.7809   6.2020   8.6745   H         1 RES1   0.0000
    35 C16      7.1418   5.0054   8.5087   C.ar      1 RES1   0.0000
    36 H19      6.8432   5.1074   9.4048   H         1 RES1   0.0000
    37 C17      6.4439   4.2042   7.6298   C.ar      1 RES1   0.0000
    38 H20      5.6688   3.7434   7.9284   H         1 RES1   0.0000
    39 C18      9.0907   5.4948   3.9087   C.cat     1 RES1   0.0000
    40 N1       8.7225   6.7906   3.9563   N.pl3     1 RES1   0.0000
    41 C19      7.3684   7.1923   4.2954   C.3       1 RES1   0.0000
    42 H21      7.0764   7.9024   3.6870   H         1 RES1   0.0000
    43 H22      7.3470   7.5219   5.2177   H         1 RES1   0.0000
    44 H23      6.7686   6.4215   4.2099   H         1 RES1   0.0000
    45 C20      9.6767   7.8891   3.8790   C.3       1 RES1   0.0000
    46 H24     10.5850   7.5277   3.8101   H         1 RES1   0.0000
    47 H25      9.6047   8.4411   4.6852   H         1 RES1   0.0000
    48 H26      9.4816   8.4358   3.0897   H         1 RES1   0.0000
    49 N2      10.1458   5.1567   3.1543   N.pl3     1 RES1   0.0000
    50 C21     10.4906   5.8293   1.9161   C.3       1 RES1   0.0000
    51 H27     10.6219   5.1642   1.2085   H         1 RES1   0.0000
    52 H28     11.3168   6.3410   2.0412   H         1 RES1   0.0000
    53 H29      9.7650   6.4375   1.6619   H         1 RES1   0.0000
    54 C22     10.9737   4.0094   3.4972   C.3       1 RES1   0.0000
    55 H30     10.8110   3.2862   2.8562   H         1 RES1   0.0000
    56 H31     10.7483   3.7024   4.4002   H         1 RES1   0.0000
    57 H32     11.9184   4.2674   3.4660   H         1 RES1   0.0000
    58 C23      4.8242   3.8615   5.0500   C.3       1 RES1   0.0000
    59 H33      4.9916   4.7651   4.7092   H         1 RES1   0.0000
    60 H34      4.3653   3.3335   4.3636   H         1 RES1   0.0000
    61 H35      4.2625   3.9137   5.8515   H         1 RES1   0.0000
    62 N3       8.5519   2.6277   1.7443   N.1       1 RES1   0.0000
    63 C24      8.7493   2.3444   0.6669   C.1       1 RES1   0.0000
    64 C25      8.9944   1.9358  -0.7096   C.3       1 RES1   0.0000
    65 H36      8.5122   2.5333  -1.3184   H         1 RES1   0.0000
    66 H37      8.6807   1.0161  -0.8379   H         1 RES1   0.0000
    67 H38      9.9548   1.9825  -0.8983   H         1 RES1   0.0000
    68 N4       6.1257   1.3877   2.8928   N.1       1 RES1   0.0000
    69 C26      5.4565   0.4816   2.7847   C.1       1 RES1   0.0000
    70 C27      4.5896  -0.6790   2.6948   C.3       1 RES1   0.0000
    71 H39      3.6924  -0.3967   2.4214   H         1 RES1   0.0000
    72 H40      4.5416  -1.1196   3.5692   H         1 RES1   0.0000
    73 H41      4.9507  -1.3061   2.0333   H         1 RES1   0.0000
    74 N5       6.3129   4.3685   2.3580   N.1       1 RES1   0.0000
    75 C28      5.5572   5.0967   1.9344   C.1       1 RES1   0.0000
    76 C29      4.5744   6.0441   1.4350   C.3       1 RES1   0.0000
    77 H42      5.0344   6.7900   0.9948   H         1 RES1   0.0000
    78 H43      4.0408   6.3859   2.1825   H         1 RES1   0.0000
    79 H44      3.9871   5.5971   0.7911   H         1 RES1   0.0000
    80 N6       6.1154   3.2141   5.3918   N.3       1 RES1   0.0000
    81 N7       8.1829   1.4686   5.0395   N.2       1 RES1   0.0000
    82 N8       8.4261   4.5251   4.5440   N.2       1 RES1   0.0000
    83 N9       9.7533   0.9249   6.7100   N.pl3     1 RES1   0.0000
    84 N10     10.3172   0.7631   4.4802   N.pl3     1 RES1   0.0000
    85 C30      1.9661   4.1813   8.0212   C.1       2 RES2   0.0000
    86 N11      1.9778   3.1727   7.5368   N.1       2 RES2   0.0000
    87 C31      1.9656   5.4835   8.6615   C.3       2 RES2   0.0000
    88 H45      2.8305   5.6329   9.0980   H         2 RES2   0.0000
    89 H46      1.2515   5.5176   9.3316   H         2 RES2   0.0000
    90 H47      1.8154   6.1786   7.9876   H         2 RES2   0.0000
    91 P1       3.2149   7.7508   5.2114   P.3       3 RES3  -1.0000
    92 F1       2.6699   6.4653   4.4721   F         3 RES3   0.0000
    93 F2       3.9185   6.8465   6.3121   F         3 RES3   0.0000
    94 F3       2.5056   8.6640   4.1109   F         3 RES3   0.0000
    95 F4       1.8847   7.7956   6.0802   F         3 RES3   0.0000
    96 F5       4.5235   7.7126   4.3343   F         3 RES3   0.0000
    97 F6       3.7362   9.0492   5.9422   F         3 RES3   0.0000
    98 P2       8.1280   9.0148  -0.1629   P.3       4 RES4  -1.0000
    99 F7       7.3543   7.9959   0.7056   F         4 RES4   0.0000
   100 F8       8.9479  10.0185  -1.0427   F         4 RES4   0.0000
   101 F9       6.9140   9.9702  -0.1782   F         4 RES4   0.0000
   102 F10      8.5962   9.6966   1.1652   F         4 RES4   0.0000
   103 F11      9.3980   8.0969  -0.1468   F         4 RES4   0.0000
   104 F12      7.6790   8.3397  -1.5061   F         4 RES4   0.0000
@<TRIPOS>BOND
     1     1    62    1
     2     2     3   ar
     3     3     4   ar
     4     4     5    1
     5     6     4   ar
     6     7     6    1
     7     8     6   ar
     8     9     8    1
     9    10     2   ar
    10    11    10    1
    11    12    81    2
    12    13    14    1
    13    15    13    1
    14    16    13    1
    15    17    18    1
    16    19    17    1
    17    20    17    1
    18    21    22    1
    19    23    21    1
    20    24    21    1
    21    25    26    1
    22    27    25    1
    23    28    25    1
    24    29    30   ar
    25    30    31   ar
    26    31    32    1
    27    33    31   ar
    28    34    33    1
    29    35    33   ar
    30    36    35    1
    31    37    29   ar
    32    38    37    1
    33    39    40    1
    34    40    41    1
    35    41    42    1
    36    43    41    1
    37    44    41    1
    38    45    40    1
    39    46    45    1
    40    47    45    1
    41    48    45    1
    42    49    39    1
    43    50    49    1
    44    51    50    1
    45    52    50    1
    46    53    50    1
    47    54    49    1
    48    55    54    1
    49    56    54    1
    50    57    54    1
    51    58    59    1
    52    60    58    1
    53    61    58    1
    54    62    63    3
    55    63    64    1
    56    64    65    1
    57    66    64    1
    58    67    64    1
    59    68     1    1
    60    69    68    3
    61    70    69    1
    62    71    70    1
    63    72    70    1
    64    73    70    1
    65    74     1    1
    66    75    74    3
    67    76    75    1
    68    77    76    1
    69    78    76    1
    70    79    76    1
    71    80     1    1
    72    81     1    1
    73    82     1    1
    74    83    12    1
    75    84    12    1
    76     2    80    1
    77     3    81    1
    78     8    10   ar
    79    13    83    1
    80    17    83    1
    81    21    84    1
    82    25    84    1
    83    29    80    1
    84    30    82    1
    85    35    37   ar
    86    39    82    2
    87    58    80    1
    88    85    86    3
    89    87    85    1
    90    88    87    1
    91    89    87    1
    92    90    87    1
    93    91    92    1
    94    93    91    1
    95    94    91    1
    96    95    91    1
    97    96    91    1
    98    97    91    1
    99    98    99    1
   100   100    98    1
   101   101    98    1
   102   102    98    1
   103   103    98    1
   104   104    98    1
@<TRIPOS>SUBSTRUCTURE
     1 RES1        1 GROUP             0 ****  ****    0  
     2 RES2       85 GROUP             0 ****  ****    0  
     3 RES3       91 GROUP             0 ****  ****    0  
     4 RES4       98 GROUP             0 ****  ****    0  
@<TRIPOS>CRYSIN
   10.2320   11.3113   18.8460   80.1300   75.5480   85.8460     2     1
