@<TRIPOS>MOLECULE
FILKOC
    73    70     3     0     0
SMALL
USER_CHARGES
****
Generated from the CSD

@<TRIPOS>ATOM
     1 Fe1      7.5685   7.5685   7.5685   Fe        1 RES1   0.0000
     2 S1       4.0613   4.4380   8.6472   S.2       1 RES1   0.0000
     3 S2      10.4885  10.8444   5.5750   S.2       1 RES1   0.0000
     4 N1       6.1735   6.1953   8.2142   N.2       1 RES1  -1.0000
     5 N2       8.8810   8.9286   6.8215   N.2       1 RES1  -1.0000
     6 C1       5.2868   5.4714   8.3819   C.1       1 RES1   0.0000
     7 C2       9.5547   9.7243   6.2914   C.1       1 RES1   0.0000
     8 S1D      8.6472   4.0613   4.4380   S.2       1 RES1   0.0000
     9 S2D      5.5750  10.4885  10.8444   S.2       1 RES1   0.0000
    10 N1D      8.2142   6.1735   6.1953   N.2       1 RES1  -1.0000
    11 N2D      6.8215   8.8810   8.9286   N.2       1 RES1   0.0000
    12 C1D      8.3819   5.2868   5.4714   C.1       1 RES1   0.0000
    13 C2D      6.2914   9.5547   9.7243   C.1       1 RES1   0.0000
    14 S1K      4.4380   8.6472   4.0613   S.2       1 RES1   0.0000
    15 S2K     10.8444   5.5750  10.4885   S.2       1 RES1   0.0000
    16 N1K      6.1953   8.2142   6.1735   N.2       1 RES1   0.0000
    17 N2K      8.9286   6.8215   8.8810   N.2       1 RES1   0.0000
    18 C1K      5.4714   8.3819   5.2868   C.1       1 RES1   0.0000
    19 C2K      9.7243   6.2914   9.5547   C.1       1 RES1   0.0000
    20 N3       6.3905   5.7876  12.8670   N.4       2 RES2   1.0000
    21 C3       5.9848   4.6755  11.9181   C.3       2 RES2   0.0000
    22 C4       5.0667   3.6235  12.5142   C.3       2 RES2   0.0000
    23 C5       5.0976   2.3251  11.7894   C.3       2 RES2   0.0000
    24 C6       4.2089   1.2893  12.4350   C.3       2 RES2   0.0000
    25 C7       7.1883   5.2218  14.0279   C.3       2 RES2   0.0000
    26 C8       8.4645   4.5143  13.6435   C.3       2 RES2   0.0000
    27 C9       9.1449   3.8468  14.8009   C.3       2 RES2   0.0000
    28 C10     10.4037   3.1212  14.3589   C.3       2 RES2   0.0000
    29 C11      7.2313   6.7797  12.0665   C.3       2 RES2   0.0000
    30 C12      7.7066   7.9890  12.8411   C.3       2 RES2   0.0000
    31 C13      8.8223   8.7177  12.1160   C.3       2 RES2   0.0000
    32 C14      9.3184   9.9132  12.9083   C.3       2 RES2   0.0000
    33 C15      5.1665   6.4550  13.4589   C.3       2 RES2   0.0000
    34 C16      4.1729   7.0349  12.4719   C.3       2 RES2   0.0000
    35 C17      2.9523   7.5686  13.1893   C.3       2 RES2   0.0000
    36 C18      1.9356   8.1871  12.2564   C.3       2 RES2   0.0000
    37 H1       6.7725   4.2283  11.6265   H         2 RES2   0.0000
    38 H2       5.5499   5.0691  11.1699   H         2 RES2   0.0000
    39 H3       5.3252   3.4768  13.4169   H         2 RES2   0.0000
    40 H4       4.1775   3.9577  12.4915   H         2 RES2   0.0000
    41 H5       5.9921   2.0054  11.7884   H         2 RES2   0.0000
    42 H6       4.8106   2.4645  10.8944   H         2 RES2   0.0000
    43 H7       4.2548   0.4711  11.9551   H         2 RES2   0.0000
    44 H8       4.4965   1.1477  13.3299   H         2 RES2   0.0000
    45 H9       3.3125   1.6067  12.4359   H         2 RES2   0.0000
    46 H10      7.4297   5.9389  14.6008   H         2 RES2   0.0000
    47 H11      6.6372   4.6100  14.5017   H         2 RES2   0.0000
    48 H12      9.0630   5.1367  13.2478   H         2 RES2   0.0000
    49 H13      8.2415   3.8441  13.0086   H         2 RES2   0.0000
    50 H14      9.3698   4.5158  15.4368   H         2 RES2   0.0000
    51 H15      8.5483   3.2207  15.1952   H         2 RES2   0.0000
    52 H16     10.8268   2.7158  15.1058   H         2 RES2   0.0000
    53 H17     10.9959   3.7499  13.9629   H         2 RES2   0.0000
    54 H18     10.1768   2.4548  13.7213   H         2 RES2   0.0000
    55 H19      7.9975   6.3231  11.7401   H         2 RES2   0.0000
    56 H20      6.7121   7.0890  11.3342   H         2 RES2   0.0000
    57 H21      8.0289   7.6979  13.6851   H         2 RES2   0.0000
    58 H22      6.9778   8.5870  12.9699   H         2 RES2   0.0000
    59 H23      9.5438   8.1158  11.9793   H         2 RES2   0.0000
    60 H24      8.4952   9.0171  11.2762   H         2 RES2   0.0000
    61 H25     10.0149  10.3605  12.4408   H         2 RES2   0.0000
    62 H26      9.6429   9.6114  13.7479   H         2 RES2   0.0000
    63 H27      8.5942  10.5127  13.0448   H         2 RES2   0.0000
    64 H28      5.4581   7.1639  14.0185   H         2 RES2   0.0000
    65 H29      4.7018   5.8108  13.9798   H         2 RES2   0.0000
    66 H30      4.5883   7.7462  11.9986   H         2 RES2   0.0000
    67 H31      3.9166   6.3545  11.8609   H         2 RES2   0.0000
    68 H32      3.2280   8.2222  13.8228   H         2 RES2   0.0000
    69 H33      2.5370   6.8450  13.6416   H         2 RES2   0.0000
    70 H34      1.1839   8.5024  12.7452   H         2 RES2   0.0000
    71 H35      2.3461   8.9132  11.8029   H         2 RES2   0.0000
    72 H36      1.6526   7.5360  11.6241   H         2 RES2   0.0000
    73 O1       4.8903   4.8903   4.8903   O.3       3 RES3   0.0000
@<TRIPOS>BOND
     1     1     4    1
     2     2     6    2
     3     3     7    2
     4     4     6    2
     5     5     1    1
     6     7     5    2
     7     8    12    2
     8     9    13    2
     9    10     1    1
    10    11     1    1
    11    12    10    2
    12    13    11    2
    13    14    18    2
    14    15    19    2
    15    16     1    1
    16    17     1    1
    17    18    16    2
    18    19    17    2
    19    20    21    1
    20    21    22    1
    21    22    23    1
    22    23    24    1
    23    24    43    1
    24    25    20    1
    25    26    25    1
    26    27    26    1
    27    28    27    1
    28    29    20    1
    29    30    29    1
    30    31    30    1
    31    32    31    1
    32    33    20    1
    33    34    33    1
    34    35    34    1
    35    36    35    1
    36    37    21    1
    37    38    21    1
    38    39    22    1
    39    40    22    1
    40    41    23    1
    41    42    23    1
    42    44    24    1
    43    45    24    1
    44    46    25    1
    45    47    25    1
    46    48    26    1
    47    49    26    1
    48    50    27    1
    49    51    27    1
    50    52    28    1
    51    53    28    1
    52    54    28    1
    53    55    29    1
    54    56    29    1
    55    57    30    1
    56    58    30    1
    57    59    31    1
    58    60    31    1
    59    61    32    1
    60    62    32    1
    61    63    32    1
    62    64    33    1
    63    65    33    1
    64    66    34    1
    65    67    34    1
    66    68    35    1
    67    69    35    1
    68    70    36    1
    69    71    36    1
    70    72    36    1
@<TRIPOS>SUBSTRUCTURE
     1 RES1        1 GROUP             0 ****  ****    0  
     2 RES2       20 GROUP             0 ****  ****    0  
     3 RES3       73 GROUP             0 ****  ****    0  
@<TRIPOS>CRYSIN
   24.1615   24.1615   24.1615   90.0000   90.0000   90.0000   205     1
