@<TRIPOS>MOLECULE
FILSAU
   135   147     3     0     0
SMALL
USER_CHARGES
****
Generated from the CSD

@<TRIPOS>ATOM
     1 Fe1     -5.8882  14.3627   6.4829   Fe        1 RES1   1.0000
     2 N1      -4.2352  13.2854   6.7202   N.2       1 RES1   0.0000
     3 N2      -5.2627  14.9067   4.6690   N.2       1 RES1   0.0000
     4 C1      -3.9145  12.4797   7.7989   C.2       1 RES1   0.0000
     5 C2      -2.6718  11.8131   7.5591   C.2       1 RES1   0.0000
     6 C3      -2.2327  12.1992   6.3442   C.2       1 RES1   0.0000
     7 C4      -3.2017  13.1275   5.8177   C.2       1 RES1   0.0000
     8 C5      -3.1251  13.6943   4.5588   C.2       1 RES1   0.0000
     9 C6      -4.0974  14.5430   4.0311   C.2       1 RES1   0.0000
    10 C7      -4.0114  15.1773   2.7410   C.2       1 RES1   0.0000
    11 C8      -5.1311  15.9068   2.5893   C.2       1 RES1   0.0000
    12 C9      -5.9059  15.7641   3.7873   C.2       1 RES1   0.0000
    13 C10     -4.6660  12.3218   8.9555   C.2       1 RES1   0.0000
    14 C11     -1.9291  13.3642   3.7095   C.ar      1 RES1   0.0000
    15 C12     -0.6681  13.8424   4.0479   C.ar      1 RES1   0.0000
    16 C13      0.4444  13.5190   3.2622   C.ar      1 RES1   0.0000
    17 C14      0.2819  12.7175   2.1458   C.ar      1 RES1   0.0000
    18 C15     -0.9717  12.2234   1.8178   C.ar      1 RES1   0.0000
    19 C16     -2.0723  12.5404   2.5945   C.ar      1 RES1   0.0000
    20 C17     -4.1085  11.4255  10.0290   C.ar      1 RES1   0.0000
    21 C18     -3.2006  11.8853  10.9120   C.ar      1 RES1   0.0000
    22 C19     -2.6543  11.0451  11.8780   C.ar      1 RES1   0.0000
    23 C20     -3.0383   9.7446  11.9830   C.ar      1 RES1   0.0000
    24 C21     -3.9527   9.2843  11.1013   C.ar      1 RES1   0.0000
    25 C22     -4.5092  10.1257  10.1379   C.ar      1 RES1   0.0000
    26 N3      -4.9823  15.9453   7.2608   N.2       1 RES1   0.0000
    27 N4      -4.4792  17.6258   8.5872   N.pl3     1 RES1   0.0000
    28 C23     -5.2649  16.5546   8.4187   C.2       1 RES1   0.0000
    29 C24     -3.6426  17.7365   7.4890   C.2       1 RES1   0.0000
    30 C25     -3.9646  16.6740   6.6852   C.2       1 RES1   0.0000
    31 C26     -2.6778  18.7852   7.3516   C.2       1 RES1   0.0000
    32 C27     -1.9794  19.0110   6.2391   C.2       1 RES1   0.0000
    33 C28     -0.9940  20.0973   6.1600   C.2       1 RES1   0.0000
    34 C29      0.5899  21.1415   4.7364   C.3       1 RES1   0.0000
    35 O1      -0.7037  20.8533   7.0417   O.2       1 RES1   0.0000
    36 O2      -0.4372  20.1367   4.9335   O.3       1 RES1   0.0000
    37 H1      -2.2133  11.1678   8.1905   H         1 RES1   0.0000
    38 H2      -1.3904  11.8869   5.8800   H         1 RES1   0.0000
    39 H3      -4.4915  18.2415   9.3885   H         1 RES1   0.0000
    40 H4      -3.2587  15.0930   2.0771   H         1 RES1   0.0000
    41 H5      -5.3814  16.4477   1.7711   H         1 RES1   0.0000
    42 H6      -0.5478  14.4142   4.8842   H         1 RES1   0.0000
    43 H7       1.3608  13.8843   3.4943   H         1 RES1   0.0000
    44 H8       1.0738  12.4911   1.5663   H         1 RES1   0.0000
    45 H9      -1.0898  11.6288   0.9971   H         1 RES1   0.0000
    46 H10     -2.9939  12.1734   2.3533   H         1 RES1   0.0000
    47 H11     -2.7883  12.8395  10.7759   H         1 RES1   0.0000
    48 H12     -1.5923  11.2806  12.1684   H         1 RES1   0.0000
    49 H13     -2.8366   9.2205  12.8258   H         1 RES1   0.0000
    50 H14     -4.2261   8.3059  11.1169   H         1 RES1   0.0000
    51 H15     -5.2053   9.7729   9.5039   H         1 RES1   0.0000
    52 H16     -5.9776  16.2591   9.0812   H         1 RES1   0.0000
    53 H17     -3.5117  16.4697   5.8022   H         1 RES1   0.0000
    54 H18     -2.5020  19.3934   8.1386   H         1 RES1   0.0000
    55 H19     -2.1449  18.4194   5.4430   H         1 RES1   0.0000
    56 H20      1.4763  20.5906   4.8674   H         1 RES1   0.0000
    57 H21      0.5255  21.8864   5.4067   H         1 RES1   0.0000
    58 H22      0.5487  21.5363   3.8119   H         1 RES1   0.0000
    59 N1A     -7.5412  15.4401   6.2456   N.2       1 RES1   0.0000
    60 N2A     -6.5137  13.8188   8.2968   N.2       1 RES1   0.0000
    61 N3A     -6.7941  12.7802   5.7049   N.2       1 RES1   0.0000
    62 C10A    -7.1104  16.4037   4.0103   C.2       1 RES1   0.0000
    63 C9A     -5.8705  12.9614   9.1785   C.2       1 RES1   0.0000
    64 C1A     -7.8618  16.2458   5.1669   C.2       1 RES1   0.0000
    65 C4A     -8.5747  15.5980   7.1480   C.2       1 RES1   0.0000
    66 C6A     -7.6790  14.1825   8.9347   C.2       1 RES1   0.0000
    67 C23A    -6.5115  12.1709   4.5471   C.2       1 RES1   0.0000
    68 C25A    -7.8118  12.0515   6.2806   C.2       1 RES1   0.0000
    69 C17A    -7.6679  17.3000   2.9368   C.ar      1 RES1   0.0000
    70 C8A     -6.6453  12.8187  10.3765   C.2       1 RES1   0.0000
    71 C2A     -9.1046  16.9124   5.4067   C.2       1 RES1   0.0000
    72 C3A     -9.5436  16.5263   6.6216   C.2       1 RES1   0.0000
    73 C5A     -8.6513  15.0312   8.4070   C.2       1 RES1   0.0000
    74 C7A     -7.7650  13.5482  10.2248   C.2       1 RES1   0.0000
    75 N4A     -7.2972  11.0996   4.3785   N.pl3     1 RES1   0.0000
    76 H16A    -5.7987  12.4664   3.8845   H         1 RES1   0.0000
    77 C24A    -8.1338  10.9890   5.4767   C.2       1 RES1   0.0000
    78 H17A    -8.2647  12.2558   7.1636   H         1 RES1   0.0000
    79 C18A    -8.5758  16.8402   2.0538   C.ar      1 RES1   0.0000
    80 C22A    -7.2672  18.5998   2.8278   C.ar      1 RES1   0.0000
    81 H5A     -6.3950  12.2778  11.1947   H         1 RES1   0.0000
    82 H1A     -9.5631  17.5576   4.7753   H         1 RES1   0.0000
    83 H2A    -10.3860  16.8386   7.0858   H         1 RES1   0.0000
    84 C11A    -9.8473  15.3612   9.2563   C.ar      1 RES1   0.0000
    85 H4A     -8.5177  13.6325  10.8887   H         1 RES1   0.0000
    86 H3A     -7.2849  10.4840   3.5773   H         1 RES1   0.0000
    87 C26A    -9.0986   9.9402   5.6142   C.2       1 RES1   0.0000
    88 C19A    -9.1221  17.6804   1.0878   C.ar      1 RES1   0.0000
    89 H11A    -8.9881  15.8860   2.1899   H         1 RES1   0.0000
    90 C21A    -7.8237  19.4412   1.8645   C.ar      1 RES1   0.0000
    91 H15A    -6.5711  18.9526   3.4619   H         1 RES1   0.0000
    92 C12A   -11.1082  14.8831   8.9179   C.ar      1 RES1   0.0000
    93 C16A    -9.7040  16.1851  10.3713   C.ar      1 RES1   0.0000
    94 C27A    -9.7970   9.7145   6.7266   C.2       1 RES1   0.0000
    95 H18A    -9.2744   9.3321   4.8272   H         1 RES1   0.0000
    96 C20A    -8.7381  18.9809   0.9828   C.ar      1 RES1   0.0000
    97 H12A   -10.1841  17.4449   0.7974   H         1 RES1   0.0000
    98 H14A    -7.5503  20.4196   1.8489   H         1 RES1   0.0000
    99 C13A   -12.2208  15.2065   9.7036   C.ar      1 RES1   0.0000
   100 H6A    -11.2286  14.3113   8.0816   H         1 RES1   0.0000
   101 C15A   -10.8047  16.5021  11.1480   C.ar      1 RES1   0.0000
   102 H10A    -8.7825  16.5521  10.6125   H         1 RES1   0.0000
   103 C28A   -10.7824   8.6282   6.8057   C.2       1 RES1   0.0000
   104 H19A    -9.6315  10.3061   7.5227   H         1 RES1   0.0000
   105 H13A    -8.9398  19.5050   0.1400   H         1 RES1   0.0000
   106 C14A   -12.0583  16.0080  10.8199   C.ar      1 RES1   0.0000
   107 H7A    -13.1372  14.8412   9.4715   H         1 RES1   0.0000
   108 H9A    -10.6865  17.0967  11.9687   H         1 RES1   0.0000
   109 O1A    -11.0727   7.8722   5.9241   O.2       1 RES1   0.0000
   110 O2A    -11.3392   8.5888   8.0323   O.3       1 RES1   0.0000
   111 H8A    -12.8502  16.2344  11.3995   H         1 RES1   0.0000
   112 C29A   -12.3663   7.5840   8.2294   C.3       1 RES1   0.0000
   113 H20A   -13.2526   8.1349   8.0984   H         1 RES1   0.0000
   114 H21A   -12.3019   6.8391   7.5591   H         1 RES1   0.0000
   115 H22A   -12.3251   7.1892   9.1538   H         1 RES1   0.0000
   116 Sb1     -1.2941   5.8091  12.9658   Sb        2 RES2  -1.0000
   117 F1      -1.1059   6.0939  11.1182   F         2 RES2   0.0000
   118 F2      -1.9206   4.0837  12.6235   F         2 RES2   0.0000
   119 F3       0.4644   5.1760  13.0514   F         2 RES2   0.0000
   120 F1A     -1.4823   5.5243  14.8134   F         2 RES2   0.0000
   121 F2A     -0.6676   7.5345  13.3081   F         2 RES2   0.0000
   122 F3A     -3.0527   6.4422  12.8802   F         2 RES2   0.0000
   123 C30      1.1657   9.1856   1.5027   C.3       3 RES3   0.0000
   124 C31      1.0996   7.8742   0.7702   C.3       3 RES3   0.0000
   125 C32      2.4172   7.2427   1.1125   C.3       3 RES3   0.0000
   126 C33      2.6924   7.7371   2.4920   C.3       3 RES3   0.0000
   127 O3       2.0243   8.9840   2.6359   O.3       3 RES3   0.0000
   128 H23      1.4943   9.9295   0.9076   H         3 RES3   0.0000
   129 H24      0.2191   9.4642   1.8178   H         3 RES3   0.0000
   130 H25      0.3392   7.2987   1.0891   H         3 RES3   0.0000
   131 H26      1.0119   8.0022  -0.2230   H         3 RES3   0.0000
   132 H27      3.1292   7.5303   0.4655   H         3 RES3   0.0000
   133 H28      2.3505   6.2348   1.0826   H         3 RES3   0.0000
   134 H29      2.3541   7.0784   3.1779   H         3 RES3   0.0000
   135 H30      3.6846   7.8531   2.6334   H         3 RES3   0.0000
@<TRIPOS>BOND
     1     1     2    1
     2     2     4    1
     3     3     1    1
     4     4     5    1
     5     5     6    2
     6     6     7    1
     7     7     2    2
     8     8     7    1
     9     9     3    1
    10    10     9    1
    11    11    10    2
    12    12     3    1
    13    13     4    2
    14    14     8    1
    15    15    14   ar
    16    16    15   ar
    17    17    16   ar
    18    18    17   ar
    19    19    14   ar
    20    20    13    1
    21    21    20   ar
    22    22    21   ar
    23    23    22   ar
    24    24    23   ar
    25    25    20   ar
    26    26     1    1
    27    27    28    1
    28    28    26    2
    29    29    27    1
    30    30    26    1
    31    31    29    1
    32    32    31    2
    33    33    32    1
    34    34    36    1
    35    35    33    2
    36    36    33    1
    37    37     5    1
    38    38     6    1
    39    39    27    1
    40    40    10    1
    41    41    11    1
    42    42    15    1
    43    43    16    1
    44    44    17    1
    45    45    18    1
    46    46    19    1
    47    47    21    1
    48    48    22    1
    49    49    23    1
    50    50    24    1
    51    51    25    1
    52    52    28    1
    53    53    30    1
    54    54    31    1
    55    55    32    1
    56    56    34    1
    57    57    34    1
    58    58    34    1
    59    59     1    1
    60    60     1    1
    61    61     1    1
    62    62    12    2
    63    63    13    1
    64    64    59    2
    65    65    59    1
    66    66    60    1
    67    67    61    2
    68    68    61    1
    69    69    62    1
    70    70    63    2
    71    71    64    1
    72    72    65    1
    73    73    65    2
    74    74    66    2
    75    75    67    1
    76    76    67    1
    77    77    68    2
    78    78    68    1
    79    79    69   ar
    80    80    69   ar
    81    81    70    1
    82    82    71    1
    83    83    72    1
    84    84    73    1
    85    85    74    1
    86    86    75    1
    87    87    77    1
    88    88    79   ar
    89    89    79    1
    90    90    80   ar
    91    91    80    1
    92    92    84   ar
    93    93    84   ar
    94    94    87    2
    95    95    87    1
    96    96    88   ar
    97    97    88    1
    98    98    90    1
    99    99    92   ar
   100   100    92    1
   101   101    93   ar
   102   102    93    1
   103   103    94    1
   104   104    94    1
   105   105    96    1
   106   106    99   ar
   107   107    99    1
   108   108   101    1
   109   109   103    2
   110   110   103    1
   111   111   106    1
   112   112   110    1
   113   113   112    1
   114   114   112    1
   115   115   112    1
   116     8     9    2
   117    11    12    1
   118    18    19   ar
   119    24    25   ar
   120    29    30    2
   121    60    63    1
   122    62    64    1
   123    66    73    1
   124    70    74    1
   125    71    72    2
   126    75    77    1
   127    90    96   ar
   128   101   106   ar
   129   116   117    1
   130   118   116    1
   131   119   116    1
   132   120   116    1
   133   121   116    1
   134   122   116    1
   135   123   124    1
   136   124   125    1
   137   125   126    1
   138   126   127    1
   139   127   123    1
   140   128   123    1
   141   129   123    1
   142   130   124    1
   143   131   124    1
   144   132   125    1
   145   133   125    1
   146   134   126    1
   147   135   126    1
@<TRIPOS>SUBSTRUCTURE
     1 RES1        1 GROUP             0 ****  ****    0  
     2 RES2      116 GROUP             0 ****  ****    0  
     3 RES3      123 GROUP             0 ****  ****    0  
@<TRIPOS>CRYSIN
    9.8980   12.6000   15.3440   99.9900  112.8200  114.5800     2     1
