@<TRIPOS>MOLECULE
FIMCAH
    89    92     5     0     0
SMALL
NO_CHARGES
****
Generated from the CSD

@<TRIPOS>ATOM
     1 Fe1      1.8383   5.2014  17.3897   Fe        1 RES1   0.0000
     2 O1      -0.5452   1.8384  15.0239   O.2       1 RES1   0.0000
     3 O2       5.3503   7.3279  18.5373   O.2       1 RES1   0.0000
     4 O3       1.7602   5.7274  22.0836   O.2       1 RES1   0.0000
     5 O4       1.6312   6.4680  13.3336   O.2       1 RES1   0.0000
     6 N1       1.8604   7.6062  19.1009   N.pl3     1 RES1   0.0000
     7 N2       0.0168   7.4366  18.0372   N.pl3     1 RES1   0.0000
     8 N3      -1.0625   5.4962  17.1530   N.pl3     1 RES1   0.0000
     9 N4      -0.6130   3.4194  17.2859   N.pl3     1 RES1   0.0000
    10 N5       1.0706   0.5095  15.8815   N.am      1 RES1   0.0000
    11 N6       3.6743   6.0704  17.5799   N.am      1 RES1   0.0000
    12 N7       2.5635   3.5180  15.0534   N.pl3     1 RES1   0.0000
    13 N8       3.6415   2.9374  16.7923   N.pl3     1 RES1   0.0000
    14 N9       3.0872   3.1913  19.0927   N.pl3     1 RES1   0.0000
    15 N10      1.3442   3.9095  20.1045   N.pl3     1 RES1   0.0000
    16 N11     -0.3280   6.5832  21.9518   N.am      1 RES1   0.0000
    17 N12      1.7494   6.1707  15.6060   N.am      1 RES1   0.0000
    18 C1       1.1962   6.7886  18.2518   C.3       1 RES1   0.0000
    19 C2       1.1224   8.7474  19.3816   C.2       1 RES1   0.0000
    20 H1       1.3834   9.4526  19.9299   H         1 RES1   0.0000
    21 C3      -0.0386   8.6487  18.7142   C.2       1 RES1   0.0000
    22 H2      -0.7358   9.2650  18.7071   H         1 RES1   0.0000
    23 C4      -0.9594   6.9536  17.0797   C.3       1 RES1   0.0000
    24 H3      -0.6951   7.2172  16.1851   H         1 RES1   0.0000
    25 H4      -1.8239   7.3515  17.2678   H         1 RES1   0.0000
    26 C5       0.0109   4.6422  17.2300   C.3       1 RES1   0.0000
    27 C6      -2.2789   4.8331  17.1532   C.2       1 RES1   0.0000
    28 H5      -3.1246   5.2180  17.1150   H         1 RES1   0.0000
    29 C7      -1.9929   3.5310  17.2190   C.2       1 RES1   0.0000
    30 H6      -2.6052   2.8306  17.2211   H         1 RES1   0.0000
    31 C8       0.0488   2.1351  17.3323   C.3       1 RES1   0.0000
    32 H7      -0.4520   1.5415  17.9153   H         1 RES1   0.0000
    33 H8       0.9323   2.2483  17.7136   H         1 RES1   0.0000
    34 C9       0.1795   1.4865  15.9605   C.2       1 RES1   0.0000
    35 C10      3.2004   7.3013  19.5928   C.3       1 RES1   0.0000
    36 H9       3.1417   6.5913  20.2526   H         1 RES1   0.0000
    37 H10      3.5630   8.0858  20.0318   H         1 RES1   0.0000
    38 C11      4.1465   6.8695  18.4840   C.2       1 RES1   0.0000
    39 C12      2.6605   3.7768  16.3806   C.3       1 RES1   0.0000
    40 C13      3.4809   2.5653  14.6460   C.2       1 RES1   0.0000
    41 H11      3.6036   2.2451  13.7820   H         1 RES1   0.0000
    42 C14      4.1575   2.1917  15.7389   C.2       1 RES1   0.0000
    43 H12      4.8377   1.5609  15.7839   H         1 RES1   0.0000
    44 C15      4.1679   3.0069  18.1454   C.3       1 RES1   0.0000
    45 H13      4.6453   2.1885  18.3526   H         1 RES1   0.0000
    46 H14      4.7919   3.7461  18.2146   H         1 RES1   0.0000
    47 C16      2.0919   4.1262  18.9634   C.3       1 RES1   0.0000
    48 C17      2.9646   2.4376  20.2505   C.2       1 RES1   0.0000
    49 H15      3.5212   1.7453  20.5286   H         1 RES1   0.0000
    50 C18      1.8850   2.9034  20.8918   C.2       1 RES1   0.0000
    51 H16      1.5592   2.6074  21.7111   H         1 RES1   0.0000
    52 C19      0.2110   4.7085  20.5428   C.3       1 RES1   0.0000
    53 H17     -0.4705   4.1262  20.9107   H         1 RES1   0.0000
    54 H18     -0.1702   5.1711  19.7813   H         1 RES1   0.0000
    55 C20      0.6298   5.7308  21.5979   C.2       1 RES1   0.0000
    56 C21      1.6349   4.2265  14.1758   C.3       1 RES1   0.0000
    57 H19      0.7353   3.9030  14.3361   H         1 RES1   0.0000
    58 H20      1.8614   4.0356  13.2512   H         1 RES1   0.0000
    59 C22      1.6713   5.7275  14.3983   C.2       1 RES1   0.0000
    60 H21     -0.1222   7.1817  22.5454   H         1 RES1   0.0000
    61 H22     -1.0119   6.5670  21.5264   H         1 RES1   0.0000
    62 H23      1.1689   0.1456  15.0939   H         1 RES1   0.0000
    63 H24      1.8392   7.0199  15.6671   H         1 RES1   0.0000
    64 H25      1.6379   0.4205  16.4951   H         1 RES1   0.0000
    65 H26      4.2766   5.9685  16.9409   H         1 RES1   0.0000
    66 O5       6.5464   0.6680  18.3700   O.3       2 RES2   0.0000
    67 H27      6.0730  -0.0016  18.3505   H         2 RES2   0.0000
    68 C23      6.9536   0.9204  19.7092   C.3       2 RES2   0.0000
    69 H28      7.3466   1.7954  19.7644   H         2 RES2   0.0000
    70 H29      7.5988   0.2620  19.9788   H         2 RES2   0.0000
    71 H30      6.1908   0.8751  20.2908   H         2 RES2   0.0000
    72 O6       6.9040   6.1545  20.4174   O.3       3 RES3   0.0000
    73 H31      6.4903   6.5379  19.8217   H         3 RES3   0.0000
    74 C24      6.2287   4.9689  20.7706   C.3       3 RES3   0.0000
    75 H32      6.5213   4.6810  21.6368   H         3 RES3   0.0000
    76 H33      6.4231   4.2863  20.1231   H         3 RES3   0.0000
    77 H34      5.2835   5.1323  20.7876   H         3 RES3   0.0000
    78 O7       3.9465   7.9710  13.5845   O.3       4 RES4   0.0000
    79 H35      3.1993   7.6621  13.4508   H         4 RES4   0.0000
    80 C25      4.8743   7.2690  12.8436   C.3       4 RES4   0.0000
    81 H36      5.7501   7.6265  13.0050   H         4 RES4   0.0000
    82 H37      4.6632   7.3466  11.9096   H         4 RES4   0.0000
    83 H38      4.8546   6.3438  13.1005   H         4 RES4   0.0000
    84 O8      -0.6326   5.5027  11.9541   O.3       5 RES5   0.0000
    85 H39     -0.0040   5.9459  12.2365   H         5 RES5   0.0000
    86 C26     -1.6048   5.3523  12.9795   C.3       5 RES5   0.0000
    87 H40     -1.4535   6.0106  13.6631   H         5 RES5   0.0000
    88 H41     -1.5358   4.4740  13.3616   H         5 RES5   0.0000
    89 H42     -2.4815   5.4720  12.6080   H         5 RES5   0.0000
@<TRIPOS>BOND
     1     1    11    1
     2     2    34    2
     3     3    38    2
     4     4    55    2
     5     5    59    2
     6     6    18    1
     7     7    18    1
     8     8    23    1
     9     9    26    1
    10    10    34   am
    11    11    38   am
    12    12    39    1
    13    13    39    1
    14    14    44    1
    15    15    47    1
    16    16    55   am
    17    17     1    1
    18    18     1    1
    19    19     6    1
    20    20    19    1
    21    21     7    1
    22    22    21    1
    23    23     7    1
    24    24    23    1
    25    25    23    1
    26    26     1    1
    27    27     8    1
    28    28    27    1
    29    29     9    1
    30    30    29    1
    31    31     9    1
    32    32    31    1
    33    33    31    1
    34    34    31    1
    35    35     6    1
    36    36    35    1
    37    37    35    1
    38    38    35    1
    39    39     1    1
    40    40    12    1
    41    41    40    1
    42    42    13    1
    43    43    42    1
    44    44    13    1
    45    45    44    1
    46    46    44    1
    47    47     1    1
    48    48    14    1
    49    49    48    1
    50    50    15    1
    51    51    50    1
    52    52    15    1
    53    53    52    1
    54    54    52    1
    55    55    52    1
    56    56    12    1
    57    57    56    1
    58    58    56    1
    59    59    17   am
    60    60    16    1
    61    61    16    1
    62    62    10    1
    63    63    17    1
    64    64    10    1
    65    65    11    1
    66     8    26    1
    67    14    47    1
    68    19    21    2
    69    27    29    2
    70    40    42    2
    71    48    50    2
    72    56    59    1
    73    66    67    1
    74    68    66    1
    75    69    68    1
    76    70    68    1
    77    71    68    1
    78    72    73    1
    79    74    72    1
    80    75    74    1
    81    76    74    1
    82    77    74    1
    83    78    79    1
    84    80    78    1
    85    81    80    1
    86    82    80    1
    87    83    80    1
    88    84    85    1
    89    86    84    1
    90    87    86    1
    91    88    86    1
    92    89    86    1
@<TRIPOS>SUBSTRUCTURE
     1 RES1        1 GROUP             0 ****  ****    0  
     2 RES2       66 GROUP             0 ****  ****    0  
     3 RES3       72 GROUP             0 ****  ****    0  
     4 RES4       78 GROUP             0 ****  ****    0  
     5 RES5       84 GROUP             0 ****  ****    0  
@<TRIPOS>CRYSIN
    9.6387   16.1749   21.3184   90.0000   95.2440   90.0000    14     1
