@<TRIPOS>MOLECULE
FIMVAZ
    90    97     1     0     0
SMALL
NO_CHARGES
****
Generated from the CSD

@<TRIPOS>ATOM
     1 C1       9.5030   1.0239  -0.9353   C.ar      1 RES1   0.0000
     2 C2      11.4648   2.3374  -1.1057   C.3       1 RES1   0.0000
     3 C3      11.7563   2.2465  -3.3781   C.2       1 RES1   0.0000
     4 H1      12.1292   2.4131  -4.2350   H         1 RES1   0.0000
     5 C4      10.6846   1.4908  -3.1333   C.2       1 RES1   0.0000
     6 H2      10.1617   1.0087  -3.7642   H         1 RES1   0.0000
     7 C5      13.3052   3.7284  -2.1371   C.ar      1 RES1   0.0000
     8 C6      12.9435   5.0802  -2.1608   C.ar      1 RES1   0.0000
     9 C7      13.9919   5.9980  -2.2388   C.ar      1 RES1   0.0000
    10 H3      13.7950   6.9274  -2.2670   H         1 RES1   0.0000
    11 C8      15.2985   5.5890  -2.2764   C.ar      1 RES1   0.0000
    12 H4      15.9917   6.2350  -2.3400   H         1 RES1   0.0000
    13 C9      15.6159   4.2523  -2.2270   C.ar      1 RES1   0.0000
    14 H5      16.5290   3.9868  -2.2411   H         1 RES1   0.0000
    15 C10     14.6273   3.2882  -2.1566   C.ar      1 RES1   0.0000
    16 C11     14.9787   1.8143  -2.1069   C.3       1 RES1   0.0000
    17 H6      14.2110   1.3295  -1.6855   H         1 RES1   0.0000
    18 C12     16.2322   1.5211  -1.2736   C.3       1 RES1   0.0000
    19 H7      17.0175   1.9007  -1.7208   H         1 RES1   0.0000
    20 H8      16.3465   0.5516  -1.1841   H         1 RES1   0.0000
    21 H9      16.1361   1.9230  -0.3861   H         1 RES1   0.0000
    22 C13     15.1619   1.2654  -3.5288   C.3       1 RES1   0.0000
    23 H10     14.3473   1.4258  -4.0491   H         1 RES1   0.0000
    24 H11     15.3404   0.3021  -3.4864   H         1 RES1   0.0000
    25 H12     15.9166   1.7180  -3.9596   H         1 RES1   0.0000
    26 C14     11.4888   5.5186  -2.1399   C.3       1 RES1   0.0000
    27 H13     10.9903   4.8716  -1.5631   H         1 RES1   0.0000
    28 C15     10.8505   5.4767  -3.5288   C.3       1 RES1   0.0000
    29 H14     11.3645   6.0408  -4.1432   H         1 RES1   0.0000
    30 H15      9.9304   5.8073  -3.4747   H         1 RES1   0.0000
    31 H16     10.8468   4.5535  -3.8584   H         1 RES1   0.0000
    32 C16     11.3066   6.9132  -1.5278   C.3       1 RES1   0.0000
    33 H17     11.7725   6.9550  -0.6662   H         1 RES1   0.0000
    34 H18     10.3529   7.0878  -1.3913   H         1 RES1   0.0000
    35 H19     11.6786   7.5868  -2.1328   H         1 RES1   0.0000
    36 C17      8.4500   0.2103  -1.3065   C.ar      1 RES1   0.0000
    37 H20      8.3290  -0.0535  -2.2105   H         1 RES1   0.0000
    38 C18      7.5680  -0.2121  -0.3084   C.ar      1 RES1   0.0000
    39 H21      6.8286  -0.7681  -0.5273   H         1 RES1   0.0000
    40 C19      7.7772   0.1889   1.0146   C.ar      1 RES1   0.0000
    41 H22      7.1973  -0.1060   1.7067   H         1 RES1   0.0000
    42 C20      8.8328   1.0132   1.2910   C.ar      1 RES1   0.0000
    43 C21     10.3866   2.3071   2.5179   C.3       1 RES1   0.0000
    44 C22      9.3104   2.2919   4.5646   C.2       1 RES1   0.0000
    45 H23      9.1219   2.4808   5.4756   H         1 RES1   0.0000
    46 C23      8.5671   1.5452   3.7524   C.2       1 RES1   0.0000
    47 H24      7.7591   1.0961   3.9714   H         1 RES1   0.0000
    48 C24     11.4934   3.5100   4.4295   C.ar      1 RES1   0.0000
    49 C25     12.5616   2.8168   4.9931   C.ar      1 RES1   0.0000
    50 C26     13.5786   3.5591   5.5863   C.ar      1 RES1   0.0000
    51 H25     14.3102   3.1126   5.9935   H         1 RES1   0.0000
    52 C27     13.5336   4.9242   5.5886   C.ar      1 RES1   0.0000
    53 H26     14.2335   5.4161   6.0006   H         1 RES1   0.0000
    54 C28     12.4720   5.6023   4.9954   C.ar      1 RES1   0.0000
    55 H27     12.4722   6.5531   4.9836   H         1 RES1   0.0000
    56 C29     11.4058   4.9091   4.4146   C.ar      1 RES1   0.0000
    57 C30     10.2159   5.6255   3.8207   C.3       1 RES1   0.0000
    58 H28      9.8615   5.0606   3.0745   H         1 RES1   0.0000
    59 C31      9.0895   5.7868   4.8565   C.3       1 RES1   0.0000
    60 H29      8.7635   4.9028   5.1249   H         1 RES1   0.0000
    61 H30      8.3539   6.3010   4.4634   H         1 RES1   0.0000
    62 H31      9.4336   6.2609   5.6428   H         1 RES1   0.0000
    63 C32     10.5496   7.0014   3.2416   C.3       1 RES1   0.0000
    64 H32     10.7680   7.6180   3.9714   H         1 RES1   0.0000
    65 H33      9.7761   7.3436   2.7449   H         1 RES1   0.0000
    66 H34     11.3183   6.9238   2.6366   H         1 RES1   0.0000
    67 C33     12.6150   1.2948   4.9624   C.3       1 RES1   0.0000
    68 H35     12.0975   0.9900   4.1644   H         1 RES1   0.0000
    69 C34     11.9443   0.6844   6.2101   C.3       1 RES1   0.0000
    70 H36     12.4384   0.9535   7.0129   H         1 RES1   0.0000
    71 H37     11.9482  -0.2932   6.1371   H         1 RES1   0.0000
    72 H38     11.0194   1.0043   6.2737   H         1 RES1   0.0000
    73 C35     14.0249   0.7316   4.8424   C.3       1 RES1   0.0000
    74 H39     14.4763   1.1433   4.0773   H         1 RES1   0.0000
    75 H40     13.9795  -0.2388   4.7129   H         1 RES1   0.0000
    76 H41     14.5273   0.9276   5.6616   H         1 RES1   0.0000
    77 C36     12.5580   0.7940   1.1182   C.2       1 RES1   0.0000
    78 H42     12.3758   0.2290   1.9115   H         1 RES1   0.0000
    79 H43     12.8158   0.2771   0.3131   H         1 RES1   0.0000
    80 C37     13.2419   1.9711   1.3418   C.2       1 RES1   0.0000
    81 H44     13.9408   2.2081   0.6827   H         1 RES1   0.0000
    82 H45     13.5010   2.1600   2.2788   H         1 RES1   0.0000
    83 Fe1     11.2849   2.4150   0.8171   Fe        1 RES1   0.0000
    84 N1      11.8523   4.1329   1.0174   N.1       1 RES1   0.0000
    85 N2      12.2873   5.1577   1.1516   N.1       1 RES1   0.0000
    86 N3       9.7164   1.4427   0.3463   N.ar      1 RES1   0.0000
    87 N4      10.4925   1.5576  -1.7507   N.pl3     1 RES1   0.0000
    88 N5      12.2373   2.7535  -2.1698   N.pl3     1 RES1   0.0000
    89 N6       9.2075   1.5505   2.5132   N.pl3     1 RES1   0.0000
    90 N7      10.4213   2.7526   3.8421   N.pl3     1 RES1   0.0000
@<TRIPOS>BOND
     1     1    36   ar
     2     2    83    1
     3     3     4    1
     4     5     3    2
     5     6     5    1
     6     7     8   ar
     7     8     9   ar
     8     9    10    1
     9    11     9   ar
    10    12    11    1
    11    13    11   ar
    12    14    13    1
    13    15     7   ar
    14    16    15    1
    15    17    16    1
    16    18    16    1
    17    19    18    1
    18    20    18    1
    19    21    18    1
    20    22    16    1
    21    23    22    1
    22    24    22    1
    23    25    22    1
    24    26     8    1
    25    27    26    1
    26    28    26    1
    27    29    28    1
    28    30    28    1
    29    31    28    1
    30    32    26    1
    31    33    32    1
    32    34    32    1
    33    35    32    1
    34    36    37    1
    35    38    36   ar
    36    39    38    1
    37    40    38   ar
    38    41    40    1
    39    42    40   ar
    40    43    83    1
    41    44    45    1
    42    46    44    2
    43    47    46    1
    44    48    49   ar
    45    49    50   ar
    46    50    51    1
    47    52    50   ar
    48    53    52    1
    49    54    52   ar
    50    55    54    1
    51    56    48   ar
    52    57    56    1
    53    58    57    1
    54    59    57    1
    55    60    59    1
    56    61    59    1
    57    62    59    1
    58    63    57    1
    59    64    63    1
    60    65    63    1
    61    66    63    1
    62    67    49    1
    63    68    67    1
    64    69    67    1
    65    70    69    1
    66    71    69    1
    67    72    69    1
    68    73    67    1
    69    74    73    1
    70    75    73    1
    71    76    73    1
    72    77    78    1
    73    79    77    1
    74    80    77    2
    75    81    80    1
    76    82    80    1
    77    83    77   un
    78    84    83    1
    79    85    84    3
    80    86     1   ar
    81    87     1    1
    82    88     2    1
    83    89    42    1
    84    90    43    1
    85     2    87    1
    86     3    88    1
    87     5    87    1
    88     7    88    1
    89    13    15   ar
    90    42    86   ar
    91    43    89    1
    92    44    90    1
    93    46    89    1
    94    48    90    1
    95    54    56   ar
    96    80    83   un
    97    83    86    1
@<TRIPOS>SUBSTRUCTURE
     1 RES1        1 GROUP             0 ****  ****    0  
@<TRIPOS>CRYSIN
   31.8400    8.9110   23.5600   90.0000   92.3000   90.0000    15     1
