@<TRIPOS>MOLECULE
FISKAW
   126   133     1     0     0
SMALL
NO_CHARGES
****
Generated from the CSD

@<TRIPOS>ATOM
     1 Fe1      2.9593   3.5437  11.0891   Fe        1 RES1   0.0000
     2 Si1      0.9225   4.1915  11.5046   Si        1 RES1   0.0000
     3 Si2      4.9237   4.2090  11.6895   Si        1 RES1   0.0000
     4 P1       3.1004   1.8864   9.6646   P.3       1 RES1   0.0000
     5 N1       4.9832   3.6802  13.3890   N.pl3     1 RES1   0.0000
     6 N2       3.1041   2.4450  12.8079   N.ar      1 RES1   0.0000
     7 N3       0.6952   5.6389  10.5732   N.pl3     1 RES1   0.0000
     8 N4       0.1375   4.5177  13.1805   N.pl3     1 RES1   0.0000
     9 N5       5.7612   5.8779  11.7508   N.pl3     1 RES1   0.0000
    10 N6      -0.8609   3.5097  11.5821   N.pl3     1 RES1   0.0000
    11 N7       1.5221   6.8748   8.7836   N.ar      1 RES1   0.0000
    12 N8       6.8102   4.0484  11.3589   N.pl3     1 RES1   0.0000
    13 C1       6.9748   5.3538  11.5176   C.2       1 RES1   0.0000
    14 C2      -2.0030   3.2930  13.8165   C.ar      1 RES1   0.0000
    15 C3       2.7783   4.9132   9.6292   C.ar      1 RES1   0.0000
    16 C4       5.9950   4.0262  14.3766   C.3       1 RES1   0.0000
    17 H1       6.5957   3.3624  14.5516   H         1 RES1   0.0000
    18 H2       6.4884   4.7836  14.0516   H         1 RES1   0.0000
    19 H3       5.5949   4.3330  15.1184   H         1 RES1   0.0000
    20 C5      -0.4084   6.5774  10.6379   C.3       1 RES1   0.0000
    21 H4      -0.8930   6.5688   9.8011   H         1 RES1   0.0000
    22 H5      -0.9944   6.3261  11.3846   H         1 RES1   0.0000
    23 H6      -0.0281   7.5220  10.9179   H         1 RES1   0.0000
    24 C6      -0.9392   3.7957  12.8761   C.2       1 RES1   0.0000
    25 C7       5.3781   7.2984  11.9813   C.3       1 RES1   0.0000
    26 C8       6.2287   8.2794  11.2062   C.3       1 RES1   0.0000
    27 H7       7.1411   8.2759  11.5646   H         1 RES1   0.0000
    28 H8       5.8482   9.1789  11.2896   H         1 RES1   0.0000
    29 H9       6.2484   8.0194  10.2611   H         1 RES1   0.0000
    30 C9       7.7836   2.9637  11.1262   C.3       1 RES1   0.0000
    31 C10      4.0740   2.7194  13.7390   C.ar      1 RES1   0.0000
    32 C11      3.7123   5.1978   8.6360   C.ar      1 RES1   0.0000
    33 H10      4.4974   4.6051   8.6143   H         1 RES1   0.0000
    34 C12      1.6866   5.8339   9.6102   C.ar      1 RES1   0.0000
    35 C13      3.2410   0.1855  10.3195   C.3       1 RES1   0.0000
    36 H11      3.9613   0.2773  10.9346   H         1 RES1   0.0000
    37 H12      2.4469  -0.0693  10.7012   H         1 RES1   0.0000
    38 H13      3.3741  -0.4160   9.5844   H         1 RES1   0.0000
    39 C14      2.4856   7.0714   7.8392   C.ar      1 RES1   0.0000
    40 H14      2.3422   7.8340   7.2341   H         1 RES1   0.0000
    41 C15      1.8016   1.6067   8.4026   C.3       1 RES1   0.0000
    42 H15      1.0225   1.3345   8.9177   H         1 RES1   0.0000
    43 H16      1.7015   2.3918   7.9009   H         1 RES1   0.0000
    44 H17      2.0648   0.8493   7.8009   H         1 RES1   0.0000
    45 C16      2.1875   1.5027  13.1681   C.ar      1 RES1   0.0000
    46 H18      1.4736   1.3519  12.5247   H         1 RES1   0.0000
    47 C17     -1.3915   3.1509   9.2960   C.3       1 RES1   0.0000
    48 H19     -1.7871   4.0036   9.1510   H         1 RES1   0.0000
    49 H20     -0.4496   3.1717   9.1344   H         1 RES1   0.0000
    50 H21     -1.8450   2.5304   8.6510   H         1 RES1   0.0000
    51 C18     -3.9397   2.2479  15.4634   C.ar      1 RES1   0.0000
    52 H22     -4.6784   1.8892  16.0185   H         1 RES1   0.0000
    53 C19      8.9312   6.4006  10.3528   C.ar      1 RES1   0.0000
    54 H23      8.5798   6.1320   9.5544   H         1 RES1   0.0000
    55 C20      3.1995   1.0867  15.2567   C.ar      1 RES1   0.0000
    56 H24      3.3054   0.6586  16.0851   H         1 RES1   0.0000
    57 C21      3.5724   6.2585   7.7342   C.ar      1 RES1   0.0000
    58 H25      4.2681   6.4336   7.0841   H         1 RES1   0.0000
    59 C22      4.1364   2.0382  14.9567   C.ar      1 RES1   0.0000
    60 H26      4.8167   2.1665  15.4684   H         1 RES1   0.0000
    61 C23      3.9492   7.4700  11.4996   C.3       1 RES1   0.0000
    62 H27      3.8919   7.2967  10.4678   H         1 RES1   0.0000
    63 H28      3.4032   6.8981  11.9347   H         1 RES1   0.0000
    64 H29      3.5592   8.3886  11.7680   H         1 RES1   0.0000
    65 C24      7.0727   1.6743  11.5196   C.3       1 RES1   0.0000
    66 H30      6.9244   1.7158  12.4514   H         1 RES1   0.0000
    67 H31      6.2550   1.6292  11.1012   H         1 RES1   0.0000
    68 H32      7.5737   0.8666  11.2346   H         1 RES1   0.0000
    69 C25      8.8901   6.3382  12.7398   C.ar      1 RES1   0.0000
    70 H33      8.5185   6.1008  13.5515   H         1 RES1   0.0000
    71 C26     -4.1251   3.4629  14.8750   C.ar      1 RES1   0.0000
    72 H34     -4.7770   3.9343  14.9683   H         1 RES1   0.0000
    73 C27      8.1749   2.9239   9.6561   C.3       1 RES1   0.0000
    74 H35      7.3541   2.8944   9.1510   H         1 RES1   0.0000
    75 H36      8.6762   3.6397   9.4177   H         1 RES1   0.0000
    76 H37      8.7248   2.2531   9.4677   H         1 RES1   0.0000
    77 C28     -2.7967   1.5391  15.2334   C.ar      1 RES1   0.0000
    78 H38     -2.6392   0.6933  15.6351   H         1 RES1   0.0000
    79 C29      0.4670   5.1718  14.4833   C.3       1 RES1   0.0000
    80 C30      2.1987   0.8233  14.3483   C.ar      1 RES1   0.0000
    81 H39      1.5927   0.2600  14.5183   H         1 RES1   0.0000
    82 C31      0.6221   4.1614  15.6084   C.3       1 RES1   0.0000
    83 H40     -0.2403   3.7263  15.7351   H         1 RES1   0.0000
    84 H41      1.2678   3.4317  15.3184   H         1 RES1   0.0000
    85 H42      0.9661   4.6103  16.3852   H         1 RES1   0.0000
    86 C32      8.2853   6.0696  11.5313   C.ar      1 RES1   0.0000
    87 C33     -3.1949   2.8459  10.9712   C.3       1 RES1   0.0000
    88 H43     -3.4561   2.4438  11.8013   H         1 RES1   0.0000
    89 H44     -3.4321   3.7957  10.9679   H         1 RES1   0.0000
    90 H45     -3.6900   2.3918  10.2845   H         1 RES1   0.0000
    91 C34      4.5083   1.8164   8.4776   C.3       1 RES1   0.0000
    92 H46      4.4398   2.5616   7.8459   H         1 RES1   0.0000
    93 H47      4.4798   0.9688   7.9876   H         1 RES1   0.0000
    94 H48      5.3534   1.8822   8.9693   H         1 RES1   0.0000
    95 C35      1.7795   5.9084  14.2766   C.3       1 RES1   0.0000
    96 H49      2.5846   5.1995  14.1682   H         1 RES1   0.0000
    97 H50      1.6782   6.5168  13.6015   H         1 RES1   0.0000
    98 H51      2.0001   6.3954  15.1017   H         1 RES1   0.0000
    99 C36     -3.1547   4.0175  14.0432   C.ar      1 RES1   0.0000
   100 H52     -3.2014   4.8356  13.7349   H         1 RES1   0.0000
   101 C37     -1.6998   2.6726  10.7212   C.3       1 RES1   0.0000
   102 C38      9.0449   3.0937  11.9897   C.3       1 RES1   0.0000
   103 H53      9.5741   3.8598  11.6846   H         1 RES1   0.0000
   104 H54      9.5799   2.2757  11.9113   H         1 RES1   0.0000
   105 H55      8.7880   3.2254  12.9264   H         1 RES1   0.0000
   106 C39     -1.3023   1.2011  10.8845   C.3       1 RES1   0.0000
   107 H56     -0.3324   1.0919  10.7512   H         1 RES1   0.0000
   108 H57     -1.5103   0.8146  11.7846   H         1 RES1   0.0000
   109 H58     -1.8371   0.7453  10.2511   H         1 RES1   0.0000
   110 C40     -1.8138   2.0677  14.4083   C.ar      1 RES1   0.0000
   111 H59     -0.9313   1.5945  14.2566   H         1 RES1   0.0000
   112 C41     -0.6071   6.2169  14.8283   C.3       1 RES1   0.0000
   113 H60     -0.7678   6.7767  14.0682   H         1 RES1   0.0000
   114 H61     -1.3244   5.8235  14.9683   H         1 RES1   0.0000
   115 H62     -0.2396   6.7074  15.6851   H         1 RES1   0.0000
   116 C42     10.1609   7.0280  10.3962   C.ar      1 RES1   0.0000
   117 H63     10.6024   7.1060   9.6011   H         1 RES1   0.0000
   118 C43     10.1281   6.9397  12.7781   C.ar      1 RES1   0.0000
   119 H64     10.5564   7.0540  13.6015   H         1 RES1   0.0000
   120 C44      5.4463   7.5983  13.4732   C.3       1 RES1   0.0000
   121 H65      5.0202   6.9501  14.0182   H         1 RES1   0.0000
   122 H66      6.4816   7.6433  13.7849   H         1 RES1   0.0000
   123 H67      5.1194   8.5446  13.6349   H         1 RES1   0.0000
   124 C45     10.7609   7.2846  11.5946   C.ar      1 RES1   0.0000
   125 H68     11.4739   7.6953  11.7013   H         1 RES1   0.0000
   126 H69      2.9906   4.6796  12.0347   H         1 RES1   0.0000
@<TRIPOS>BOND
     1     1     2    1
     2     2     7    1
     3     3     1    1
     4     4     1    1
     5     5     3    1
     6     6     1    1
     7     7    20    1
     8     8     2    1
     9     9     3    1
    10    10     2    1
    11    11    34   ar
    12    12     3    1
    13    13     9   un
    14    14    24    1
    15    15     1    1
    16    16     5    1
    17    17    16    1
    18    18    16    1
    19    19    16    1
    20    20    21    1
    21    22    20    1
    22    23    20    1
    23    24     8   un
    24    25     9    1
    25    26    25    1
    26    27    26    1
    27    28    26    1
    28    29    26    1
    29    30    12    1
    30    31     5    1
    31    32    15   ar
    32    33    32    1
    33    34     7    1
    34    35     4    1
    35    36    35    1
    36    37    35    1
    37    38    35    1
    38    39    11   ar
    39    40    39    1
    40    41     4    1
    41    42    41    1
    42    43    41    1
    43    44    41    1
    44    45     6   ar
    45    46    45    1
    46    47    48    1
    47    49    47    1
    48    50    47    1
    49    51    52    1
    50    53    54    1
    51    55    56    1
    52    57    32   ar
    53    58    57    1
    54    59    31   ar
    55    60    59    1
    56    61    25    1
    57    62    61    1
    58    63    61    1
    59    64    61    1
    60    65    30    1
    61    66    65    1
    62    67    65    1
    63    68    65    1
    64    69    70    1
    65    71    51   ar
    66    72    71    1
    67    73    30    1
    68    74    73    1
    69    75    73    1
    70    76    73    1
    71    77    51   ar
    72    78    77    1
    73    79     8    1
    74    80    45   ar
    75    81    80    1
    76    82    79    1
    77    83    82    1
    78    84    82    1
    79    85    82    1
    80    86    13    1
    81    87    88    1
    82    89    87    1
    83    90    87    1
    84    91     4    1
    85    92    91    1
    86    93    91    1
    87    94    91    1
    88    95    79    1
    89    96    95    1
    90    97    95    1
    91    98    95    1
    92    99    14   ar
    93   100    99    1
    94   101    10    1
    95   102    30    1
    96   103   102    1
    97   104   102    1
    98   105   102    1
    99   106   101    1
   100   107   106    1
   101   108   106    1
   102   109   106    1
   103   110    14   ar
   104   111   110    1
   105   112    79    1
   106   113   112    1
   107   114   112    1
   108   115   112    1
   109   116    53   ar
   110   117   116    1
   111   118    69   ar
   112   119   118    1
   113   120    25    1
   114   121   120    1
   115   122   120    1
   116   123   120    1
   117   124   116   ar
   118   125   124    1
   119   126     1    1
   120     6    31   ar
   121    10    24   un
   122    12    13   un
   123    15    34   ar
   124    39    57   ar
   125    47   101    1
   126    53    86   ar
   127    55    59   ar
   128    55    80   ar
   129    69    86   ar
   130    71    99   ar
   131    77   110   ar
   132    87   101    1
   133   118   124   ar
@<TRIPOS>SUBSTRUCTURE
     1 RES1        1 GROUP             0 ****  ****    0  
@<TRIPOS>CRYSIN
   16.4410   17.3318   17.6294   90.0000  109.0040   90.0000   231     1
