@<TRIPOS>MOLECULE
FISVAE
    52    61     2     0     0
SMALL
USER_CHARGES
****
Generated from the CSD

@<TRIPOS>ATOM
     1 Fe1     14.9303   5.3356   3.1515   Fe        1 RES1   1.0000
     2 O1      13.3157   4.3971   2.8327   O.3       1 RES1   0.0000
     3 C1      12.9628   3.5582   1.8654   C.ar      1 RES1   0.0000
     4 C2      11.9597   2.5623   2.1287   C.ar      1 RES1   0.0000
     5 C3      11.5893   1.6898   1.0782   C.ar      1 RES1   0.0000
     6 C4      12.1690   1.7623  -0.1857   C.ar      1 RES1   0.0000
     7 C5      13.1322   2.7063  -0.4684   C.ar      1 RES1   0.0000
     8 C6      13.5694   3.6242   0.5627   C.ar      1 RES1   0.0000
     9 C7      14.6346   4.5433   0.1968   C.2       1 RES1   0.0000
    10 N1      15.2140   5.3378   1.0477   N.2       1 RES1   0.0000
    11 C8      16.3184   6.1941   0.4740   C.3       1 RES1   0.0000
    12 C9      17.0911   6.8349   1.6880   C.3       1 RES1   0.0000
    13 N2      17.0561   5.9180   2.8881   N.2       1 RES1   0.0000
    14 C10     17.8998   4.6656   2.6969   C.3       1 RES1   0.0000
    15 C11     17.4485   3.6653   3.7612   C.3       1 RES1   0.0000
    16 N3      15.9845   3.4239   3.5118   N.2       1 RES1   0.0000
    17 C12     15.2958   2.7690   4.7064   C.3       1 RES1   0.0000
    18 C13     15.2311   3.7920   5.8650   C.3       1 RES1   0.0000
    19 N4      14.7824   5.1094   5.2635   N.2       1 RES1   0.0000
    20 C14     14.2562   5.9938   6.0729   C.2       1 RES1   0.0000
    21 C15     13.8993   7.3404   5.7319   C.ar      1 RES1   0.0000
    22 C16     13.4284   8.1772   6.7796   C.ar      1 RES1   0.0000
    23 C17     13.1236   9.5098   6.5413   C.ar      1 RES1   0.0000
    24 C18     13.2710  10.0705   5.2469   C.ar      1 RES1   0.0000
    25 C19     13.7438   9.2792   4.1798   C.ar      1 RES1   0.0000
    26 C20     14.0362   7.9055   4.4264   C.ar      1 RES1   0.0000
    27 O2      14.4404   7.1542   3.3981   O.3       1 RES1   0.0000
    28 B1       6.5259   5.1917   3.4120   B         2 RES2  -1.0000
    29 C21      7.9242   6.0642   3.4924   C.ar      2 RES2   0.0000
    30 C22      7.9212   7.5017   3.4369   C.ar      2 RES2   0.0000
    31 C23      9.1094   8.2671   3.5035   C.ar      2 RES2   0.0000
    32 C24     10.3449   7.6457   3.6143   C.ar      2 RES2   0.0000
    33 C25     10.4142   6.2341   3.6753   C.ar      2 RES2   0.0000
    34 C26      9.2084   5.4818   3.6060   C.ar      2 RES2   0.0000
    35 C27      5.7164   5.2664   4.8533   C.ar      2 RES2   0.0000
    36 C28      5.8865   6.3207   5.7901   C.ar      2 RES2   0.0000
    37 C29      5.0329   6.4398   6.9321   C.ar      2 RES2   0.0000
    38 C30      4.0218   5.4785   7.1621   C.ar      2 RES2   0.0000
    39 C31      3.8430   4.4134   6.2641   C.ar      2 RES2   0.0000
    40 C32      4.6869   4.3289   5.1416   C.ar      2 RES2   0.0000
    41 C33      5.5177   5.7751   2.2396   C.ar      2 RES2   0.0000
    42 C34      4.0968   5.7243   2.3283   C.ar      2 RES2   0.0000
    43 C35      3.2395   6.2579   1.3387   C.ar      2 RES2   0.0000
    44 C36      3.8154   6.8382   0.1718   C.ar      2 RES2   0.0000
    45 C37      5.2114   6.9031   0.0554   C.ar      2 RES2   0.0000
    46 C38      6.0590   6.3759   1.0422   C.ar      2 RES2   0.0000
    47 C39      6.9772   3.6415   3.0600   C.ar      2 RES2   0.0000
    48 C40      7.2236   3.2432   1.7185   C.ar      2 RES2   0.0000
    49 C41      7.8346   2.0113   1.4302   C.ar      2 RES2   0.0000
    50 C42      8.1941   1.1301   2.4835   C.ar      2 RES2   0.0000
    51 C43      7.9409   1.4754   3.7862   C.ar      2 RES2   0.0000
    52 C44      7.3111   2.7257   4.0883   C.ar      2 RES2   0.0000
@<TRIPOS>BOND
     1     1     2    1
     2     2     3    1
     3     3     4   ar
     4     4     5   ar
     5     5     6   ar
     6     6     7   ar
     7     7     8   ar
     8     8     3   ar
     9     9     8    1
    10    10     1    1
    11    11    10    1
    12    12    11    1
    13    13     1    1
    14    14    13    1
    15    15    14    1
    16    16     1    1
    17    17    16    1
    18    18    17    1
    19    19     1    1
    20    20    19    2
    21    21    20    1
    22    22    21   ar
    23    23    22   ar
    24    24    23   ar
    25    25    24   ar
    26    26    21   ar
    27    27     1    1
    28     9    10    2
    29    12    13    1
    30    15    16    1
    31    18    19    1
    32    25    26   ar
    33    26    27    1
    34    28    29    1
    35    29    30   ar
    36    30    31   ar
    37    31    32   ar
    38    32    33   ar
    39    33    34   ar
    40    34    29   ar
    41    35    28    1
    42    36    35   ar
    43    37    36   ar
    44    38    37   ar
    45    39    38   ar
    46    40    35   ar
    47    41    28    1
    48    42    41   ar
    49    43    42   ar
    50    44    43   ar
    51    45    44   ar
    52    46    41   ar
    53    47    28    1
    54    48    47   ar
    55    49    48   ar
    56    50    49   ar
    57    51    50   ar
    58    52    47   ar
    59    39    40   ar
    60    45    46   ar
    61    51    52   ar
@<TRIPOS>SUBSTRUCTURE
     1 RES1        1 GROUP             0 ****  ****    0  
     2 RES2       28 GROUP             0 ****  ****    0  
@<TRIPOS>CRYSIN
   25.9900   10.8250   28.4180   90.0000  102.7500   90.0000    15     1
