@<TRIPOS>MOLECULE
FISVEM
   146   161     4     0     0
SMALL
USER_CHARGES
****
Generated from the CSD

@<TRIPOS>ATOM
     1 Fe1      2.7227   3.0880   6.7770   Fe        1 RES1   0.0000
     2 P1       4.9179   2.8430   4.4532   P.3       1 RES1   1.0000
     3 N1       2.4955   3.7803   4.9513   N.2       1 RES1   0.0000
     4 N2       4.5555   3.8163   6.8827   N.2       1 RES1   0.0000
     5 N3       3.4032   1.3834   6.0722   N.2       1 RES1   0.0000
     6 C1       3.4899   3.7551   3.9916   C.2       1 RES1   0.0000
     7 C2       3.1496   4.4970   2.8436   C.2       1 RES1   0.0000
     8 C3       1.8531   5.0244   3.1283   C.ar      1 RES1   0.0000
     9 C4       1.0228   5.8894   2.4207   C.ar      1 RES1   0.0000
    10 H1       1.2684   6.2030   1.5577   H         1 RES1   0.0000
    11 C5      -0.1430   6.2735   2.9914   C.ar      1 RES1   0.0000
    12 H2      -0.6981   6.8930   2.5322   H         1 RES1   0.0000
    13 C6      -0.5515   5.7900   4.2275   C.ar      1 RES1   0.0000
    14 H3      -1.3965   6.0542   4.5721   H         1 RES1   0.0000
    15 C7       0.2422   4.9342   4.9675   C.ar      1 RES1   0.0000
    16 H4      -0.0480   4.6073   5.8117   H         1 RES1   0.0000
    17 C8       1.4847   4.5596   4.4444   C.ar      1 RES1   0.0000
    18 C9       3.9250   4.7496   1.6089   C.3       1 RES1   0.0000
    19 H5       4.1873   5.6932   1.5761   H         1 RES1   0.0000
    20 H6       3.3734   4.5362   0.8278   H         1 RES1   0.0000
    21 H7       4.7272   4.1870   1.6064   H         1 RES1   0.0000
    22 C10      5.4972   3.6502   5.8811   C.2       1 RES1   0.0000
    23 C11      6.7304   4.2306   6.2335   C.2       1 RES1   0.0000
    24 C12      6.5243   4.7748   7.5130   C.ar      1 RES1   0.0000
    25 C13      7.3589   5.4693   8.3831   C.ar      1 RES1   0.0000
    26 H8       8.2572   5.6545   8.1338   H         1 RES1   0.0000
    27 C14      6.8891   5.8826   9.5989   C.ar      1 RES1   0.0000
    28 H9       7.4635   6.3455  10.1971   H         1 RES1   0.0000
    29 C15      5.5537   5.6241   9.9676   C.ar      1 RES1   0.0000
    30 H10      5.2306   5.9317  10.8063   H         1 RES1   0.0000
    31 C16      4.7027   4.9212   9.1178   C.ar      1 RES1   0.0000
    32 H11      3.8090   4.7342   9.3782   H         1 RES1   0.0000
    33 C17      5.1675   4.5089   7.9115   C.ar      1 RES1   0.0000
    34 C18      7.9987   4.2689   5.4595   C.3       1 RES1   0.0000
    35 H12      7.9076   4.8996   4.7145   H         1 RES1   0.0000
    36 H13      8.1950   3.3753   5.1084   H         1 RES1   0.0000
    37 H14      8.7302   4.5581   6.0441   H         1 RES1   0.0000
    38 C19      4.3228   1.2773   5.0421   C.2       1 RES1   0.0000
    39 C20      4.6620  -0.0218   4.7290   C.2       1 RES1   0.0000
    40 C21      3.9217  -0.8044   5.6588   C.ar      1 RES1   0.0000
    41 C22      3.8870  -2.1693   5.9014   C.ar      1 RES1   0.0000
    42 H15      4.4014  -2.7625   5.3671   H         1 RES1   0.0000
    43 C23      3.0963  -2.6647   6.9315   C.ar      1 RES1   0.0000
    44 H16      3.0827  -3.5970   7.1127   H         1 RES1   0.0000
    45 C24      2.3133  -1.7858   7.7081   C.ar      1 RES1   0.0000
    46 H17      1.7833  -2.1350   8.4152   H         1 RES1   0.0000
    47 C25      2.3024  -0.4145   7.4601   C.ar      1 RES1   0.0000
    48 H18      1.7420   0.1673   7.9586   H         1 RES1   0.0000
    49 C26      3.1452   0.0819   6.4517   C.ar      1 RES1   0.0000
    50 C27      5.5886  -0.5557   3.6813   C.3       1 RES1   0.0000
    51 H19      5.3030  -0.2354   2.7993   H         1 RES1   0.0000
    52 H20      5.5685  -1.5348   3.6948   H         1 RES1   0.0000
    53 H21      6.5000  -0.2442   3.8614   H         1 RES1   0.0000
    54 C28      6.1326   2.6920   3.1730   C.3       1 RES1   0.0000
    55 H22      5.7381   2.2360   2.4008   H         1 RES1   0.0000
    56 H23      6.8943   2.1730   3.5054   H         1 RES1   0.0000
    57 H24      6.4371   3.5843   2.9053   H         1 RES1   0.0000
    58 P1A      0.5274   3.3331   9.1008   P.3       1 RES1   1.0000
    59 N1A      2.9498   2.3958   8.6027   N.2       1 RES1   0.0000
    60 N2A      0.8899   2.3597   6.6713   N.2       1 RES1  -1.0000
    61 N3A      2.0421   4.7927   7.4818   N.2       1 RES1  -1.0000
    62 C1A      1.9554   2.4210   9.5623   C.2       1 RES1   0.0000
    63 C2A      2.2957   1.6791  10.7104   C.2       1 RES1   0.0000
    64 C3A      3.5923   1.1517  10.4257   C.ar      1 RES1   0.0000
    65 C4A      4.4226   0.2867  11.1332   C.ar      1 RES1   0.0000
    66 H1A      4.1770  -0.0269  11.9963   H         1 RES1   0.0000
    67 C5A      5.5884  -0.0974  10.5626   C.ar      1 RES1   0.0000
    68 H2A      6.1434  -0.7169  11.0218   H         1 RES1   0.0000
    69 C6A      5.9969   0.3861   9.3265   C.ar      1 RES1   0.0000
    70 H3A      6.8418   0.1219   8.9819   H         1 RES1   0.0000
    71 C7A      5.2031   1.2419   8.5864   C.ar      1 RES1   0.0000
    72 H4A      5.4933   1.5688   7.7423   H         1 RES1   0.0000
    73 C8A      3.9607   1.6165   9.1096   C.ar      1 RES1   0.0000
    74 C9A      1.5204   1.4265  11.9451   C.3       1 RES1   0.0000
    75 H5A      1.2581   0.4829  11.9779   H         1 RES1   0.0000
    76 H6A      2.0720   1.6399  12.7262   H         1 RES1   0.0000
    77 H7A      0.7181   1.9891  11.9476   H         1 RES1   0.0000
    78 C10A    -0.0518   2.5259   7.6729   C.2       1 RES1   0.0000
    79 C11A    -1.2851   1.9455   7.3205   C.2       1 RES1   0.0000
    80 C12A    -1.0789   1.4013   6.0410   C.ar      1 RES1   0.0000
    81 C13A    -1.9135   0.7068   5.1708   C.ar      1 RES1   0.0000
    82 H8A     -2.8118   0.5215   5.4202   H         1 RES1   0.0000
    83 C14A    -1.4437   0.2935   3.9551   C.ar      1 RES1   0.0000
    84 H9A     -2.0181  -0.1694   3.3569   H         1 RES1   0.0000
    85 C15A    -0.1083   0.5520   3.5864   C.ar      1 RES1   0.0000
    86 H10A     0.2148   0.2444   2.7477   H         1 RES1   0.0000
    87 C16A     0.7426   1.2549   4.4362   C.ar      1 RES1   0.0000
    88 H11A     1.6363   1.4419   4.1757   H         1 RES1   0.0000
    89 C17A     0.2779   1.6672   5.6425   C.ar      1 RES1   0.0000
    90 C18A    -2.5534   1.9072   8.0944   C.3       1 RES1   0.0000
    91 H12A    -2.4623   1.2765   8.8395   H         1 RES1   0.0000
    92 H13A    -2.7496   2.8008   8.4456   H         1 RES1   0.0000
    93 H14A    -3.2848   1.6179   7.5098   H         1 RES1   0.0000
    94 C19A     1.1226   4.8988   8.5119   C.2       1 RES1   0.0000
    95 C20A     0.7833   6.1979   8.8250   C.2       1 RES1   0.0000
    96 C21A     1.5237   6.9805   7.8952   C.ar      1 RES1   0.0000
    97 C22A     1.5584   8.3454   7.6526   C.ar      1 RES1   0.0000
    98 H15A     1.0439   8.9386   8.1869   H         1 RES1   0.0000
    99 C23A     2.3491   8.8408   6.6225   C.ar      1 RES1   0.0000
   100 H16A     2.3626   9.7731   6.4413   H         1 RES1   0.0000
   101 C24A     3.1321   7.9619   5.8458   C.ar      1 RES1   0.0000
   102 H17A     3.6620   8.3110   5.1387   H         1 RES1   0.0000
   103 C25A     3.1429   6.5906   6.0939   C.ar      1 RES1   0.0000
   104 H18A     3.7034   6.0088   5.5954   H         1 RES1   0.0000
   105 C26A     2.3002   6.0941   7.1023   C.ar      1 RES1   0.0000
   106 C27A    -0.1432   6.7318   9.8727   C.3       1 RES1   0.0000
   107 H19A     0.1424   6.4115  10.7547   H         1 RES1   0.0000
   108 H20A    -0.1232   7.7109   9.8592   H         1 RES1   0.0000
   109 H21A    -1.0546   6.4203   9.6926   H         1 RES1   0.0000
   110 C28A    -0.6872   3.4841  10.3810   C.3       1 RES1   0.0000
   111 H22A    -0.2927   3.9401  11.1532   H         1 RES1   0.0000
   112 H23A    -1.4490   4.0031  10.0486   H         1 RES1   0.0000
   113 H24A    -0.9918   2.5918  10.6487   H         1 RES1   0.0000
   114 N4       7.4545   3.0719  -0.1017   N.ar      2 RES2   0.0000
   115 C29      8.1292   1.9581   0.1233   C.ar      2 RES2   0.0000
   116 H25      7.8580   1.1692  -0.3321   H         2 RES2   0.0000
   117 C30      9.1931   1.8768   0.9732   C.ar      2 RES2   0.0000
   118 H26      9.6302   1.0442   1.1098   H         2 RES2   0.0000
   119 C31      9.6275   2.9840   1.6211   C.ar      2 RES2   0.0000
   120 H27     10.3800   2.9484   2.1994   H         2 RES2   0.0000
   121 C32      8.9603   4.1398   1.4205   C.ar      2 RES2   0.0000
   122 H28      9.2280   4.9311   1.8734   H         2 RES2   0.0000
   123 C33      7.8882   4.1683   0.5544   C.ar      2 RES2   0.0000
   124 H29      7.4373   4.9918   0.4149   H         2 RES2   0.0000
   125 N5       2.5526   9.7003  -0.6804   N.ar      3 RES3   0.0000
   126 C34      2.3049   9.3013   0.5394   C.ar      3 RES3   0.0000
   127 H30      1.3997   9.3038   0.8272   H         3 RES3   0.0000
   128 C35      3.2271   8.8888   1.4137   C.ar      3 RES3   0.0000
   129 H31      2.9789   8.6471   2.2982   H         3 RES3   0.0000
   130 C36      4.5288   8.8194   1.0206   C.ar      3 RES3   0.0000
   131 H32      5.2061   8.5238   1.6175   H         3 RES3   0.0000
   132 C37      4.8230   9.1778  -0.2250   C.ar      3 RES3   0.0000
   133 H33      5.7206   9.1337  -0.5325   H         3 RES3   0.0000
   134 C38      3.8258   9.6111  -1.0681   C.ar      3 RES3   0.0000
   135 H34      4.0528   9.8554  -1.9580   H         3 RES3   0.0000
   136 N6      -1.3448  -0.4247  10.9286   N.ar      4 RES4   0.0000
   137 C39     -0.7629  -0.6137   9.7480   C.ar      4 RES4   0.0000
   138 H35     -0.0449  -0.0319   9.5279   H         4 RES4   0.0000
   139 C40     -1.0889  -1.5444   8.8358   C.ar      4 RES4   0.0000
   140 H36     -0.6383  -1.5982   8.0014   H         4 RES4   0.0000
   141 C41     -2.1093  -2.4251   9.1638   C.ar      4 RES4   0.0000
   142 H37     -2.3724  -3.1095   8.5604   H         4 RES4   0.0000
   143 C42     -2.7227  -2.2868  10.3620   C.ar      4 RES4   0.0000
   144 H38     -3.4181  -2.8815  10.6193   H         4 RES4   0.0000
   145 C43     -2.3280  -1.2822  11.1956   C.ar      4 RES4   0.0000
   146 H39     -2.7844  -1.1881  12.0228   H         4 RES4   0.0000
@<TRIPOS>BOND
     1     1     3    1
     2     2     6    1
     3     3     6    1
     4     4     1    1
     5     5     1    1
     6     6     7    2
     7     7     8    1
     8     8     9   ar
     9     9    10    1
    10    11     9   ar
    11    12    11    1
    12    13    11   ar
    13    14    13    1
    14    15    13   ar
    15    16    15    1
    16    17     3    1
    17    18     7    1
    18    19    18    1
    19    20    18    1
    20    21    18    1
    21    22     2    1
    22    23    22    2
    23    24    23    1
    24    25    24   ar
    25    26    25    1
    26    27    25   ar
    27    28    27    1
    28    29    27   ar
    29    30    29    1
    30    31    29   ar
    31    32    31    1
    32    33     4    1
    33    34    23    1
    34    35    34    1
    35    36    34    1
    36    37    34    1
    37    38     2    1
    38    39    38    2
    39    40    39    1
    40    41    40   ar
    41    42    41    1
    42    43    41   ar
    43    44    43    1
    44    45    43   ar
    45    46    45    1
    46    47    45   ar
    47    48    47    1
    48    49     5    1
    49    50    39    1
    50    51    50    1
    51    52    50    1
    52    53    50    1
    53    54     2    1
    54    55    54    1
    55    56    54    1
    56    57    54    1
    57    58    62    1
    58    59     1    1
    59    60     1    1
    60    61     1    1
    61    62    59    1
    62    63    62    2
    63    64    63    1
    64    65    64   ar
    65    66    65    1
    66    67    65   ar
    67    68    67    1
    68    69    67   ar
    69    70    69    1
    70    71    69   ar
    71    72    71    1
    72    73    59    1
    73    74    63    1
    74    75    74    1
    75    76    74    1
    76    77    74    1
    77    78    58    1
    78    79    78    2
    79    80    79    1
    80    81    80   ar
    81    82    81    1
    82    83    81   ar
    83    84    83    1
    84    85    83   ar
    85    86    85    1
    86    87    85   ar
    87    88    87    1
    88    89    60    1
    89    90    79    1
    90    91    90    1
    91    92    90    1
    92    93    90    1
    93    94    58    1
    94    95    94    2
    95    96    95    1
    96    97    96   ar
    97    98    97    1
    98    99    97   ar
    99   100    99    1
   100   101    99   ar
   101   102   101    1
   102   103   101   ar
   103   104   103    1
   104   105    61    1
   105   106    95    1
   106   107   106    1
   107   108   106    1
   108   109   106    1
   109   110    58    1
   110   111   110    1
   111   112   110    1
   112   113   110    1
   113     4    22    1
   114     5    38    1
   115     8    17   ar
   116    15    17   ar
   117    24    33   ar
   118    31    33   ar
   119    40    49   ar
   120    47    49   ar
   121    60    78    1
   122    61    94    1
   123    64    73   ar
   124    71    73   ar
   125    80    89   ar
   126    87    89   ar
   127    96   105   ar
   128   103   105   ar
   129   114   115   ar
   130   115   116    1
   131   117   115   ar
   132   118   117    1
   133   119   117   ar
   134   120   119    1
   135   121   119   ar
   136   122   121    1
   137   123   114   ar
   138   124   123    1
   139   121   123   ar
   140   125   126   ar
   141   126   127    1
   142   128   126   ar
   143   129   128    1
   144   130   128   ar
   145   131   130    1
   146   132   130   ar
   147   133   132    1
   148   134   125   ar
   149   135   134    1
   150   132   134   ar
   151   136   137   ar
   152   137   138    1
   153   139   137   ar
   154   140   139    1
   155   141   139   ar
   156   142   141    1
   157   143   141   ar
   158   144   143    1
   159   145   136   ar
   160   146   145    1
   161   143   145   ar
@<TRIPOS>SUBSTRUCTURE
     1 RES1        1 GROUP             0 ****  ****    0  
     2 RES2      114 GROUP             0 ****  ****    0  
     3 RES3      125 GROUP             0 ****  ****    0  
     4 RES4      136 GROUP             0 ****  ****    0  
@<TRIPOS>CRYSIN
   11.5781   12.1341   14.4610  106.0270   94.6780  114.0930     2     1
