@<TRIPOS>MOLECULE
FITFOD
    97   110     1     0     0
SMALL
NO_CHARGES
****
Generated from the CSD

@<TRIPOS>ATOM
     1 Fe1      9.1916   0.5837  14.4662   Fe        1 RES1   0.0000
     2 N1      10.3437  -1.0112  14.6374   N.2       1 RES1   0.0000
     3 N2       7.9241  -0.2064  15.7851   N.2       1 RES1   0.0000
     4 N3       7.9984   2.1584  14.2201   N.2       1 RES1   0.0000
     5 N4      10.4788   1.3984  13.1864   N.2       1 RES1   0.0000
     6 N5       8.2062  -0.2928  13.0029   N.ar      1 RES1   0.0000
     7 N6       6.5511  -1.3584  10.9935   N.ar      1 RES1   0.0000
     8 N7      10.1609   1.4896  15.9744   N.ar      1 RES1   0.0000
     9 N8      11.4973   2.7296  18.1325   N.ar      1 RES1   0.0000
    10 C1      11.5064  -1.2720  13.9264   C.2       1 RES1   0.0000
    11 C2      12.0025  -2.5936  14.2607   C.2       1 RES1   0.0000
    12 C3      11.1626  -3.0976  15.2016   C.2       1 RES1   0.0000
    13 C4      10.1562  -2.1104  15.4392   C.2       1 RES1   0.0000
    14 C5       9.1396  -2.2528  16.3859   C.2       1 RES1   0.0000
    15 C6       8.0836  -1.3600  16.5212   C.2       1 RES1   0.0000
    16 C7       6.9445  -1.5680  17.3771   C.2       1 RES1   0.0000
    17 C8       6.0858  -0.5712  17.1298   C.2       1 RES1   0.0000
    18 C9       6.6961   0.2864  16.1522   C.2       1 RES1   0.0000
    19 C10      6.0976   1.4528  15.6479   C.2       1 RES1   0.0000
    20 C11      6.7338   2.3232  14.7746   C.2       1 RES1   0.0000
    21 C12      6.1605   3.5584  14.3379   C.2       1 RES1   0.0000
    22 C13      7.0641   4.1360  13.5052   C.2       1 RES1   0.0000
    23 C14      8.1839   3.2608  13.4318   C.2       1 RES1   0.0000
    24 C15      9.2975   3.4880  12.6338   C.2       1 RES1   0.0000
    25 C16     10.3795   2.6304  12.5527   C.2       1 RES1   0.0000
    26 C17     11.5498   2.8576  11.7509   C.2       1 RES1   0.0000
    27 C18     12.3406   1.7824  11.8939   C.2       1 RES1   0.0000
    28 C19     11.6644   0.8688  12.7536   C.2       1 RES1   0.0000
    29 C20     12.1546  -0.3952  13.0744   C.2       1 RES1   0.0000
    30 C21      9.1912  -3.4544  17.2902   C.ar      1 RES1   0.0000
    31 C22     10.1394  -3.5360  18.2774   C.ar      1 RES1   0.0000
    32 C23     10.1772  -4.6304  19.1449   C.ar      1 RES1   0.0000
    33 C24      9.2710  -5.6368  19.0194   C.ar      1 RES1   0.0000
    34 C25      8.3163  -5.5808  18.0301   C.ar      1 RES1   0.0000
    35 C26      8.2768  -4.4880  17.1704   C.ar      1 RES1   0.0000
    36 C27      4.7100   1.7984  16.0459   C.ar      1 RES1   0.0000
    37 C28      3.6993   1.7104  15.1417   C.ar      1 RES1   0.0000
    38 C29      2.4166   2.1584  15.4508   C.ar      1 RES1   0.0000
    39 C30      2.1647   2.6736  16.7047   C.ar      1 RES1   0.0000
    40 C31      3.1575   2.7456  17.6225   C.ar      1 RES1   0.0000
    41 C32      4.4302   2.3040  17.3037   C.ar      1 RES1   0.0000
    42 C33      9.2841   4.7232  11.7528   C.ar      1 RES1   0.0000
    43 C34      8.5598   4.7520  10.6168   C.ar      1 RES1   0.0000
    44 C35      8.4882   5.8912   9.8149   C.ar      1 RES1   0.0000
    45 C36      9.1313   7.0016  10.1782   C.ar      1 RES1   0.0000
    46 C37      9.8644   6.9904  11.2969   C.ar      1 RES1   0.0000
    47 C38      9.9752   5.8368  12.0813   C.ar      1 RES1   0.0000
    48 C39     13.4770  -0.7936  12.4986   C.ar      1 RES1   0.0000
    49 C40     14.5803  -0.9104  13.3217   C.ar      1 RES1   0.0000
    50 C41     15.8296  -1.2736  12.7826   C.ar      1 RES1   0.0000
    51 C42     15.9606  -1.4640  11.4302   C.ar      1 RES1   0.0000
    52 C43     14.8713  -1.3376  10.6168   C.ar      1 RES1   0.0000
    53 C44     13.6388  -1.0240  11.1365   C.ar      1 RES1   0.0000
    54 C45      7.9657   0.3472  11.8494   C.ar      1 RES1   0.0000
    55 C46      7.1598  -0.1792  10.8815   C.ar      1 RES1   0.0000
    56 C47      6.8286  -2.0096  12.1180   C.ar      1 RES1   0.0000
    57 C48      7.6307  -1.4912  13.1072   C.ar      1 RES1   0.0000
    58 C49      9.9938   2.7120  16.3338   C.ar      1 RES1   0.0000
    59 C50     10.6662   3.3008  17.3597   C.ar      1 RES1   0.0000
    60 C51     11.6593   1.4928  17.7944   C.ar      1 RES1   0.0000
    61 C52     11.0095   0.8928  16.7646   C.ar      1 RES1   0.0000
    62 H1      12.7632  -3.0523  13.8547   H         1 RES1   0.0000
    63 H2      11.2539  -3.9599  15.6442   H         1 RES1   0.0000
    64 H3       6.8317  -2.2843  18.0228   H         1 RES1   0.0000
    65 H4       5.2154  -0.4357  17.5465   H         1 RES1   0.0000
    66 H5       5.2966   3.9367  14.6036   H         1 RES1   0.0000
    67 H6       6.9475   4.9824  13.0351   H         1 RES1   0.0000
    68 H7      11.7235   3.6399  11.1968   H         1 RES1   0.0000
    69 H8      13.1995   1.6326  11.4726   H         1 RES1   0.0000
    70 H9      10.7910  -2.8225  18.3604   H         1 RES1   0.0000
    71 H10     10.8553  -4.6508  19.8399   H         1 RES1   0.0000
    72 H11      9.3133  -6.3730  19.6546   H         1 RES1   0.0000
    73 H12      7.6412  -6.3090  17.9544   H         1 RES1   0.0000
    74 H13      7.6161  -4.4670  16.4553   H         1 RES1   0.0000
    75 H14      3.8898   1.3264  14.2529   H         1 RES1   0.0000
    76 H15      1.6724   2.0920  14.7947   H         1 RES1   0.0000
    77 H16      1.2825   2.9922  16.9333   H         1 RES1   0.0000
    78 H17      2.9638   3.1082  18.5469   H         1 RES1   0.0000
    79 H18      5.1558   2.3398  17.9721   H         1 RES1   0.0000
    80 H19      8.0880   3.9159  10.3229   H         1 RES1   0.0000
    81 H20      7.9996   5.9291   8.9507   H         1 RES1   0.0000
    82 H21      9.0272   7.8385   9.6808   H         1 RES1   0.0000
    83 H22     10.4199   7.8258  11.5229   H         1 RES1   0.0000
    84 H23     10.5793   5.7964  12.8974   H         1 RES1   0.0000
    85 H24     14.4918  -0.7467  14.2781   H         1 RES1   0.0000
    86 H25     16.6041  -1.3717  13.3589   H         1 RES1   0.0000
    87 H26     16.8323  -1.6698  11.0460   H         1 RES1   0.0000
    88 H27     14.9595  -1.4878   9.6423   H         1 RES1   0.0000
    89 H28     12.8658  -0.9594  10.5425   H         1 RES1   0.0000
    90 H29      8.3998   1.2100  11.6975   H         1 RES1   0.0000
    91 H30      7.0081   0.3384  10.0517   H         1 RES1   0.0000
    92 H31      6.3931  -2.8719  12.2519   H         1 RES1   0.0000
    93 H32      7.7864  -2.0112  13.9172   H         1 RES1   0.0000
    94 H33      9.3185   3.2331  15.8485   H         1 RES1   0.0000
    95 H34     10.4883   4.2540  17.5506   H         1 RES1   0.0000
    96 H35     12.2701   0.9554  18.3754   H         1 RES1   0.0000
    97 H36     11.2705  -0.0358  16.5235   H         1 RES1   0.0000
@<TRIPOS>BOND
     1     1     2    1
     2     2    10    2
     3     3     1    1
     4     4     1    1
     5     5     1    1
     6     6     1    1
     7     7    55   ar
     8     8     1    1
     9     9    59   ar
    10    10    11    1
    11    11    12    2
    12    12    13    1
    13    13     2    1
    14    14    13    2
    15    15     3    1
    16    16    15    2
    17    17    16    1
    18    18     3    1
    19    19    18    1
    20    20     4    1
    21    21    20    1
    22    22    21    2
    23    23     4    2
    24    24    23    1
    25    25     5    1
    26    26    25    1
    27    27    26    2
    28    28     5    1
    29    29    10    1
    30    30    14    1
    31    31    30   ar
    32    32    31   ar
    33    33    32   ar
    34    34    33   ar
    35    35    30   ar
    36    36    19    1
    37    37    36   ar
    38    38    37   ar
    39    39    38   ar
    40    40    39   ar
    41    41    36   ar
    42    42    24    1
    43    43    42   ar
    44    44    43   ar
    45    45    44   ar
    46    46    45   ar
    47    47    42   ar
    48    48    29    1
    49    49    48   ar
    50    50    49   ar
    51    51    50   ar
    52    52    51   ar
    53    53    48   ar
    54    54     6   ar
    55    55    54   ar
    56    56     7   ar
    57    57     6   ar
    58    58     8   ar
    59    59    58   ar
    60    60     9   ar
    61    61     8   ar
    62    62    11    1
    63    63    12    1
    64    64    16    1
    65    65    17    1
    66    66    21    1
    67    67    22    1
    68    68    26    1
    69    69    27    1
    70    70    31    1
    71    71    32    1
    72    72    33    1
    73    73    34    1
    74    74    35    1
    75    75    37    1
    76    76    38    1
    77    77    39    1
    78    78    40    1
    79    79    41    1
    80    80    43    1
    81    81    44    1
    82    82    45    1
    83    83    46    1
    84    84    47    1
    85    85    49    1
    86    86    50    1
    87    87    51    1
    88    88    52    1
    89    89    53    1
    90    90    54    1
    91    91    55    1
    92    92    56    1
    93    93    57    1
    94    94    58    1
    95    95    59    1
    96    96    60    1
    97    97    61    1
    98    14    15    1
    99    17    18    2
   100    19    20    2
   101    22    23    1
   102    24    25    2
   103    27    28    1
   104    28    29    2
   105    34    35   ar
   106    40    41   ar
   107    46    47   ar
   108    52    53   ar
   109    56    57   ar
   110    60    61   ar
@<TRIPOS>SUBSTRUCTURE
     1 RES1        1 GROUP             0 ****  ****    0  
@<TRIPOS>CRYSIN
   13.1570   16.0000   19.3500   90.0000   93.1500   90.0000    14     1
