@<TRIPOS>MOLECULE
FIWPAD02
   113   123     4     0     0
SMALL
USER_CHARGES
****
Generated from the CSD

@<TRIPOS>ATOM
     1 C1       7.5492   4.7534   1.7599   C.2       1 RES1   0.0000
     2 C2       6.3322   5.4231   1.5712   C.1       1 RES1   0.0000
     3 C3       7.5302   3.6343   2.5841   C.1       1 RES1   0.0000
     4 C4       8.7762   5.2422   1.1806   C.2       1 RES1   0.0000
     5 C5       9.9978   4.5727   1.3481   C.2       1 RES1   0.0000
     6 H1      10.0189   3.7644   1.8460   H         1 RES1   0.0000
     7 C6      11.1696   5.0607   0.8065   C.2       1 RES1   0.0000
     8 H2      11.9848   4.5935   0.9462   H         1 RES1   0.0000
     9 C7      11.1631   6.2315   0.0572   C.2       1 RES1  -1.0000
    10 C8       9.9594   6.8898  -0.1485   C.2       1 RES1   0.0000
    11 H3       9.9372   7.6736  -0.6858   H         1 RES1   0.0000
    12 C9       8.7973   6.4172   0.4179   C.2       1 RES1   0.0000
    13 H4       7.9895   6.8991   0.2888   H         1 RES1   0.0000
    14 C10     12.4545   6.8261  -0.4891   C.2       1 RES1   0.0000
    15 N1       7.5237   2.7165   3.2808   N.1       1 RES1   0.0000
    16 N2       5.3433   5.9902   1.4113   N.1       1 RES1   0.0000
    17 N3      14.3040   5.0010  -0.7642   N.1       1 RES1   0.0000
    18 N4      12.0236   8.0444  -2.7584   N.1       1 RES1   0.0000
    19 C11     12.2199   7.4884  -1.7872   C.1       1 RES1   0.0000
    20 C12     13.4936   5.7871  -0.6755   C.1       1 RES1   0.0000
    21 C13     -0.2641   2.9439   4.1945   C.ar      2 RES2   0.0000
    22 C14     -2.1520   2.5335   5.4573   C.ar      2 RES2   0.0000
    23 H5      -2.6900   2.7061   6.2212   H         2 RES2   0.0000
    24 C15     -2.5859   1.5782   4.5353   C.ar      2 RES2   0.0000
    25 H6      -3.3997   1.1099   4.6820   H         2 RES2   0.0000
    26 C16     -1.8323   1.3188   3.4184   C.ar      2 RES2   0.0000
    27 H7      -2.1220   0.6754   2.7819   H         2 RES2   0.0000
    28 C17     -0.6334   2.0102   3.2271   C.ar      2 RES2   0.0000
    29 C18      0.9458   3.6770   4.0733   C.ar      2 RES2   0.0000
    30 C19      2.3760   5.1974   5.0267   C.ar      2 RES2   0.0000
    31 H8       2.6064   5.7833   5.7365   H         2 RES2   0.0000
    32 C20      3.2578   5.0750   3.9395   C.ar      2 RES2   0.0000
    33 H9       4.0690   5.5690   3.9318   H         2 RES2   0.0000
    34 C21      2.9534   4.2539   2.9010   C.ar      2 RES2   0.0000
    35 H10      3.5331   4.1915   2.1502   H         2 RES2   0.0000
    36 C22      1.7688   3.4985   2.9515   C.ar      2 RES2   0.0000
    37 C23      1.3662   2.5631   1.9589   C.ar      2 RES2   0.0000
    38 H11      1.9092   2.4372   1.1911   H         2 RES2   0.0000
    39 C24      0.2556   7.3013   6.9970   C.ar      2 RES2   0.0000
    40 C25      1.4879   6.0488   8.4704   C.ar      2 RES2   0.0000
    41 H12      1.7768   5.2054   8.7994   H         2 RES2   0.0000
    42 C26      1.9583   7.1994   9.0820   C.ar      2 RES2   0.0000
    43 H13      2.5512   7.1326   9.8204   H         2 RES2   0.0000
    44 C27      1.5775   8.4213   8.6308   C.ar      2 RES2   0.0000
    45 H14      1.9032   9.2106   9.0469   H         2 RES2   0.0000
    46 C28      0.6954   8.5029   7.5376   C.ar      2 RES2   0.0000
    47 C29      0.2263   9.7127   6.9668   C.ar      2 RES2   0.0000
    48 H15      0.5205  10.5408   7.3273   H         2 RES2   0.0000
    49 C30      0.2247   1.8483   2.0865   C.ar      2 RES2   0.0000
    50 H16     -0.0135   1.2267   1.4077   H         2 RES2   0.0000
    51 N5      -1.0148   3.2123   5.3103   N.ar      2 RES2   0.0000
    52 N6       1.2326   4.5255   5.0992   N.ar      2 RES2   0.0000
    53 N7       0.6437   6.0780   7.4366   N.ar      2 RES2   0.0000
    54 Fe1     -0.2021   4.5978   6.4455   Fe        2 RES2   2.0000
    55 C24A    -0.6598   7.3013   5.8940   C.ar      2 RES2   0.0000
    56 C25A    -1.8921   6.0488   4.4206   C.ar      2 RES2   0.0000
    57 H12A    -2.1810   5.2054   4.0916   H         2 RES2   0.0000
    58 C26A    -2.3626   7.1994   3.8090   C.ar      2 RES2   0.0000
    59 H13A    -2.9555   7.1326   3.0706   H         2 RES2   0.0000
    60 C27A    -1.9818   8.4213   4.2602   C.ar      2 RES2   0.0000
    61 H14A    -2.3074   9.2106   3.8441   H         2 RES2   0.0000
    62 C28A    -1.0996   8.5029   5.3534   C.ar      2 RES2   0.0000
    63 C29A    -0.6306   9.7127   5.9242   C.ar      2 RES2   0.0000
    64 H15A    -0.9247  10.5408   5.5638   H         2 RES2   0.0000
    65 N7A     -1.0480   6.0780   5.4544   N.ar      2 RES2   0.0000
    66 C13A    -0.1401   2.9439   8.6965   C.ar      2 RES2   0.0000
    67 C14A     1.7478   2.5335   7.4337   C.ar      2 RES2   0.0000
    68 H5A      2.2858   2.7061   6.6698   H         2 RES2   0.0000
    69 C15A     2.1817   1.5782   8.3557   C.ar      2 RES2   0.0000
    70 H6A      2.9954   1.1099   8.2090   H         2 RES2   0.0000
    71 C16A     1.4281   1.3188   9.4726   C.ar      2 RES2   0.0000
    72 H7A      1.7178   0.6754  10.1091   H         2 RES2   0.0000
    73 C17A     0.2292   2.0102   9.6639   C.ar      2 RES2   0.0000
    74 C18A    -1.3500   3.6770   8.8177   C.ar      2 RES2   0.0000
    75 C19A    -2.7802   5.1974   7.8643   C.ar      2 RES2   0.0000
    76 H8A     -3.0107   5.7833   7.1545   H         2 RES2   0.0000
    77 C20A    -3.6620   5.0750   8.9515   C.ar      2 RES2   0.0000
    78 H9A     -4.4732   5.5690   8.9593   H         2 RES2   0.0000
    79 C21A    -3.3576   4.2539   9.9900   C.ar      2 RES2   0.0000
    80 H10A    -3.9373   4.1915  10.7408   H         2 RES2   0.0000
    81 C22A    -2.1730   3.4985   9.9395   C.ar      2 RES2   0.0000
    82 C23A    -1.7705   2.5631  10.9321   C.ar      2 RES2   0.0000
    83 H11A    -2.3135   2.4372  11.6999   H         2 RES2   0.0000
    84 C30A    -0.6289   1.8483  10.8045   C.ar      2 RES2   0.0000
    85 H16A    -0.3908   1.2267  11.4833   H         2 RES2   0.0000
    86 N5A      0.6106   3.2123   7.5807   N.ar      2 RES2   0.0000
    87 N6A     -1.6368   4.5255   7.7918   N.ar      2 RES2   0.0000
    88 O1       4.4788   5.1921   7.4105   O.3       3 RES3   0.0000
    89 H17      4.8451   4.5004   7.7140   H         3 RES3   0.0000
    90 C31      5.1875   6.3567   7.8816   C.3       3 RES3   0.0000
    91 H18      4.9019   6.5666   8.7942   H         3 RES3   0.0000
    92 H19      4.9912   7.1164   7.2937   H         3 RES3   0.0000
    93 H20      6.1501   6.1764   7.8738   H         3 RES3   0.0000
    94 C1D     18.0134  10.0262  -1.7599   C.2       4 RES4   0.0000
    95 C2D     19.2304   9.3565  -1.5712   C.1       4 RES4   0.0000
    96 C3D     18.0324  11.1453  -2.5841   C.1       4 RES4   0.0000
    97 C4D     16.7864   9.5374  -1.1806   C.2       4 RES4   0.0000
    98 C5D     15.5648  10.2069  -1.3481   C.2       4 RES4   0.0000
    99 H1D     15.5437  11.0152  -1.8460   H         4 RES4   0.0000
   100 C6D     14.3930   9.7189  -0.8065   C.2       4 RES4   0.0000
   101 H2D     13.5778  10.1861  -0.9462   H         4 RES4   0.0000
   102 C7D     14.3995   8.5481  -0.0572   C.2       4 RES4  -1.0000
   103 C8D     15.6032   7.8898   0.1485   C.2       4 RES4   0.0000
   104 H3D     15.6254   7.1060   0.6858   H         4 RES4   0.0000
   105 C9D     16.7653   8.3624  -0.4179   C.2       4 RES4   0.0000
   106 H4D     17.5731   7.8805  -0.2888   H         4 RES4   0.0000
   107 C10D    13.1081   7.9535   0.4891   C.2       4 RES4   0.0000
   108 N1D     18.0389  12.0631  -3.2808   N.1       4 RES4   0.0000
   109 N2D     20.2193   8.7894  -1.4113   N.1       4 RES4   0.0000
   110 N3D     11.2586   9.7786   0.7642   N.1       4 RES4   0.0000
   111 N4D     13.5390   6.7352   2.7584   N.1       4 RES4   0.0000
   112 C11D    13.3427   7.2912   1.7872   C.1       4 RES4   0.0000
   113 C12D    12.0690   8.9925   0.6755   C.1       4 RES4   0.0000
@<TRIPOS>BOND
     1     1     2    1
     2     2    16    3
     3     3     1    1
     4     4     1    2
     5     5     4    1
     6     6     5    1
     7     7     5    2
     8     8     7    1
     9     9     7    1
    10    10     9    1
    11    11    10    1
    12    12     4    1
    13    13    12    1
    14    14     9    2
    15    15     3    3
    16    17    20    3
    17    18    19    3
    18    19    14    1
    19    20    14    1
    20    10    12    2
    21    21    28   ar
    22    22    23    1
    23    24    22   ar
    24    25    24    1
    25    26    24   ar
    26    27    26    1
    27    28    26   ar
    28    29    21   ar
    29    30    31    1
    30    32    30   ar
    31    33    32    1
    32    34    32   ar
    33    35    34    1
    34    36    29   ar
    35    37    36   ar
    36    38    37    1
    37    39    46   ar
    38    40    41    1
    39    42    40   ar
    40    43    42    1
    41    44    42   ar
    42    45    44    1
    43    46    44   ar
    44    47    46   ar
    45    48    47    1
    46    49    28   ar
    47    50    49    1
    48    51    21   ar
    49    52    29   ar
    50    53    39   ar
    51    54    51    1
    52    55    39   ar
    53    56    57    1
    54    58    56   ar
    55    59    58    1
    56    60    58   ar
    57    61    60    1
    58    62    55   ar
    59    63    47   ar
    60    64    63    1
    61    65    54    1
    62    66    73   ar
    63    67    68    1
    64    69    67   ar
    65    70    69    1
    66    71    69   ar
    67    72    71    1
    68    73    71   ar
    69    74    66   ar
    70    75    76    1
    71    77    75   ar
    72    78    77    1
    73    79    77   ar
    74    80    79    1
    75    81    74   ar
    76    82    81   ar
    77    83    82    1
    78    84    73   ar
    79    85    84    1
    80    86    54    1
    81    87    54    1
    82    22    51   ar
    83    30    52   ar
    84    34    36   ar
    85    37    49   ar
    86    40    53   ar
    87    52    54    1
    88    53    54    1
    89    55    65   ar
    90    56    65   ar
    91    60    62   ar
    92    62    63   ar
    93    66    86   ar
    94    67    86   ar
    95    74    87   ar
    96    75    87   ar
    97    79    81   ar
    98    82    84   ar
    99    88    89    1
   100    90    88    1
   101    91    90    1
   102    92    90    1
   103    93    90    1
   104    94    95    1
   105    95   109    3
   106    96    94    1
   107    97    94    2
   108    98    97    1
   109    99    98    1
   110   100    98    2
   111   101   100    1
   112   102   100    1
   113   103   102    1
   114   104   103    1
   115   105    97    1
   116   106   105    1
   117   107   102    2
   118   108    96    3
   119   110   113    3
   120   111   112    3
   121   112   107    1
   122   113   107    1
   123   103   105    2
@<TRIPOS>SUBSTRUCTURE
     1 RES1        1 GROUP             0 ****  ****    0  
     2 RES2       21 GROUP             0 ****  ****    0  
     3 RES3       88 GROUP             0 ****  ****    0  
     4 RES4       94 GROUP             0 ****  ****    0  
@<TRIPOS>CRYSIN
   12.7813   14.7796   25.7947   90.0000   91.7960   90.0000    15     1
