@<TRIPOS>MOLECULE
FIWPAD01
    61    71     3     0     0
SMALL
USER_CHARGES
****
Generated from the CSD

@<TRIPOS>ATOM
     1 Fe1     -0.1949   2.8175   6.4968   Fe        1 RES1   2.0000
     2 N1      -1.6290   2.8938   7.8482   N.ar      1 RES1   0.0000
     3 N2       0.6102   4.2023   7.6429   N.ar      1 RES1   0.0000
     4 N3       0.6443   1.3355   7.4947   N.ar      1 RES1   0.0000
     5 C1      -2.7884   2.2148   7.9287   C.ar      1 RES1   0.0000
     6 C2      -3.6664   2.3464   8.9968   C.ar      1 RES1   0.0000
     7 C3      -3.3724   3.1794  10.0389   C.ar      1 RES1   0.0000
     8 C4      -2.1843   3.9197   9.9895   C.ar      1 RES1   0.0000
     9 C5      -1.3446   3.7492   8.8695   C.ar      1 RES1   0.0000
    10 C6      -0.1341   4.4745   8.7577   C.ar      1 RES1   0.0000
    11 C7       0.2338   5.4017   9.7348   C.ar      1 RES1   0.0000
    12 C8       1.4349   6.0956   9.5503   C.ar      1 RES1   0.0000
    13 C9       2.1880   5.8294   8.4459   C.ar      1 RES1   0.0000
    14 C10      1.7573   4.8827   7.5051   C.ar      1 RES1   0.0000
    15 C11     -1.7708   4.8528  10.9926   C.ar      1 RES1   0.0000
    16 C12     -0.6282   5.5692  10.8731   C.ar      1 RES1   0.0000
    17 C13      1.4795   1.3519   8.5368   C.ar      1 RES1   0.0000
    18 C14      1.9532   0.1959   9.1605   C.ar      1 RES1   0.0000
    19 C15      1.5699  -1.0244   8.6954   C.ar      1 RES1   0.0000
    20 C16      0.6901  -1.1111   7.5961   C.ar      1 RES1   0.0000
    21 C17      0.2512   0.0987   7.0556   C.ar      1 RES1   0.0000
    22 C18      0.2226  -2.3315   7.0244   C.ar      1 RES1   0.0000
    23 N1B      1.2392   2.8938   5.1455   N.ar      1 RES1   0.0000
    24 N2B     -1.0000   4.2023   5.3508   N.ar      1 RES1   0.0000
    25 N3B     -1.0340   1.3355   5.4989   N.ar      1 RES1   0.0000
    26 C1B      2.3987   2.2148   5.0649   C.ar      1 RES1   0.0000
    27 C2B      3.2766   2.3464   3.9968   C.ar      1 RES1   0.0000
    28 C3B      2.9826   3.1794   2.9548   C.ar      1 RES1   0.0000
    29 C4B      1.7946   3.9197   3.0041   C.ar      1 RES1   0.0000
    30 C5B      0.9549   3.7492   4.1242   C.ar      1 RES1   0.0000
    31 C6B     -0.2556   4.4745   4.2359   C.ar      1 RES1   0.0000
    32 C7B     -0.6235   5.4017   3.2588   C.ar      1 RES1   0.0000
    33 C8B     -1.8247   6.0956   3.4433   C.ar      1 RES1   0.0000
    34 C9B     -2.5777   5.8294   4.5478   C.ar      1 RES1   0.0000
    35 C10B    -2.1470   4.8827   5.4885   C.ar      1 RES1   0.0000
    36 C11B     1.3811   4.8528   2.0010   C.ar      1 RES1   0.0000
    37 C12B     0.2385   5.5692   2.1206   C.ar      1 RES1   0.0000
    38 C13B    -1.8692   1.3519   4.4568   C.ar      1 RES1   0.0000
    39 C14B    -2.3429   0.1959   3.8331   C.ar      1 RES1   0.0000
    40 C15B    -1.9596  -1.0244   4.2983   C.ar      1 RES1   0.0000
    41 C16B    -1.0798  -1.1111   5.3976   C.ar      1 RES1   0.0000
    42 C17B    -0.6409   0.0987   5.9381   C.ar      1 RES1   0.0000
    43 C18B    -0.6123  -2.3315   5.9693   C.ar      1 RES1   0.0000
    44 O1       7.8305   2.0339   5.5275   O.3       2 RES2   0.0000
    45 C19      7.1886   0.8793   5.0285   C.3       2 RES2   0.0000
    46 N4       7.4570  13.5416  -1.4345   N.1       3 RES3   0.0000
    47 N5       5.2539  10.2739  -3.2926   N.1       3 RES3   0.0000
    48 N6      -1.5151  12.5605   0.7952   N.1       3 RES3   0.0000
    49 N7       0.7813  15.6188   2.7547   N.1       3 RES3   0.0000
    50 C20      6.4578  12.9823  -1.5956   C.1       3 RES3   0.0000
    51 C21      5.2560  11.1787  -2.5883   C.1       3 RES3   0.0000
    52 C22      5.2434  12.3078  -1.7827   C.2       3 RES3   0.0000
    53 C23      4.0171  12.7983  -1.1876   C.2       3 RES3  -1.0000
    54 C24      3.9943  13.9738  -0.4288   C.2       3 RES3   0.0000
    55 C25      2.8371  14.4508   0.1351   C.2       3 RES3   0.0000
    56 C26      1.6281  13.7943  -0.0598   C.2       3 RES3   0.0000
    57 C27      1.6261  12.6159  -0.8082   C.2       3 RES3   0.0000
    58 C28      2.7891  12.1328  -1.3513   C.2       3 RES3   0.0000
    59 C29      0.3415  14.3880   0.4886   C.2       3 RES3   0.0000
    60 C30     -0.6967  13.3442   0.6835   C.1       3 RES3   0.0000
    61 C31      0.5737  15.0610   1.7879   C.1       3 RES3   0.0000
@<TRIPOS>BOND
     1     1     2    1
     2     2     5   ar
     3     3     1    1
     4     4     1    1
     5     5     6   ar
     6     6     7   ar
     7     7     8   ar
     8     8     9   ar
     9     9     2   ar
    10    10     3   ar
    11    11    10   ar
    12    12    11   ar
    13    13    12   ar
    14    14     3   ar
    15    15     8   ar
    16    16    11   ar
    17    17     4   ar
    18    18    17   ar
    19    19    18   ar
    20    20    19   ar
    21    21     4   ar
    22    22    20   ar
    23    23     1    1
    24    24     1    1
    25    25     1    1
    26    26    23   ar
    27    27    26   ar
    28    28    27   ar
    29    29    28   ar
    30    30    23   ar
    31    31    24   ar
    32    32    31   ar
    33    33    32   ar
    34    34    33   ar
    35    35    24   ar
    36    36    29   ar
    37    37    32   ar
    38    38    25   ar
    39    39    38   ar
    40    40    39   ar
    41    41    40   ar
    42    42    21   ar
    43    43    22   ar
    44     9    10   ar
    45    13    14   ar
    46    15    16   ar
    47    20    21   ar
    48    25    42   ar
    49    29    30   ar
    50    30    31   ar
    51    34    35   ar
    52    36    37   ar
    53    41    42   ar
    54    41    43   ar
    55    44    45    1
    56    46    50    3
    57    47    51    3
    58    48    60    3
    59    49    61    3
    60    50    52    1
    61    51    52    1
    62    52    53    2
    63    53    54    1
    64    54    55    2
    65    55    56    1
    66    56    57    1
    67    57    58    2
    68    58    53    1
    69    59    56    2
    70    60    59    1
    71    61    59    1
@<TRIPOS>SUBSTRUCTURE
     1 RES1        1 GROUP             0 ****  ****    0  
     2 RES2       44 GROUP             0 ****  ****    0  
     3 RES3       46 GROUP             0 ****  ****    0  
@<TRIPOS>CRYSIN
   12.8558   14.9548   25.9990   90.0000   91.7180   90.0000    15     1
