@<TRIPOS>MOLECULE
FOFQOI
    90    89     8     0     0
SMALL
USER_CHARGES
****
Generated from the CSD

@<TRIPOS>ATOM
     1 Fe1      6.7818   5.3977   1.1940   Fe        1 RES1   0.0000
     2 O1       8.2390   4.0497   1.4589   O.co2     1 RES1  -1.0000
     3 O2       7.9605   6.2413  -0.2712   O.co2     1 RES1  -1.0000
     4 O3       5.8498   3.7663   0.5192   O.co2     1 RES1   0.0000
     5 O4       7.8471   6.6364   2.4199   O.co2     1 RES1  -1.0000
     6 O5       5.6049   5.4187   2.8005   O.co2     1 RES1   0.0000
     7 O6       5.4574   6.6117   0.3137   O.co2     1 RES1   0.0000
     8 O7       8.7958   1.9619   0.9440   O.co2     1 RES1   0.0000
     9 O8       6.2321   1.6535  -0.1020   O.co2     1 RES1   0.0000
    10 O9       7.8275   7.5337   4.4612   O.co2     1 RES1   0.0000
    11 O10      5.1821   7.9621  -1.4388   O.co2     1 RES1   0.0000
    12 O11      7.9222   7.7674  -1.8735   O.co2     1 RES1   0.0000
    13 C1       5.8659   7.2784  -0.7039   C.2       1 RES1   0.0000
    14 C2       7.3832   7.1013  -0.9844   C.2       1 RES1   0.0000
    15 C3       8.0018   2.8772   0.9790   C.2       1 RES1   0.0000
    16 C4       7.3153   6.8949   3.5741   C.2       1 RES1   0.0000
    17 C5       6.5754   2.7127   0.3976   C.2       1 RES1   0.0000
    18 O12      5.1686   6.5813   4.6285   O.co2     1 RES1   0.0000
    19 C6       5.8871   6.2694   3.7185   C.2       1 RES1   0.0000
    20 N1      10.5577   6.9959   1.9036   N.ar      2 RES2   1.0000
    21 H1       9.7122   6.8369   1.9117   H         2 RES2   0.0000
    22 N2      12.7597   6.1855   1.9698   N.ar      2 RES2   0.0000
    23 N3      12.3106   8.5610   1.9137   N.ar      2 RES2   0.0000
    24 C7      13.1387   7.4913   1.9784   C.ar      2 RES2   0.0000
    25 N4      10.9890   4.7285   1.9031   N.pl3     2 RES2   0.0000
    26 H2      11.5357   4.0651   1.9062   H         2 RES2   0.0000
    27 H3      10.1415   4.5869   1.8790   H         2 RES2   0.0000
    28 N5      10.1217   9.2449   1.7438   N.pl3     2 RES2   0.0000
    29 H4      10.3790  10.0635   1.6992   H         2 RES2   0.0000
    30 H5       9.2833   9.0556   1.7115   H         2 RES2   0.0000
    31 C8      11.4501   5.9581   1.9333   C.ar      2 RES2   0.0000
    32 N6      14.4363   7.7221   2.0328   N.pl3     2 RES2   0.0000
    33 H6      14.7296   8.5294   2.0274   H         2 RES2   0.0000
    34 H7      14.9892   7.0643   2.0750   H         2 RES2   0.0000
    35 C9      11.0114   8.2814   1.8620   C.ar      2 RES2   0.0000
    36 N7      14.6758   3.9208   2.5340   N.pl3     3 RES3   0.0000
    37 H8      14.1501   4.5936   2.4345   H         3 RES3   0.0000
    38 H9      15.5010   4.0450   2.7422   H         3 RES3   0.0000
    39 N8      15.0712   1.6434   2.5234   N.ar      3 RES3   1.0000
    40 H10     15.8985   1.7817   2.7150   H         3 RES3   0.0000
    41 N9      12.9408   2.5066   2.0447   N.ar      3 RES3   0.0000
    42 N10     13.3406   0.1262   2.0518   N.ar      3 RES3   0.0000
    43 C10     12.5542   1.2111   1.9020   C.ar      3 RES3   0.0000
    44 C11     14.2156   2.6924   2.3660   C.ar      3 RES3   0.0000
    45 N11     11.2887   0.9896   1.5975   N.pl3     3 RES3   0.0000
    46 H11     11.0038   0.1829   1.5045   H         3 RES3   0.0000
    47 H12     10.7496   1.6524   1.4923   H         3 RES3   0.0000
    48 N12     15.4437  -0.6273   2.5693   N.pl3     3 RES3   0.0000
    49 H13     15.1724  -1.4405   2.4876   H         3 RES3   0.0000
    50 H14     16.2624  -0.4660   2.7790   H         3 RES3   0.0000
    51 C12     14.6023   0.3726   2.3743   C.ar      3 RES3   0.0000
    52 N13      0.1435   4.0638  12.2568   N.ar      4 RES4   0.0000
    53 N14      0.4880   1.6800  12.3044   N.ar      4 RES4   0.0000
    54 N15      2.2796   3.1598  12.6356   N.ar      4 RES4   1.0000
    55 H15      3.1150   3.2869  12.7934   H         4 RES4   0.0000
    56 N16     -1.5743   2.5869  11.9817   N.pl3     4 RES4   0.0000
    57 H16     -1.8907   1.7884  11.9288   H         4 RES4   0.0000
    58 H17     -2.0986   3.2646  11.9015   H         4 RES4   0.0000
    59 N17      2.6140   0.8953  12.7303   N.pl3     4 RES4   0.0000
    60 H18      2.3291   0.0847  12.6967   H         4 RES4   0.0000
    61 H19      3.4455   1.0525  12.8846   H         4 RES4   0.0000
    62 C13      1.7838   1.8865  12.5463   C.ar      4 RES4   0.0000
    63 N18      1.9589   5.4378  12.5469   N.pl3     4 RES4   0.0000
    64 H20      1.4509   6.1255  12.4557   H         4 RES4   0.0000
    65 H21      2.8006   5.5413  12.6872   H         4 RES4   0.0000
    66 C14     -0.2797   2.7738  12.1875   C.ar      4 RES4   0.0000
    67 C15      1.4461   4.2272  12.4734   C.ar      4 RES4   0.0000
    68 N19      0.5822   3.3333   5.4179   N.ar      5 RES5   0.0000
    69 N20      0.0917   0.9678   5.2632   N.ar      5 RES5   0.0000
    70 C16      0.9397   2.0201   5.4157   C.ar      5 RES5   0.0000
    71 N21      2.2161   1.7342   5.5908   N.pl3     5 RES5   0.0000
    72 H22      2.4747   0.9143   5.6043   H         5 RES5   0.0000
    73 H23      2.7893   2.3682   5.6914   H         5 RES5   0.0000
    74 N22     -1.6076   2.5601   5.0862   N.ar      5 RES5   1.0000
    75 H24     -2.4398   2.7383   4.9589   H         5 RES5   0.0000
    76 N23     -1.1972   4.8032   5.3608   N.pl3     5 RES5   0.0000
    77 H25     -0.5912   5.3607   5.1114   H         5 RES5   0.0000
    78 H26     -1.8840   4.8790   4.8486   H         5 RES5   0.0000
    79 N24     -2.0713   0.3111   4.9092   N.pl3     5 RES5   0.0000
    80 H27     -1.8244  -0.5129   4.9030   H         5 RES5   0.0000
    81 H28     -2.8995   0.5129   4.7968   H         5 RES5   0.0000
    82 C17     -0.7144   3.5730   5.2829   C.ar      5 RES5   0.0000
    83 C18     -1.1788   1.2657   5.0909   C.ar      5 RES5   0.0000
    84 O13      6.1171   1.8640   3.0286   O.3       6 RES6   0.0000
    85 H29      6.3520   1.1216   3.3699   H         6 RES6   0.0000
    86 H30      6.2686   2.4908   3.5823   H         6 RES6   0.0000
    87 O14      6.9769   1.0077   7.5540   O.3       7 RES7   0.0000
    88 H31      6.8776   0.8986   6.8623   H         7 RES7   0.0000
    89 H32      6.2191   0.9254   7.8971   H         7 RES7   0.0000
    90 Cl1      4.0785   0.7042   8.8971   Cl        8 RES8  -1.0000
@<TRIPOS>BOND
     1     1     2    1
     2     2    15    1
     3     3     1    1
     4     4     1    1
     5     5     1    1
     6     6     1    1
     7     7     1    1
     8     8    15    2
     9     9    17    2
    10    10    16    2
    11    11    13    2
    12    12    14    2
    13    13     7    1
    14    14     3    1
    15    15    17    1
    16    16     5    1
    17    17     4    1
    18    18    19    2
    19    19     6    1
    20    13    14    1
    21    16    19    1
    22    20    21    1
    23    22    24   ar
    24    23    24   ar
    25    24    32    1
    26    25    26    1
    27    27    25    1
    28    28    29    1
    29    30    28    1
    30    31    20   ar
    31    32    33    1
    32    34    32    1
    33    35    20   ar
    34    22    31   ar
    35    23    35   ar
    36    25    31    1
    37    28    35    1
    38    36    37    1
    39    38    36    1
    40    39    40    1
    41    41    43   ar
    42    42    43   ar
    43    43    45    1
    44    44    36    1
    45    45    46    1
    46    47    45    1
    47    48    49    1
    48    50    48    1
    49    51    39   ar
    50    39    44   ar
    51    41    44   ar
    52    42    51   ar
    53    48    51    1
    54    52    66   ar
    55    53    62   ar
    56    54    55    1
    57    56    57    1
    58    58    56    1
    59    59    60    1
    60    61    59    1
    61    62    54   ar
    62    63    64    1
    63    65    63    1
    64    66    53   ar
    65    67    52   ar
    66    54    67   ar
    67    56    66    1
    68    59    62    1
    69    63    67    1
    70    68    70   ar
    71    69    70   ar
    72    70    71    1
    73    71    72    1
    74    73    71    1
    75    74    75    1
    76    76    77    1
    77    78    76    1
    78    79    80    1
    79    81    79    1
    80    82    68   ar
    81    83    69   ar
    82    74    82   ar
    83    74    83   ar
    84    76    82    1
    85    79    83    1
    86    84    85    1
    87    86    84    1
    88    87    88    1
    89    89    87    1
@<TRIPOS>SUBSTRUCTURE
     1 RES1        1 GROUP             0 ****  ****    0  
     2 RES2       20 GROUP             0 ****  ****    0  
     3 RES3       36 GROUP             0 ****  ****    0  
     4 RES4       52 GROUP             0 ****  ****    0  
     5 RES5       68 GROUP             0 ****  ****    0  
     6 RES6       84 GROUP             0 ****  ****    0  
     7 RES7       87 GROUP             0 ****  ****    0  
     8 RES8       90 GROUP             0 ****  ****    0  
@<TRIPOS>CRYSIN
   11.5970   22.2990   13.6550   90.0000   94.3440   90.0000    14     1
