@<TRIPOS>MOLECULE
FOGGAM
    85    90     7     0     0
SMALL
USER_CHARGES
****
Generated from the CSD

@<TRIPOS>ATOM
     1 Fe1     -0.1370   3.6165   4.3129   Fe        1 RES1   2.0000
     2 N1      -1.5357   2.5252   3.4371   N.ar      1 RES1   0.0000
     3 N2      -1.5059   5.0270   4.1747   N.ar      1 RES1   0.0000
     4 N3      -0.8146   3.1261   6.1044   N.ar      1 RES1   0.0000
     5 N4       1.0970   4.7486   5.3640   N.ar      1 RES1   0.0000
     6 N5       1.1599   2.1470   4.2439   N.ar      1 RES1   0.0000
     7 N6       0.6578   4.0684   2.5631   N.ar      1 RES1   0.0000
     8 C1      -1.5171   1.2509   3.0610   C.ar      1 RES1   0.0000
     9 H1      -0.7058   0.7638   3.1421   H         1 RES1   0.0000
    10 C2      -2.6489   0.5940   2.5481   C.ar      1 RES1   0.0000
    11 H2      -2.5917  -0.3179   2.2859   H         1 RES1   0.0000
    12 C3      -3.8332   1.2697   2.4256   C.ar      1 RES1   0.0000
    13 H3      -4.6055   0.8289   2.0920   H         1 RES1   0.0000
    14 C4      -3.8908   2.6310   2.8006   C.ar      1 RES1   0.0000
    15 C5      -5.0632   3.4521   2.7092   C.ar      1 RES1   0.0000
    16 H4      -5.8754   3.0675   2.4006   H         1 RES1   0.0000
    17 C6      -5.0396   4.7659   3.0537   C.ar      1 RES1   0.0000
    18 H5      -5.8296   5.2869   2.9709   H         1 RES1   0.0000
    19 C7      -3.8370   5.3777   3.5414   C.ar      1 RES1   0.0000
    20 C8      -3.7300   6.7299   3.9082   C.ar      1 RES1   0.0000
    21 H6      -4.4779   7.3117   3.8335   H         1 RES1   0.0000
    22 C9      -2.5309   7.1939   4.3750   C.ar      1 RES1   0.0000
    23 H7      -2.4392   8.1089   4.6170   H         1 RES1   0.0000
    24 C10     -1.4328   6.3228   4.4986   C.ar      1 RES1   0.0000
    25 H8      -0.6098   6.6673   4.8238   H         1 RES1   0.0000
    26 C11     -2.6909   4.5738   3.6818   C.ar      1 RES1   0.0000
    27 C12     -2.7187   3.2035   3.2946   C.ar      1 RES1   0.0000
    28 C13     -1.7374   2.2378   6.4650   C.ar      1 RES1   0.0000
    29 H9      -2.1476   1.7112   5.7899   H         1 RES1   0.0000
    30 C14     -2.1303   2.0441   7.7942   C.ar      1 RES1   0.0000
    31 H10     -2.7897   1.3937   8.0079   H         1 RES1   0.0000
    32 C15     -1.5596   2.7988   8.7874   C.ar      1 RES1   0.0000
    33 H11     -1.8371   2.6922   9.6896   H         1 RES1   0.0000
    34 C16     -0.5647   3.7244   8.4607   C.ar      1 RES1   0.0000
    35 C17      0.1406   4.5285   9.4165   C.ar      1 RES1   0.0000
    36 H12     -0.1002   4.4806  10.3342   H         1 RES1   0.0000
    37 C18      1.1434   5.3554   9.0342   C.ar      1 RES1   0.0000
    38 H13      1.5939   5.8741   9.6896   H         1 RES1   0.0000
    39 C19      1.5377   5.4620   7.6620   C.ar      1 RES1   0.0000
    40 C20      2.5860   6.2713   7.1979   C.ar      1 RES1   0.0000
    41 H14      3.0875   6.8037   7.8044   H         1 RES1   0.0000
    42 C21      2.8786   6.2839   5.8572   C.ar      1 RES1   0.0000
    43 H15      3.6038   6.8059   5.5346   H         1 RES1   0.0000
    44 C22      2.1080   5.5258   4.9613   C.ar      1 RES1   0.0000
    45 H16      2.3123   5.5674   4.0338   H         1 RES1   0.0000
    46 C23      0.8276   4.7153   6.7047   C.ar      1 RES1   0.0000
    47 C24     -0.2159   3.8429   7.1110   C.ar      1 RES1   0.0000
    48 C25      1.4429   1.2173   5.1574   C.ar      1 RES1   0.0000
    49 H17      0.9871   1.2403   5.9902   H         1 RES1   0.0000
    50 C26      2.3879   0.2085   4.9322   C.ar      1 RES1   0.0000
    51 H18      2.5861  -0.4143   5.6219   H         1 RES1   0.0000
    52 C27      3.0272   0.1128   3.7259   C.ar      1 RES1   0.0000
    53 H19      3.6576  -0.5793   3.5670   H         1 RES1   0.0000
    54 C28      2.7334   1.0595   2.7218   C.ar      1 RES1   0.0000
    55 C29      3.3213   1.0714   1.4139   C.ar      1 RES1   0.0000
    56 H20      3.9217   0.3784   1.1680   H         1 RES1   0.0000
    57 C30      3.0367   2.0549   0.5184   C.ar      1 RES1   0.0000
    58 H21      3.4345   2.0348  -0.3441   H         1 RES1   0.0000
    59 C31      2.1403   3.1257   0.8620   C.ar      1 RES1   0.0000
    60 C32      1.8423   4.2214   0.0204   C.ar      1 RES1   0.0000
    61 H22      2.2091   4.2726  -0.8546   H         1 RES1   0.0000
    62 C33      1.0193   5.2060   0.4876   C.ar      1 RES1   0.0000
    63 H23      0.8409   5.9674  -0.0533   H         1 RES1   0.0000
    64 C34      0.4341   5.1039   1.7557   C.ar      1 RES1   0.0000
    65 H24     -0.1427   5.7982   2.0500   H         1 RES1   0.0000
    66 C35      1.5260   3.1095   2.1229   C.ar      1 RES1   0.0000
    67 C36      1.8159   2.0720   3.0487   C.ar      1 RES1   0.0000
    68 Cl1      0.1912   8.6617   6.5241   Cl        2 RES2   0.0000
    69 Cl2      1.4062  11.2187   5.8600   Cl        2 RES2   0.0000
    70 C37      1.5479   9.4669   5.7185   C.3       2 RES2   0.0000
    71 H25      2.3989   9.1696   6.1275   H         2 RES2   0.0000
    72 H26      1.5619   9.2124   4.7624   H         2 RES2   0.0000
    73 Cl3      7.6613   1.3653  15.9234   Cl        3 RES3   0.0000
    74 Cl4      9.2947  -0.8671  15.0570   Cl        3 RES3   0.0000
    75 C38      7.6769  -0.2726  15.2717   C.3       3 RES3   0.0000
    76 H27      7.1879  -0.8740  15.8882   H         3 RES3   0.0000
    77 H28      7.2083  -0.2818  14.4004   H         3 RES3   0.0000
    78 Cl5      0.8147   8.5480   2.2833   Cl        4 RES4  -1.0000
    79 Cl6      5.1195   9.3673   5.4362   Cl        5 RES5  -1.0000
    80 O1       1.1784  -0.7168   7.7011   O.3       6 RES6   0.0000
    81 H29      0.8648  -0.8481   8.4877   H         6 RES6   0.0000
    82 H30      0.6432  -0.9073   7.0677   H         6 RES6   0.0000
    83 O2       3.7486   7.6700   3.0203   O.3       7 RES7   0.0000
    84 H31      2.9497   7.9154   2.8222   H         7 RES7   0.0000
    85 H32      4.1248   8.1634   3.6106   H         7 RES7   0.0000
@<TRIPOS>BOND
     1     1     2    1
     2     2     8   ar
     3     3     1    1
     4     4     1    1
     5     5     1    1
     6     6     1    1
     7     7     1    1
     8     8     9    1
     9    10     8   ar
    10    11    10    1
    11    12    10   ar
    12    13    12    1
    13    14    12   ar
    14    15    14   ar
    15    16    15    1
    16    17    15   ar
    17    18    17    1
    18    19    17   ar
    19    20    19   ar
    20    21    20    1
    21    22    20   ar
    22    23    22    1
    23    24     3   ar
    24    25    24    1
    25    26     3   ar
    26    27     2   ar
    27    28     4   ar
    28    29    28    1
    29    30    28   ar
    30    31    30    1
    31    32    30   ar
    32    33    32    1
    33    34    32   ar
    34    35    34   ar
    35    36    35    1
    36    37    35   ar
    37    38    37    1
    38    39    37   ar
    39    40    39   ar
    40    41    40    1
    41    42    40   ar
    42    43    42    1
    43    44     5   ar
    44    45    44    1
    45    46     5   ar
    46    47     4   ar
    47    48     6   ar
    48    49    48    1
    49    50    48   ar
    50    51    50    1
    51    52    50   ar
    52    53    52    1
    53    54    52   ar
    54    55    54   ar
    55    56    55    1
    56    57    55   ar
    57    58    57    1
    58    59    57   ar
    59    60    59   ar
    60    61    60    1
    61    62    60   ar
    62    63    62    1
    63    64     7   ar
    64    65    64    1
    65    66     7   ar
    66    67     6   ar
    67    14    27   ar
    68    19    26   ar
    69    22    24   ar
    70    26    27   ar
    71    34    47   ar
    72    39    46   ar
    73    42    44   ar
    74    46    47   ar
    75    54    67   ar
    76    59    66   ar
    77    62    64   ar
    78    66    67   ar
    79    68    70    1
    80    69    70    1
    81    70    71    1
    82    72    70    1
    83    73    75    1
    84    74    75    1
    85    75    76    1
    86    77    75    1
    87    80    81    1
    88    82    80    1
    89    83    84    1
    90    85    83    1
@<TRIPOS>SUBSTRUCTURE
     1 RES1        1 GROUP             0 ****  ****    0  
     2 RES2       68 GROUP             0 ****  ****    0  
     3 RES3       73 GROUP             0 ****  ****    0  
     4 RES4       78 GROUP             0 ****  ****    0  
     5 RES5       79 GROUP             0 ****  ****    0  
     6 RES6       80 GROUP             0 ****  ****    0  
     7 RES7       83 GROUP             0 ****  ****    0  
@<TRIPOS>CRYSIN
   10.7860   11.6220   16.3560   96.3110   93.3960  113.0790     2     1
