@<TRIPOS>MOLECULE
FOHKAR
    91    95     4     0     0
SMALL
USER_CHARGES
****
Generated from the CSD

@<TRIPOS>ATOM
     1 Fe1      8.1063   7.7208   2.5012   Fe        1 RES1   2.0000
     2 C1      10.7683   8.1472   1.3316   C.3       1 RES1   0.0000
     3 H1      11.2933   7.4785   0.8246   H         1 RES1   0.0000
     4 H2      11.3886   8.8565   1.6362   H         1 RES1   0.0000
     5 C2       9.7230   8.7518   0.4291   C.ar      1 RES1   0.0000
     6 C3       9.9894   9.3318  -0.8011   C.ar      1 RES1   0.0000
     7 H3      10.8736   9.3365  -1.1481   H         1 RES1   0.0000
     8 C4       8.9520   9.9022  -1.5193   C.ar      1 RES1   0.0000
     9 H4       9.1174  10.2962  -2.3673   H         1 RES1   0.0000
    10 C5       7.6630   9.8960  -0.9881   C.ar      1 RES1   0.0000
    11 H5       6.9398  10.2876  -1.4641   H         1 RES1   0.0000
    12 C6       7.4604   9.3048   0.2483   C.ar      1 RES1   0.0000
    13 C7       6.1484   9.2661   0.9858   C.3       1 RES1   0.0000
    14 H6       5.9863  10.1390   1.4230   H         1 RES1   0.0000
    15 H7       5.4117   9.0997   0.3459   H         1 RES1   0.0000
    16 C8       7.6173   8.7489   5.1744   C.3       1 RES1   0.0000
    17 H8       6.7207   9.1409   5.3237   H         1 RES1   0.0000
    18 H9       8.2100   9.0582   5.9052   H         1 RES1   0.0000
    19 C9       7.5163   7.2548   5.2208   C.ar      1 RES1   0.0000
    20 C10      7.2190   6.4841   6.3372   C.ar      1 RES1   0.0000
    21 H10      7.1042   6.9001   7.1842   H         1 RES1   0.0000
    22 C11      7.0894   5.1143   6.2194   C.ar      1 RES1   0.0000
    23 H11      6.8864   4.5847   6.9823   H         1 RES1   0.0000
    24 C12      7.2589   4.5239   4.9852   C.ar      1 RES1   0.0000
    25 H12      7.1556   3.5846   4.8824   H         1 RES1   0.0000
    26 C13      7.5787   5.3114   3.9063   C.ar      1 RES1   0.0000
    27 C14      7.8225   4.7913   2.5212   C.3       1 RES1   0.0000
    28 H13      8.6449   4.2406   2.5150   H         1 RES1   0.0000
    29 H14      7.0658   4.2128   2.2476   H         1 RES1   0.0000
    30 N1      10.1511   7.4959   2.5092   N.3       1 RES1   0.0000
    31 H15     10.4923   7.8615   3.2705   H         1 RES1   0.0000
    32 H16     10.3576   6.6100   2.5076   H         1 RES1   0.0000
    33 N2       8.4701   8.7257   0.9243   N.ar      1 RES1   0.0000
    34 N3       6.1732   8.1807   2.0184   N.3       1 RES1   0.0000
    35 H17      5.7541   7.4406   1.6960   H         1 RES1   0.0000
    36 H18      5.7293   8.4568   2.7637   H         1 RES1   0.0000
    37 N4       8.1542   9.2348   3.8664   N.3       1 RES1   0.0000
    38 H19      9.0098   9.5252   3.9736   H         1 RES1   0.0000
    39 H20      7.6517   9.9334   3.5678   H         1 RES1   0.0000
    40 N5       7.7075   6.6596   4.0256   N.ar      1 RES1   0.0000
    41 N6       7.9668   5.9097   1.5498   N.3       1 RES1   0.0000
    42 H21      7.2489   5.9178   0.9911   H         1 RES1   0.0000
    43 H22      8.7128   5.7760   1.0453   H         1 RES1   0.0000
    44 C15      2.1646   2.9002   5.1810   C.ar      2 RES2   0.0000
    45 H23      1.6583   2.1231   5.3872   H         2 RES2   0.0000
    46 C16      2.6655   3.0796   3.9046   C.ar      2 RES2   0.0000
    47 H24      2.5036   2.4290   3.2312   H         2 RES2   0.0000
    48 C17      3.4065   4.2210   3.6142   C.ar      2 RES2   0.0000
    49 C18      3.6834   5.1707   4.5981   C.ar      2 RES2   0.0000
    50 H25      4.2108   5.9344   4.3981   H         2 RES2   0.0000
    51 C19      3.1714   4.9756   5.8802   C.ar      2 RES2   0.0000
    52 H26      3.3489   5.6111   6.5634   H         2 RES2   0.0000
    53 C20      2.3997   3.8527   6.1608   C.ar      2 RES2   0.0000
    54 C21      1.3427   4.1594   9.5452   C.ar      2 RES2   0.0000
    55 C22      1.5335   5.1295  10.5349   C.ar      2 RES2   0.0000
    56 H27      1.9931   5.9356  10.3332   H         2 RES2   0.0000
    57 C23      1.0450   4.8992  11.8153   C.ar      2 RES2   0.0000
    58 H28      1.1743   5.5498  12.4967   H         2 RES2   0.0000
    59 C24      0.3676   3.7200  12.1003   C.ar      2 RES2   0.0000
    60 C25      0.1902   2.7569  11.1139   C.ar      2 RES2   0.0000
    61 H29     -0.2647   1.9476  11.3168   H         2 RES2   0.0000
    62 C26      0.6757   2.9743   9.8356   C.ar      2 RES2   0.0000
    63 H30      0.5538   2.3169   9.1607   H         2 RES2   0.0000
    64 N7       1.8197   3.5554   7.4389   N.2       2 RES2   0.0000
    65 N8       1.8949   4.4945   8.2637   N.2       2 RES2   0.0000
    66 O1       4.8416   5.6152   1.9640   O.2       2 RES2   0.0000
    67 O2       4.6636   3.2239   1.5799   O.2       2 RES2   0.0000
    68 O3       2.7506   4.6764   1.1668   O.3       2 RES2  -1.0000
    69 O4      -1.3205   2.5068  13.6104   O.2       2 RES2   0.0000
    70 O5      -0.5816   4.7211  14.2937   O.3       2 RES2  -1.0000
    71 O6       0.9288   2.8414  14.4449   O.2       2 RES2   0.0000
    72 S1       3.9745   4.4557   1.9395   S.o2      2 RES2   0.0000
    73 S2      -0.2020   3.4249  13.7503   S.o2      2 RES2   0.0000
    74 O7       5.3722   0.9630   3.2157   O.3       3 RES3   0.0000
    75 H31      5.0697   1.6516   2.8142   H         3 RES3   0.0000
    76 H32      4.8004   0.7961   3.8146   H         3 RES3   0.0000
    77 C27      5.2580   4.0895   9.8096   C.3       4 RES4   0.0000
    78 H33      4.4407   4.5435  10.1013   H         4 RES4   0.0000
    79 H34      5.6366   3.5844  10.5594   H         4 RES4   0.0000
    80 H35      5.9089   4.7540   9.5011   H         4 RES4   0.0000
    81 C28      4.9394   3.1614   8.7045   C.3       4 RES4   0.0000
    82 H36      4.2696   2.5015   9.0149   H         4 RES4   0.0000
    83 H37      4.5417   3.6708   7.9546   H         4 RES4   0.0000
    84 C29      5.8229   1.7276   7.0496   C.3       4 RES4   0.0000
    85 H38      5.5083   2.3270   6.3278   H         4 RES4   0.0000
    86 H39      5.1237   1.0473   7.2179   H         4 RES4   0.0000
    87 O8       6.0711   2.4915   8.2561   O.3       4 RES4   0.0000
    88 C30      7.0639   1.0802   6.6569   C.3       4 RES4   0.0000
    89 H40      6.9155   0.5578   5.8416   H         4 RES4   0.0000
    90 H41      7.7485   1.7616   6.4886   H         4 RES4   0.0000
    91 H42      7.3649   0.4868   7.3750   H         4 RES4   0.0000
@<TRIPOS>BOND
     1     1    30    1
     2     2     3    1
     3     4     2    1
     4     5     2    1
     5     6     5   ar
     6     7     6    1
     7     8     6   ar
     8     9     8    1
     9    10     8   ar
    10    11    10    1
    11    12    10   ar
    12    13    12    1
    13    14    13    1
    14    15    13    1
    15    16    17    1
    16    18    16    1
    17    19    16    1
    18    20    19   ar
    19    21    20    1
    20    22    20   ar
    21    23    22    1
    22    24    22   ar
    23    25    24    1
    24    26    24   ar
    25    27    26    1
    26    28    27    1
    27    29    27    1
    28    30     2    1
    29    31    30    1
    30    32    30    1
    31    33     1    1
    32    34     1    1
    33    35    34    1
    34    36    34    1
    35    37     1    1
    36    38    37    1
    37    39    37    1
    38    40     1    1
    39    41     1    1
    40    42    41    1
    41    43    41    1
    42     5    33   ar
    43    12    33   ar
    44    13    34    1
    45    16    37    1
    46    19    40   ar
    47    26    40   ar
    48    27    41    1
    49    44    45    1
    50    46    44   ar
    51    47    46    1
    52    48    46   ar
    53    49    48   ar
    54    50    49    1
    55    51    49   ar
    56    52    51    1
    57    53    44   ar
    58    54    55   ar
    59    55    56    1
    60    57    55   ar
    61    58    57    1
    62    59    57   ar
    63    60    59   ar
    64    61    60    1
    65    62    54   ar
    66    63    62    1
    67    64    53    1
    68    65    54    1
    69    66    72    2
    70    67    72    2
    71    68    72    1
    72    69    73    2
    73    70    73    1
    74    71    73    2
    75    72    48    1
    76    73    59    1
    77    51    53   ar
    78    60    62   ar
    79    64    65    2
    80    74    75    1
    81    76    74    1
    82    77    78    1
    83    79    77    1
    84    80    77    1
    85    81    77    1
    86    82    81    1
    87    83    81    1
    88    84    85    1
    89    86    84    1
    90    87    81    1
    91    88    84    1
    92    89    88    1
    93    90    88    1
    94    91    88    1
    95    84    87    1
@<TRIPOS>SUBSTRUCTURE
     1 RES1        1 GROUP             0 ****  ****    0  
     2 RES2       44 GROUP             0 ****  ****    0  
     3 RES3       74 GROUP             0 ****  ****    0  
     4 RES4       77 GROUP             0 ****  ****    0  
@<TRIPOS>CRYSIN
    8.1701   11.0096   18.9960   81.9570   82.9600   83.2690     2     1
