@<TRIPOS>MOLECULE
FOHKIZ01
   121   127     4     0     0
SMALL
USER_CHARGES
****
Generated from the CSD

@<TRIPOS>ATOM
     1 Fe1      8.3877   6.2193   3.9392   Fe        1 RES1   2.0000
     2 C1       9.8147   4.0456   5.5457   C.3       1 RES1   0.0000
     3 H1      10.6734   3.6699   5.7940   H         1 RES1   0.0000
     4 H2       9.1574   3.3322   5.5697   H         1 RES1   0.0000
     5 C2       9.4314   5.1125   6.5303   C.ar      1 RES1   0.0000
     6 C3       9.7565   5.0846   7.8701   C.ar      1 RES1   0.0000
     7 H3      10.3221   4.4255   8.2042   H         1 RES1   0.0000
     8 C4       9.2312   6.0477   8.7077   C.ar      1 RES1   0.0000
     9 H4       9.4343   6.0411   9.6154   H         1 RES1   0.0000
    10 C5       8.4112   7.0096   8.1926   C.ar      1 RES1   0.0000
    11 H5       8.0409   7.6573   8.7483   H         1 RES1   0.0000
    12 C6       8.1333   7.0113   6.8322   C.ar      1 RES1   0.0000
    13 C7       7.2066   7.9802   6.1758   C.3       1 RES1   0.0000
    14 H6       6.3219   7.8687   6.5592   H         1 RES1   0.0000
    15 H7       7.5035   8.8791   6.3842   H         1 RES1   0.0000
    16 C8      10.3502   7.4251   1.9200   C.3       1 RES1   0.0000
    17 H8      11.1033   6.8148   1.9186   H         1 RES1   0.0000
    18 H9      10.6358   8.2547   1.5066   H         1 RES1   0.0000
    19 C9       9.2264   6.8308   1.1166   C.ar      1 RES1   0.0000
    20 C10      9.1900   6.8243  -0.2646   C.ar      1 RES1   0.0000
    21 H10      9.8765   7.2144  -0.7557   H         1 RES1   0.0000
    22 C11      8.1254   6.2356  -0.9027   C.ar      1 RES1   0.0000
    23 H11      8.0744   6.2465  -1.8311   H         1 RES1   0.0000
    24 C12      7.1322   5.6249  -0.1627   C.ar      1 RES1   0.0000
    25 H12      6.4149   5.2101  -0.5839   H         1 RES1   0.0000
    26 C13      7.2243   5.6448   1.2199   C.ar      1 RES1   0.0000
    27 C14      6.1995   5.0454   2.1235   C.3       1 RES1   0.0000
    28 H13      5.4250   5.6282   2.1541   H         1 RES1   0.0000
    29 H14      5.9154   4.1929   1.7595   H         1 RES1   0.0000
    30 N1       9.8956   4.5883   4.1890   N.3       1 RES1   0.0000
    31 H15      9.7400   3.9421   3.5970   H         1 RES1   0.0000
    32 H16     10.7124   4.9089   4.0425   H         1 RES1   0.0000
    33 N2       8.6561   6.0870   6.0331   N.ar      1 RES1   0.0000
    34 N3       7.1061   7.8501   4.7490   N.3       1 RES1   0.0000
    35 H17      7.3413   8.6194   4.3702   H         1 RES1   0.0000
    36 H18      6.2580   7.6882   4.5309   H         1 RES1   0.0000
    37 N4       9.9413   7.6866   3.3009   N.3       1 RES1   0.0000
    38 H19      9.6162   8.5127   3.3647   H         1 RES1   0.0000
    39 H20     10.6486   7.6244   3.8388   H         1 RES1   0.0000
    40 N5       8.2509   6.2510   1.8302   N.ar      1 RES1   0.0000
    41 N6       6.6943   4.8426   3.4782   N.3       1 RES1   0.0000
    42 H21      6.9662   3.9995   3.5700   H         1 RES1   0.0000
    43 H22      6.0343   4.9824   4.0584   H         1 RES1   0.0000
    44 C15      3.1395   5.8241   6.6105   C.ar      2 RES2   0.0000
    45 C16      2.9371   4.4840   6.7944   C.ar      2 RES2   0.0000
    46 H23      2.7874   3.9235   6.0677   H         2 RES2   0.0000
    47 C17      2.9595   3.9715   8.0890   C.ar      2 RES2   0.0000
    48 C18      3.1746   4.7616   9.1825   C.ar      2 RES2   0.0000
    49 H24      3.1595   4.4055  10.0417   H         2 RES2   0.0000
    50 C19      3.4127   6.0949   8.9761   C.ar      2 RES2   0.0000
    51 H25      3.5712   6.6404   9.7124   H         2 RES2   0.0000
    52 C20      3.4274   6.6655   7.7002   C.ar      2 RES2   0.0000
    53 C21      3.7479   8.0851   7.5337   C.2       2 RES2   0.0000
    54 H26      3.4119   8.5194   6.7820   H         2 RES2   0.0000
    55 N7       2.7192   2.5446   8.2838   N.pl3     2 RES2   0.0000
    56 O1       2.5343   5.4071   4.1245   O.2       2 RES2   0.0000
    57 O2       4.3304   6.9419   4.6010   O.2       2 RES2   0.0000
    58 O3       2.0404   7.5550   5.0428   O.3       2 RES2  -1.0000
    59 O4       2.7554   2.0997   9.4181   O.2       2 RES2   0.0000
    60 O5       2.5277   1.8571   7.3054   O.2       2 RES2   0.0000
    61 S1       3.0130   6.4871   4.9394   S.o2      2 RES2   0.0000
    62 C15A     5.0894  11.0543   9.2984   C.ar      2 RES2   0.0000
    63 C16A     5.2918  12.3944   9.1145   C.ar      2 RES2   0.0000
    64 H23A     5.4415  12.9550   9.8413   H         2 RES2   0.0000
    65 C17A     5.2694  12.9069   7.8199   C.ar      2 RES2   0.0000
    66 C18A     5.0543  12.1169   6.7264   C.ar      2 RES2   0.0000
    67 H24A     5.0693  12.4729   5.8672   H         2 RES2   0.0000
    68 C19A     4.8162  10.7835   6.9328   C.ar      2 RES2   0.0000
    69 H25A     4.6577  10.2381   6.1965   H         2 RES2   0.0000
    70 C20A     4.8015  10.2129   8.2087   C.ar      2 RES2   0.0000
    71 C21A     4.4810   8.7933   8.3753   C.2       2 RES2   0.0000
    72 H26A     4.8170   8.3590   9.1269   H         2 RES2   0.0000
    73 N7A      5.5097  14.3338   7.6251   N.pl3     2 RES2   0.0000
    74 O1A      5.6946  11.4714  11.7844   O.2       2 RES2   0.0000
    75 O2A      3.8985   9.9366  11.3079   O.2       2 RES2   0.0000
    76 O3A      6.1885   9.3235  10.8661   O.3       2 RES2  -1.0000
    77 O4A      5.4735  14.7787   6.4908   O.2       2 RES2   0.0000
    78 O5A      5.7012  15.0214   8.6035   O.2       2 RES2   0.0000
    79 S1A      5.2159  10.3913  10.9695   S.o2      2 RES2   0.0000
    80 C22      7.8009   0.0044   1.8935   C.ar      3 RES3   0.0000
    81 C23      6.5017  -0.4432   2.0628   C.ar      3 RES3   0.0000
    82 H27      6.0331  -0.2409   2.8397   H         3 RES3   0.0000
    83 C24      5.9108  -1.1916   1.0678   C.ar      3 RES3   0.0000
    84 C25      6.5539  -1.4745  -0.1126   C.ar      3 RES3   0.0000
    85 H28      6.1359  -1.9671  -0.7811   H         3 RES3   0.0000
    86 C26      7.8420  -1.0042  -0.2760   C.ar      3 RES3   0.0000
    87 H29      8.2791  -1.1758  -1.0786   H         3 RES3   0.0000
    88 C27      8.5185  -0.2834   0.7119   C.ar      3 RES3   0.0000
    89 C28      9.9110   0.1395   0.5247   C.2       3 RES3   0.0000
    90 H30     10.2946   0.6475   1.2027   H         3 RES3   0.0000
    91 N8       4.5439  -1.6928   1.2616   N.pl3     3 RES3   0.0000
    92 O6       7.5198   1.0523   4.2361   O.2       3 RES3   0.0000
    93 O7       9.6105   0.0650   3.7158   O.3       3 RES3  -1.0000
    94 O8       9.0021   2.1441   2.7263   O.2       3 RES3   0.0000
    95 O9       3.9165  -1.3037   2.2177   O.2       3 RES3   0.0000
    96 O10      4.0722  -2.4226   0.4105   O.2       3 RES3   0.0000
    97 S2       8.5431   0.9056   3.2629   S.o2      3 RES3   0.0000
    98 C22A    12.7811  -0.0044  -1.8935   C.ar      3 RES3   0.0000
    99 C23A    14.0803   0.4432  -2.0628   C.ar      3 RES3   0.0000
   100 H27A    14.5489   0.2409  -2.8397   H         3 RES3   0.0000
   101 C24A    14.6712   1.1916  -1.0678   C.ar      3 RES3   0.0000
   102 C25A    14.0281   1.4745   0.1126   C.ar      3 RES3   0.0000
   103 H28A    14.4461   1.9671   0.7811   H         3 RES3   0.0000
   104 C26A    12.7400   1.0042   0.2760   C.ar      3 RES3   0.0000
   105 H29A    12.3029   1.1758   1.0786   H         3 RES3   0.0000
   106 C27A    12.0635   0.2834  -0.7119   C.ar      3 RES3   0.0000
   107 C28A    10.6710  -0.1395  -0.5247   C.2       3 RES3   0.0000
   108 H30A    10.2874  -0.6475  -1.2027   H         3 RES3   0.0000
   109 N8A     16.0381   1.6928  -1.2616   N.pl3     3 RES3   0.0000
   110 O6A     13.0622  -1.0523  -4.2361   O.2       3 RES3   0.0000
   111 O7A     10.9715  -0.0650  -3.7158   O.3       3 RES3  -1.0000
   112 O8A     11.5799  -2.1441  -2.7263   O.2       3 RES3   0.0000
   113 O9A     16.6655   1.3037  -2.2177   O.2       3 RES3   0.0000
   114 O10A    16.5098   2.4226  -0.4105   O.2       3 RES3   0.0000
   115 S2A     12.0389  -0.9056  -3.2629   S.o2      3 RES3   0.0000
   116 C29      2.4026   0.6362   4.2954   C.3       4 RES4   0.0000
   117 H31      1.5098   0.9814   4.2143   H         4 RES4   0.0000
   118 H32      2.5810   0.4251   5.2149   H         4 RES4   0.0000
   119 H33      2.4894  -0.1565   3.7609   H         4 RES4   0.0000
   120 C30      3.3383   1.6220   3.8420   C.1       4 RES4   0.0000
   121 N9       4.1067   2.5322   3.3806   N.1       4 RES4   0.0000
@<TRIPOS>BOND
     1     1    30    1
     2     2     3    1
     3     4     2    1
     4     5     2    1
     5     6     5   ar
     6     7     6    1
     7     8     6   ar
     8     9     8    1
     9    10     8   ar
    10    11    10    1
    11    12    10   ar
    12    13    12    1
    13    14    13    1
    14    15    13    1
    15    16    17    1
    16    18    16    1
    17    19    16    1
    18    20    19   ar
    19    21    20    1
    20    22    20   ar
    21    23    22    1
    22    24    22   ar
    23    25    24    1
    24    26    24   ar
    25    27    26    1
    26    28    27    1
    27    29    27    1
    28    30     2    1
    29    31    30    1
    30    32    30    1
    31    33     1    1
    32    34     1    1
    33    35    34    1
    34    36    34    1
    35    37     1    1
    36    38    37    1
    37    39    37    1
    38    40     1    1
    39    41     1    1
    40    42    41    1
    41    43    41    1
    42     5    33   ar
    43    12    33   ar
    44    13    34    1
    45    16    37    1
    46    19    40   ar
    47    26    40   ar
    48    27    41    1
    49    44    45   ar
    50    45    46    1
    51    47    45   ar
    52    48    47   ar
    53    49    48    1
    54    50    48   ar
    55    51    50    1
    56    52    44   ar
    57    53    52    1
    58    54    53    1
    59    55    47    1
    60    56    61    2
    61    57    61    2
    62    58    61    1
    63    59    55    2
    64    60    55    2
    65    61    44    1
    66    62    63   ar
    67    63    64    1
    68    65    63   ar
    69    66    65   ar
    70    67    66    1
    71    68    66   ar
    72    69    68    1
    73    70    62   ar
    74    71    53    2
    75    72    71    1
    76    73    65    1
    77    74    79    2
    78    75    79    2
    79    76    79    1
    80    77    73    2
    81    78    73    2
    82    79    62    1
    83    50    52   ar
    84    68    70   ar
    85    70    71    1
    86    80    81   ar
    87    81    82    1
    88    83    81   ar
    89    84    83   ar
    90    85    84    1
    91    86    84   ar
    92    87    86    1
    93    88    80   ar
    94    89    88    1
    95    90    89    1
    96    91    83    1
    97    92    97    2
    98    93    97    1
    99    94    97    2
   100    95    91    2
   101    96    91    2
   102    97    80    1
   103    98    99   ar
   104    99   100    1
   105   101    99   ar
   106   102   101   ar
   107   103   102    1
   108   104   102   ar
   109   105   104    1
   110   106    98   ar
   111   107    89    2
   112   108   107    1
   113   109   101    1
   114   110   115    2
   115   111   115    1
   116   112   115    2
   117   113   109    2
   118   114   109    2
   119   115    98    1
   120    86    88   ar
   121   104   106   ar
   122   106   107    1
   123   116   117    1
   124   118   116    1
   125   119   116    1
   126   120   116    1
   127   121   120    3
@<TRIPOS>SUBSTRUCTURE
     1 RES1        1 GROUP             0 ****  ****    0  
     2 RES2       44 GROUP             0 ****  ****    0  
     3 RES3       80 GROUP             0 ****  ****    0  
     4 RES4      116 GROUP             0 ****  ****    0  
@<TRIPOS>CRYSIN
   10.2910   10.5170   16.4420  104.2740   92.1640   93.9290     2     1
