@<TRIPOS>MOLECULE
FOHKIZ
   121   127     4     0     0
SMALL
USER_CHARGES
****
Generated from the CSD

@<TRIPOS>ATOM
     1 Fe1      3.2922   6.1440   3.8796   Fe        1 RES1   2.0000
     2 C1       4.6613   4.0190   5.4043   C.3       1 RES1   0.0000
     3 H1       5.5398   3.6352   5.6500   H         1 RES1   0.0000
     4 H2       3.9892   3.2927   5.4227   H         1 RES1   0.0000
     5 C2       4.2789   5.0944   6.3912   C.ar      1 RES1   0.0000
     6 C3       4.5756   5.0768   7.7431   C.ar      1 RES1   0.0000
     7 H3       5.1363   4.4060   8.1138   H         1 RES1   0.0000
     8 C4       4.0213   6.0793   8.5421   C.ar      1 RES1   0.0000
     9 H4       4.1985   6.0900   9.4757   H         1 RES1   0.0000
    10 C5       3.2253   7.0485   7.9900   C.ar      1 RES1   0.0000
    11 H5       2.8382   7.7235   8.5347   H         1 RES1   0.0000
    12 C6       2.9934   7.0258   6.6217   C.ar      1 RES1   0.0000
    13 C7       2.1436   8.0101   5.8604   C.3       1 RES1   0.0000
    14 H6       1.2419   8.0375   6.2692   H         1 RES1   0.0000
    15 H7       2.5416   8.9122   5.9482   H         1 RES1   0.0000
    16 C8       5.2441   7.3214   1.9959   C.3       1 RES1   0.0000
    17 H8       6.0156   6.7012   2.0043   H         1 RES1   0.0000
    18 H9       5.5389   8.1755   1.5917   H         1 RES1   0.0000
    19 C9       4.1282   6.7302   1.1726   C.ar      1 RES1   0.0000
    20 C10      4.1017   6.7141  -0.2139   C.ar      1 RES1   0.0000
    21 H10      4.8046   7.1030  -0.7210   H         1 RES1   0.0000
    22 C11      3.0246   6.1170  -0.8399   C.ar      1 RES1   0.0000
    23 H11      2.9715   6.1146  -1.7878   H         1 RES1   0.0000
    24 C12      2.0207   5.5198  -0.0928   C.ar      1 RES1   0.0000
    25 H12      1.2836   5.0978  -0.5191   H         1 RES1   0.0000
    26 C13      2.1162   5.5528   1.2882   C.ar      1 RES1   0.0000
    27 C14      1.1065   4.9671   2.2413   C.3       1 RES1   0.0000
    28 H13      0.3285   5.5760   2.3137   H         1 RES1   0.0000
    29 H14      0.7852   4.0988   1.8914   H         1 RES1   0.0000
    30 N1       4.7323   4.5998   4.0450   N.3       1 RES1   0.0000
    31 H15      4.5678   3.9558   3.4239   H         1 RES1   0.0000
    32 H16      5.5645   4.9360   3.8950   H         1 RES1   0.0000
    33 N2       3.5392   6.0683   5.8533   N.ar      1 RES1   0.0000
    34 N3       2.0133   7.6902   4.4606   N.3       1 RES1   0.0000
    35 H17      2.1972   8.4319   3.9672   H         1 RES1   0.0000
    36 H18      1.1531   7.4468   4.2896   H         1 RES1   0.0000
    37 N4       4.7816   7.5609   3.3863   N.3       1 RES1   0.0000
    38 H19      4.4425   8.4023   3.4582   H         1 RES1   0.0000
    39 H20      5.4820   7.4853   3.9620   H         1 RES1   0.0000
    40 N5       3.1519   6.1621   1.8943   N.ar      1 RES1   0.0000
    41 N6       1.7089   4.7703   3.5823   N.3       1 RES1   0.0000
    42 H21      2.0239   3.9198   3.6537   H         1 RES1   0.0000
    43 H22      1.0739   4.8919   4.2232   H         1 RES1   0.0000
    44 C15      0.6718   0.6031   9.2420   C.ar      2 RES2   0.0000
    45 C16      0.8890   1.9532   9.0847   C.ar      2 RES2   0.0000
    46 H23      1.0577   2.5072   9.8385   H         2 RES2   0.0000
    47 C17      0.8565   2.4895   7.8044   C.ar      2 RES2   0.0000
    48 C18      0.6196   1.7312   6.6862   C.ar      2 RES2   0.0000
    49 H24      0.6287   2.1176   5.8192   H         2 RES2   0.0000
    50 C19      0.3706   0.3931   6.8655   C.ar      2 RES2   0.0000
    51 H25      0.2030  -0.1468   6.1019   H         2 RES2   0.0000
    52 C20      0.3544  -0.2082   8.1332   C.ar      2 RES2   0.0000
    53 C21      0.0226  -1.6303   8.2889   C.2       2 RES2   0.0000
    54 H26      0.3742  -2.0934   9.0405   H         2 RES2   0.0000
    55 O1       1.3101   0.9777  11.7290   O.2       2 RES2   0.0000
    56 O2      -0.5655  -0.4697  11.2421   O.2       2 RES2   0.0000
    57 O3       1.6981  -1.2027  10.7748   O.3       2 RES2  -1.0000
    58 O4       1.0698   4.4032   6.5304   O.2       2 RES2   0.0000
    59 O5       1.3088   4.5896   8.6664   O.2       2 RES2   0.0000
    60 N7       1.1043   3.9231   7.6566   N.pl3     2 RES2   0.0000
    61 S1       0.7802  -0.0834  10.8959   S.o2      2 RES2   0.0000
    62 C15A    -1.3912  -4.5362   6.4864   C.ar      2 RES2   0.0000
    63 C16A    -1.6085  -5.8864   6.6437   C.ar      2 RES2   0.0000
    64 H23A    -1.7772  -6.4403   5.8900   H         2 RES2   0.0000
    65 C17A    -1.5760  -6.4226   7.9240   C.ar      2 RES2   0.0000
    66 C18A    -1.3391  -5.6643   9.0423   C.ar      2 RES2   0.0000
    67 H24A    -1.3481  -6.0507   9.9093   H         2 RES2   0.0000
    68 C19A    -1.0901  -4.3262   8.8630   C.ar      2 RES2   0.0000
    69 H25A    -0.9225  -3.7863   9.6265   H         2 RES2   0.0000
    70 C20A    -1.0739  -3.7249   7.5953   C.ar      2 RES2   0.0000
    71 C21A    -0.7421  -2.3028   7.4395   C.2       2 RES2   0.0000
    72 H26A    -1.0937  -1.8397   6.6879   H         2 RES2   0.0000
    73 O1A     -2.0296  -4.9109   3.9994   O.2       2 RES2   0.0000
    74 O2A     -0.1540  -3.4634   4.4864   O.2       2 RES2   0.0000
    75 O3A     -2.4175  -2.7305   4.9537   O.3       2 RES2  -1.0000
    76 O4A     -1.7893  -8.3363   9.1980   O.2       2 RES2   0.0000
    77 O5A     -2.0283  -8.5227   7.0621   O.2       2 RES2   0.0000
    78 N7A     -1.8238  -7.8562   8.0718   N.pl3     2 RES2   0.0000
    79 S1A     -1.4997  -3.8497   4.8326   S.o2      2 RES2   0.0000
    80 C22      2.5885   0.0430   1.8456   C.ar      3 RES3   0.0000
    81 C23      1.2815  -0.3986   2.0032   C.ar      3 RES3   0.0000
    82 H27      0.7850  -0.1732   2.7811   H         3 RES3   0.0000
    83 C24      0.7167  -1.1718   1.0066   C.ar      3 RES3   0.0000
    84 C25      1.3837  -1.4777  -0.1636   C.ar      3 RES3   0.0000
    85 H28      0.9688  -1.9942  -0.8439   H         3 RES3   0.0000
    86 C26      2.6733  -1.0084  -0.3122   C.ar      3 RES3   0.0000
    87 H29      3.1337  -1.1951  -1.1217   H         3 RES3   0.0000
    88 C27      3.3324  -0.2690   0.6790   C.ar      3 RES3   0.0000
    89 C28      4.7320   0.1438   0.5245   C.2       3 RES3   0.0000
    90 H30      5.1168   0.6558   1.2258   H         3 RES3   0.0000
    91 O6       2.2560   1.1692   4.1547   O.2       3 RES3   0.0000
    92 O7       3.8106   2.1843   2.6542   O.3       3 RES3  -1.0000
    93 O8       4.3404   0.1058   3.7108   O.2       3 RES3   0.0000
    94 O9      -1.2823  -1.2973   2.1619   O.2       3 RES3   0.0000
    95 O10     -1.1257  -2.3941   0.3177   O.2       3 RES3   0.0000
    96 N8      -0.6620  -1.6662   1.1812   N.pl3     3 RES3   0.0000
    97 S2       3.3087   0.9591   3.2084   S.o2      3 RES3   0.0000
    98 C22A     7.6488  -0.0430  -1.8456   C.ar      3 RES3   0.0000
    99 C23A     8.9558   0.3986  -2.0032   C.ar      3 RES3   0.0000
   100 H27A     9.4523   0.1732  -2.7811   H         3 RES3   0.0000
   101 C24A     9.5206   1.1718  -1.0066   C.ar      3 RES3   0.0000
   102 C25A     8.8536   1.4777   0.1636   C.ar      3 RES3   0.0000
   103 H28A     9.2685   1.9942   0.8439   H         3 RES3   0.0000
   104 C26A     7.5640   1.0084   0.3122   C.ar      3 RES3   0.0000
   105 H29A     7.1036   1.1951   1.1217   H         3 RES3   0.0000
   106 C27A     6.9049   0.2690  -0.6790   C.ar      3 RES3   0.0000
   107 C28A     5.5053  -0.1438  -0.5245   C.2       3 RES3   0.0000
   108 H30A     5.1205  -0.6558  -1.2258   H         3 RES3   0.0000
   109 O6A      7.9813  -1.1692  -4.1547   O.2       3 RES3   0.0000
   110 O7A      6.4267  -2.1843  -2.6542   O.3       3 RES3  -1.0000
   111 O8A      5.8969  -0.1058  -3.7108   O.2       3 RES3   0.0000
   112 O9A     11.5196   1.2973  -2.1619   O.2       3 RES3   0.0000
   113 O10A    11.3630   2.3941  -0.3177   O.2       3 RES3   0.0000
   114 N8A     10.8993   1.6662  -1.1812   N.pl3     3 RES3   0.0000
   115 S2A      6.9286  -0.9591  -3.2084   S.o2      3 RES3   0.0000
   116 C29      7.4389   0.5798   4.1885   C.3       4 RES4   0.0000
   117 H31      6.5392   0.9522   4.0722   H         4 RES4   0.0000
   118 H32      7.5690   0.3267   5.1255   H         4 RES4   0.0000
   119 H33      7.5407  -0.2105   3.6183   H         4 RES4   0.0000
   120 C30      8.4194   1.5699   3.8173   C.1       4 RES4   0.0000
   121 N9       9.1733   2.5237   3.4178   N.1       4 RES4   0.0000
@<TRIPOS>BOND
     1     1    30    1
     2     2     3    1
     3     4     2    1
     4     5     2    1
     5     6     5   ar
     6     7     6    1
     7     8     6   ar
     8     9     8    1
     9    10     8   ar
    10    11    10    1
    11    12    10   ar
    12    13    12    1
    13    14    13    1
    14    15    13    1
    15    16    17    1
    16    18    16    1
    17    19    16    1
    18    20    19   ar
    19    21    20    1
    20    22    20   ar
    21    23    22    1
    22    24    22   ar
    23    25    24    1
    24    26    24   ar
    25    27    26    1
    26    28    27    1
    27    29    27    1
    28    30     2    1
    29    31    30    1
    30    32    30    1
    31    33     1    1
    32    34     1    1
    33    35    34    1
    34    36    34    1
    35    37     1    1
    36    38    37    1
    37    39    37    1
    38    40     1    1
    39    41     1    1
    40    42    41    1
    41    43    41    1
    42     5    33   ar
    43    12    33   ar
    44    13    34    1
    45    16    37    1
    46    19    40   ar
    47    26    40   ar
    48    27    41    1
    49    44    45   ar
    50    45    46    1
    51    47    45   ar
    52    48    47   ar
    53    49    48    1
    54    50    48   ar
    55    51    50    1
    56    52    44   ar
    57    53    52    1
    58    54    53    1
    59    55    61    2
    60    56    61    2
    61    57    61    1
    62    58    60    2
    63    59    60    2
    64    60    47    1
    65    61    44    1
    66    62    63   ar
    67    63    64    1
    68    65    63   ar
    69    66    65   ar
    70    67    66    1
    71    68    66   ar
    72    69    68    1
    73    70    62   ar
    74    71    53    2
    75    72    71    1
    76    73    79    2
    77    74    79    2
    78    75    79    1
    79    76    78    2
    80    77    78    2
    81    78    65    1
    82    79    62    1
    83    50    52   ar
    84    68    70   ar
    85    70    71    1
    86    80    81   ar
    87    81    82    1
    88    83    81   ar
    89    84    83   ar
    90    85    84    1
    91    86    84   ar
    92    87    86    1
    93    88    80   ar
    94    89    88    1
    95    90    89    1
    96    91    97    2
    97    92    97    1
    98    93    97    2
    99    94    96    2
   100    95    96    2
   101    96    83    1
   102    97    80    1
   103    98    99   ar
   104    99   100    1
   105   101    99   ar
   106   102   101   ar
   107   103   102    1
   108   104   102   ar
   109   105   104    1
   110   106    98   ar
   111   107    89    2
   112   108   107    1
   113   109   115    2
   114   110   115    1
   115   111   115    2
   116   112   114    2
   117   113   114    2
   118   114   101    1
   119   115    98    1
   120    86    88   ar
   121   104   106   ar
   122   106   107    1
   123   116   117    1
   124   118   116    1
   125   119   116    1
   126   120   116    1
   127   121   120    3
@<TRIPOS>SUBSTRUCTURE
     1 RES1        1 GROUP             0 ****  ****    0  
     2 RES2       44 GROUP             0 ****  ****    0  
     3 RES3       80 GROUP             0 ****  ****    0  
     4 RES4      116 GROUP             0 ****  ****    0  
@<TRIPOS>CRYSIN
   10.2373   10.3544   16.2287  103.8540   92.5410   93.2540     2     1
