@<TRIPOS>MOLECULE
FOKZIR
   102   108     3     0     0
SMALL
USER_CHARGES
****
Generated from the CSD

@<TRIPOS>ATOM
     1 Fe1      8.2700   3.8560  16.8857   Fe        1 RES1   0.0000
     2 N1      10.5596   3.1819  14.9440   N.1       1 RES1   0.0000
     3 N2       9.8247   2.2663  19.0022   N.1       1 RES1   0.0000
     4 N3       6.8893   1.2956  15.8900   N.1       1 RES1   0.0000
     5 N4       6.7688   4.1674  18.2113   N.ar      1 RES1   0.0000
     6 N5       6.2705   5.4434  18.3123   N.ar      1 RES1   0.0000
     7 N6       9.1630   5.5205  17.5090   N.ar      1 RES1   0.0000
     8 N7       8.3759   6.6252  17.7508   N.ar      1 RES1   0.0000
     9 N8       7.2742   4.9633  15.5315   N.ar      1 RES1   0.0000
    10 N9       6.7106   6.1443  15.9722   N.ar      1 RES1   0.0000
    11 C1       9.6917   3.4527  15.6706   C.1       1 RES1  -1.0000
    12 C2       9.2421   2.8305  18.1871   C.1       1 RES1   0.0000
    13 C3       7.4163   2.2407  16.2681   C.1       1 RES1   0.0000
    14 C4       6.1330   3.4251  19.1385   C.ar      1 RES1   0.0000
    15 C5       5.2351   4.2482  19.8269   C.ar      1 RES1   0.0000
    16 H1       4.6588   3.9863  20.5344   H         1 RES1   0.0000
    17 C6       5.3447   5.5024  19.2886   C.ar      1 RES1   0.0000
    18 C7       6.3696   1.9710  19.3584   C.3       1 RES1   0.0000
    19 H2       6.2398   1.4876  18.5152   H         1 RES1   0.0000
    20 H3       5.7378   1.6353  20.0296   H         1 RES1   0.0000
    21 H4       7.2856   1.8341  19.6767   H         1 RES1   0.0000
    22 C8       4.6349   6.7724  19.6355   C.3       1 RES1   0.0000
    23 H5       5.2666   7.3986  20.0476   H         1 RES1   0.0000
    24 H6       3.9093   6.5805  20.2640   H         1 RES1   0.0000
    25 H7       4.2637   7.1722  18.8217   H         1 RES1   0.0000
    26 C9      10.4314   5.8874  17.8129   C.ar      1 RES1   0.0000
    27 C10     10.4369   7.2066  18.2548   C.ar      1 RES1   0.0000
    28 H8      11.1940   7.7067  18.5358   H         1 RES1   0.0000
    29 C11      9.1299   7.6467  18.2064   C.ar      1 RES1   0.0000
    30 C12     11.6167   4.9964  17.6666   C.3       1 RES1   0.0000
    31 H9      11.3949   4.1005  17.9950   H         1 RES1   0.0000
    32 H10     12.3640   5.3597  18.1855   H         1 RES1   0.0000
    33 H11     11.8709   4.9432  16.7227   H         1 RES1   0.0000
    34 C13      8.5474   8.9649  18.5685   C.3       1 RES1   0.0000
    35 H12      8.1070   9.3538  17.7838   H         1 RES1   0.0000
    36 H13      9.2596   9.5635  18.8732   H         1 RES1   0.0000
    37 H14      7.8905   8.8448  19.2853   H         1 RES1   0.0000
    38 C14      7.0064   4.8773  14.2157   C.ar      1 RES1   0.0000
    39 C15      6.2863   5.9996  13.8162   C.ar      1 RES1   0.0000
    40 H15      5.9757   6.1906  12.9393   H         1 RES1   0.0000
    41 C16      6.1122   6.7784  14.9381   C.ar      1 RES1   0.0000
    42 C17      7.4255   3.7392  13.3678   C.3       1 RES1   0.0000
    43 H16      8.4020   3.6515  13.3977   H         1 RES1   0.0000
    44 H17      7.1405   3.8987  12.4448   H         1 RES1   0.0000
    45 H18      7.0133   2.9151  13.6990   H         1 RES1   0.0000
    46 C18      5.3965   8.0848  15.0934   C.3       1 RES1   0.0000
    47 H19      4.6691   7.9834  15.7414   H         1 RES1   0.0000
    48 H20      5.0275   8.3595  14.2270   H         1 RES1   0.0000
    49 H21      6.0253   8.7661  15.4117   H         1 RES1   0.0000
    50 B1       6.8744   6.5440  17.4320   B         1 RES1   0.0000
    51 H22      6.4288   7.4212  17.6086   H         1 RES1   0.0000
    52 P1      10.6750   6.6632  10.8294   P.3       2 RES2   1.0000
    53 C19     10.6932   7.4616  12.4363   C.ar      2 RES2   0.0000
    54 C20     11.3927   8.6371  12.6382   C.ar      2 RES2   0.0000
    55 H23     11.9110   9.0132  11.9348   H         2 RES2   0.0000
    56 C21     11.3329   9.2613  13.8693   C.ar      2 RES2   0.0000
    57 H24     11.8140  10.0686  14.0107   H         2 RES2   0.0000
    58 C22     10.5809   8.7247  14.8923   C.ar      2 RES2   0.0000
    59 H25     10.5536   9.1579  15.7362   H         2 RES2   0.0000
    60 C23      9.8790   7.5729  14.6950   C.ar      2 RES2   0.0000
    61 H26      9.3545   7.2096  15.3989   H         2 RES2   0.0000
    62 C24      9.9313   6.9359  13.4734   C.ar      2 RES2   0.0000
    63 H27      9.4430   6.1325  13.3385   H         2 RES2   0.0000
    64 C25     11.5870   7.6979   9.6908   C.ar      2 RES2   0.0000
    65 C26     10.9509   8.6617   8.9143   C.ar      2 RES2   0.0000
    66 H28     10.0036   8.7198   8.9060   H         2 RES2   0.0000
    67 C27     11.7089   9.5379   8.1499   C.ar      2 RES2   0.0000
    68 H29     11.2797  10.1946   7.6132   H         2 RES2   0.0000
    69 C28     13.0901   9.4533   8.1697   C.ar      2 RES2   0.0000
    70 H30     13.6066  10.0637   7.6544   H         2 RES2   0.0000
    71 C29     13.7303   8.4865   8.9331   C.ar      2 RES2   0.0000
    72 H31     14.6786   8.4274   8.9267   H         2 RES2   0.0000
    73 C30     12.9863   7.6103   9.7008   C.ar      2 RES2   0.0000
    74 H32     13.4207   6.9526  10.2324   H         2 RES2   0.0000
    75 C31     11.4196   5.0397  10.8503   C.ar      2 RES2   0.0000
    76 C32     11.5979   4.3141  12.0234   C.ar      2 RES2   0.0000
    77 H33     11.3889   4.7060  12.8620   H         2 RES2   0.0000
    78 C33     12.0755   3.0333  11.9644   C.ar      2 RES2   0.0000
    79 H34     12.2066   2.5430  12.7667   H         2 RES2   0.0000
    80 C34     12.3690   2.4465  10.7460   C.ar      2 RES2   0.0000
    81 H35     12.6835   1.5506  10.7140   H         2 RES2   0.0000
    82 C35     12.2076   3.1622   9.5739   C.ar      2 RES2   0.0000
    83 H36     12.4238   2.7665   8.7386   H         2 RES2   0.0000
    84 C36     11.7326   4.4451   9.6244   C.ar      2 RES2   0.0000
    85 H37     11.6147   4.9353   8.8185   H         2 RES2   0.0000
    86 C37      8.9431   6.4958  10.3612   C.ar      2 RES2   0.0000
    87 C38      8.0784   7.5522  10.5577   C.ar      2 RES2   0.0000
    88 H38      8.4054   8.3693  10.9149   H         2 RES2   0.0000
    89 C39      6.7263   7.4301  10.2371   C.ar      2 RES2   0.0000
    90 H39      6.1347   8.1616  10.3715   H         2 RES2   0.0000
    91 C40      6.2537   6.2438   9.7256   C.ar      2 RES2   0.0000
    92 H40      5.3345   6.1591   9.4984   H         2 RES2   0.0000
    93 C41      7.1086   5.1795   9.5406   C.ar      2 RES2   0.0000
    94 H41      6.7726   4.3584   9.2022   H         2 RES2   0.0000
    95 C42      8.4562   5.2986   9.8453   C.ar      2 RES2   0.0000
    96 H42      9.0438   4.5662   9.7019   H         2 RES2   0.0000
    97 N10      8.4620   1.6481  10.4668   N.1       3 RES3   0.0000
    98 C43      8.3305   0.6261  12.9315   C.3       3 RES3   0.0000
    99 H43      7.3885   0.4046  13.0835   H         3 RES3   0.0000
   100 H44      8.6241   1.2818  13.5986   H         3 RES3   0.0000
   101 H45      8.8734  -0.1851  13.0114   H         3 RES3   0.0000
   102 C44      8.4922   1.2050  11.5588   C.1       3 RES3   0.0000
@<TRIPOS>BOND
     1     1     5    1
     2     2    11    3
     3     3    12    3
     4     4    13    3
     5     5     6   ar
     6     6    17   ar
     7     7     1    1
     8     8     7   ar
     9     9     1    1
    10    10     9   ar
    11    11     1    1
    12    12     1    1
    13    13     1    1
    14    14     5   ar
    15    15    14   ar
    16    16    15    1
    17    17    15   ar
    18    18    14    1
    19    19    18    1
    20    20    18    1
    21    21    18    1
    22    22    17    1
    23    23    22    1
    24    24    22    1
    25    25    22    1
    26    26     7   ar
    27    27    26   ar
    28    28    27    1
    29    29     8   ar
    30    30    26    1
    31    31    30    1
    32    32    30    1
    33    33    30    1
    34    34    29    1
    35    35    34    1
    36    36    34    1
    37    37    34    1
    38    38     9   ar
    39    39    38   ar
    40    40    39    1
    41    41    10   ar
    42    42    38    1
    43    43    42    1
    44    44    42    1
    45    45    42    1
    46    46    41    1
    47    47    46    1
    48    48    46    1
    49    49    46    1
    50    50     6    1
    51    51    50    1
    52     8    50    1
    53    10    50    1
    54    27    29   ar
    55    39    41   ar
    56    52    53    1
    57    53    54   ar
    58    54    55    1
    59    56    54   ar
    60    57    56    1
    61    58    56   ar
    62    59    58    1
    63    60    58   ar
    64    61    60    1
    65    62    53   ar
    66    63    62    1
    67    64    52    1
    68    65    64   ar
    69    66    65    1
    70    67    65   ar
    71    68    67    1
    72    69    67   ar
    73    70    69    1
    74    71    69   ar
    75    72    71    1
    76    73    64   ar
    77    74    73    1
    78    75    52    1
    79    76    75   ar
    80    77    76    1
    81    78    76   ar
    82    79    78    1
    83    80    78   ar
    84    81    80    1
    85    82    80   ar
    86    83    82    1
    87    84    75   ar
    88    85    84    1
    89    86    52    1
    90    87    86   ar
    91    88    87    1
    92    89    87   ar
    93    90    89    1
    94    91    89   ar
    95    92    91    1
    96    93    91   ar
    97    94    93    1
    98    95    86   ar
    99    96    95    1
   100    60    62   ar
   101    71    73   ar
   102    82    84   ar
   103    93    95   ar
   104    97   102    3
   105    98    99    1
   106   100    98    1
   107   101    98    1
   108   102    98    1
@<TRIPOS>SUBSTRUCTURE
     1 RES1        1 GROUP             0 ****  ****    0  
     2 RES2       52 GROUP             0 ****  ****    0  
     3 RES3       97 GROUP             0 ****  ****    0  
@<TRIPOS>CRYSIN
   16.3287    9.8451   26.4596   90.0000  103.2530   90.0000    14     1
