@<TRIPOS>MOLECULE
FOLXIQ
    83    92     1     0     0
SMALL
NO_CHARGES
****
Generated from the CSD

@<TRIPOS>ATOM
     1 Fe1      2.0144  10.3064   5.4904   Fe        1 RES1   0.0000
     2 S1       2.1968   7.6403   9.2972   S.2       1 RES1   0.0000
     3 C1       1.9085  12.3158   7.9314   C.ar      1 RES1   0.0000
     4 H1       1.0702  12.5694   7.5636   H         1 RES1   0.0000
     5 C2       2.3481  12.9350   9.0822   C.ar      1 RES1   0.0000
     6 H2       1.8288  13.6219   9.4852   H         1 RES1   0.0000
     7 C3       3.5460  12.5516   9.6444   C.ar      1 RES1   0.0000
     8 H3       3.8562  12.9631  10.4427   H         1 RES1   0.0000
     9 C4       4.2962  11.5565   9.0295   C.ar      1 RES1   0.0000
    10 H4       5.1203  11.2659   9.4017   H         1 RES1   0.0000
    11 C5       3.8091  11.0002   7.8578   C.ar      1 RES1   0.0000
    12 C6       4.5229  10.0234   7.0200   C.2       1 RES1   0.0000
    13 C7       5.8527   8.5438   6.1507   C.2       1 RES1   0.0000
    14 C8       6.8946   7.5292   5.9230   C.ar      1 RES1   0.0000
    15 C9       7.2059   7.1646   4.6130   C.ar      1 RES1   0.0000
    16 H5       6.7785   7.5744   3.8707   H         1 RES1   0.0000
    17 C10      8.1609   6.1862   4.4406   C.ar      1 RES1   0.0000
    18 H6       8.4268   5.9019   3.5742   H         1 RES1   0.0000
    19 C11      8.7161   5.6341   5.5826   C.ar      1 RES1   0.0000
    20 H7       9.3937   4.9762   5.4783   H         1 RES1   0.0000
    21 C12      6.3639   9.2342   8.5423   C.ar      1 RES1   0.0000
    22 C13      7.5106   9.9983   8.6638   C.ar      1 RES1   0.0000
    23 H8       7.8306  10.5149   7.9336   H         1 RES1   0.0000
    24 C14      8.1802   9.9916   9.8772   C.ar      1 RES1   0.0000
    25 H9       8.9657  10.5164   9.9804   H         1 RES1   0.0000
    26 C15      7.7164   9.2252  10.9522   C.ar      1 RES1   0.0000
    27 C16      6.5718   8.4547  10.7831   C.ar      1 RES1   0.0000
    28 H10      6.2589   7.9172  11.5013   H         1 RES1   0.0000
    29 C17      5.8788   8.4600   9.5796   C.ar      1 RES1   0.0000
    30 H11      5.0891   7.9430   9.4709   H         1 RES1   0.0000
    31 C18      8.4547   9.2210  12.2666   C.3       1 RES1   0.0000
    32 H12      8.0329   8.5799  12.8761   H         1 RES1   0.0000
    33 H13      8.4213  10.1177  12.6619   H         1 RES1   0.0000
    34 H14      9.3885   8.9651  12.1173   H         1 RES1   0.0000
    35 C19      1.8114   8.2489   7.8249   C.1       1 RES1   0.0000
    36 N1       2.6258  11.3673   7.3150   N.ar      1 RES1   0.0000
    37 N2       4.1118   9.7697   5.7951   N.2       1 RES1   0.0000
    38 N3       4.9498   8.8363   5.2401   N.2       1 RES1   0.0000
    39 N4       5.6262   9.2674   7.2989   N.pl3     1 RES1   0.0000
    40 N5       7.4316   6.9465   6.9946   N.ar      1 RES1   0.0000
    41 N6       8.3507   5.9742   6.8213   N.ar      1 RES1   0.0000
    42 N7       1.5588   8.6907   6.7850   N.2       1 RES1   0.0000
    43 S1A      1.8320  12.9725   1.6836   S.2       1 RES1   0.0000
    44 C1A      2.1203   8.2970   3.0494   C.ar      1 RES1   0.0000
    45 H1A      2.9586   8.0434   3.4172   H         1 RES1   0.0000
    46 C2A      1.6807   7.6778   1.8986   C.ar      1 RES1   0.0000
    47 H2A      2.2000   6.9909   1.4956   H         1 RES1   0.0000
    48 C3A      0.4829   8.0612   1.3364   C.ar      1 RES1   0.0000
    49 H3A      0.1726   7.6496   0.5381   H         1 RES1   0.0000
    50 C4A     -0.2674   9.0563   1.9513   C.ar      1 RES1   0.0000
    51 H4A     -1.0915   9.3469   1.5790   H         1 RES1   0.0000
    52 C5A      0.2197   9.6125   3.1229   C.ar      1 RES1   0.0000
    53 C6A     -0.4941  10.5893   3.9608   C.2       1 RES1   0.0000
    54 C7A     -1.8239  12.0690   4.8301   C.2       1 RES1   0.0000
    55 C8A     -2.8658  13.0836   5.0577   C.ar      1 RES1   0.0000
    56 C9A     -3.1771  13.4482   6.3678   C.ar      1 RES1   0.0000
    57 H5A     -2.7497  13.0384   7.1101   H         1 RES1   0.0000
    58 C10A    -4.1321  14.4266   6.5402   C.ar      1 RES1   0.0000
    59 H6A     -4.3980  14.7109   7.4065   H         1 RES1   0.0000
    60 C11A    -4.6872  14.9787   5.3982   C.ar      1 RES1   0.0000
    61 H7A     -5.3649  15.6366   5.5025   H         1 RES1   0.0000
    62 C12A    -2.3351  11.3786   2.4385   C.ar      1 RES1   0.0000
    63 C13A    -3.4818  10.6145   2.3169   C.ar      1 RES1   0.0000
    64 H8A     -3.8018  10.0979   3.0472   H         1 RES1   0.0000
    65 C14A    -4.1514  10.6212   1.1036   C.ar      1 RES1   0.0000
    66 H9A     -4.9369  10.0964   1.0003   H         1 RES1   0.0000
    67 C15A    -3.6876  11.3876   0.0286   C.ar      1 RES1   0.0000
    68 C16A    -2.5430  12.1581   0.1977   C.ar      1 RES1   0.0000
    69 H10A    -2.2301  12.6956  -0.5205   H         1 RES1   0.0000
    70 C17A    -1.8500  12.1528   1.4011   C.ar      1 RES1   0.0000
    71 H11A    -1.0603  12.6698   1.5099   H         1 RES1   0.0000
    72 C18A    -4.4259  11.3918  -1.2858   C.3       1 RES1   0.0000
    73 H12A    -4.0041  12.0329  -1.8953   H         1 RES1   0.0000
    74 H13A    -4.3925  10.4951  -1.6812   H         1 RES1   0.0000
    75 H14A    -5.3597  11.6477  -1.1365   H         1 RES1   0.0000
    76 C19A     2.2174  12.3639   3.1559   C.1       1 RES1   0.0000
    77 N1A      1.4030   9.2455   3.6658   N.ar      1 RES1   0.0000
    78 N2A     -0.0830  10.8431   5.1857   N.2       1 RES1   0.0000
    79 N3A     -0.9210  11.7765   5.7406   N.2       1 RES1   0.0000
    80 N4A     -1.5974  11.3454   3.6819   N.pl3     1 RES1   0.0000
    81 N5A     -3.4028  13.6663   3.9861   N.ar      1 RES1   0.0000
    82 N6A     -4.3219  14.6386   4.1595   N.ar      1 RES1   0.0000
    83 N7A      2.4700  11.9221   4.1958   N.2       1 RES1   0.0000
@<TRIPOS>BOND
     1     1    36    1
     2     2    35    2
     3     3     4    1
     4     5     3   ar
     5     6     5    1
     6     7     5   ar
     7     8     7    1
     8     9     7   ar
     9    10     9    1
    10    11     9   ar
    11    12    11    1
    12    13    14    1
    13    14    15   ar
    14    15    16    1
    15    17    15   ar
    16    18    17    1
    17    19    17   ar
    18    20    19    1
    19    21    22   ar
    20    22    23    1
    21    24    22   ar
    22    25    24    1
    23    26    24   ar
    24    27    26   ar
    25    28    27    1
    26    29    21   ar
    27    30    29    1
    28    31    26    1
    29    32    31    1
    30    33    31    1
    31    34    31    1
    32    35    42    2
    33    36     3   ar
    34    37     1    1
    35    38    13    2
    36    39    12    1
    37    40    14   ar
    38    41    19   ar
    39    42     1    1
    40    43    76    2
    41    44    45    1
    42    46    44   ar
    43    47    46    1
    44    48    46   ar
    45    49    48    1
    46    50    48   ar
    47    51    50    1
    48    52    50   ar
    49    53    52    1
    50    54    55    1
    51    55    56   ar
    52    56    57    1
    53    58    56   ar
    54    59    58    1
    55    60    58   ar
    56    61    60    1
    57    62    63   ar
    58    63    64    1
    59    65    63   ar
    60    66    65    1
    61    67    65   ar
    62    68    67   ar
    63    69    68    1
    64    70    62   ar
    65    71    70    1
    66    72    67    1
    67    73    72    1
    68    74    72    1
    69    75    72    1
    70    76    83    2
    71    77     1    1
    72    78     1    1
    73    79    54    2
    74    80    53    1
    75    81    55   ar
    76    82    60   ar
    77    83     1    1
    78    11    36   ar
    79    12    37    2
    80    13    39    1
    81    21    39    1
    82    27    29   ar
    83    37    38    1
    84    40    41   ar
    85    44    77   ar
    86    52    77   ar
    87    53    78    2
    88    54    80    1
    89    62    80    1
    90    68    70   ar
    91    78    79    1
    92    81    82   ar
@<TRIPOS>SUBSTRUCTURE
     1 RES1        1 GROUP             0 ****  ****    0  
@<TRIPOS>CRYSIN
    8.8022    9.0691   11.5779   76.4150   76.7050   85.6800     2     1
