@<TRIPOS>MOLECULE
FOLXUC
    95   102     3     0     0
SMALL
NO_CHARGES
****
Generated from the CSD

@<TRIPOS>ATOM
     1 Fe1      3.4592   6.4879  11.7109   Fe        1 RES1   0.0000
     2 S1       1.0298   8.5156   8.1622   S.2       1 RES1   0.0000
     3 N1       4.7094   8.0800  11.8179   N.ar      1 RES1   0.0000
     4 N2      -0.2882  10.2107  15.5132   N.ar      1 RES1   0.0000
     5 C1       6.2656  10.3780  12.1126   C.ar      1 RES1   0.0000
     6 H1       6.7986  11.1579  12.2074   H         1 RES1   0.0000
     7 N3       1.2319   7.5921  13.5460   N.2       1 RES1   0.0000
     8 N4       2.1300   9.5800  13.9268   N.pl3     1 RES1   0.0000
     9 C2      -1.0105   7.9516  15.1869   C.ar      1 RES1   0.0000
    10 H2      -0.8752   7.1068  14.7721   H         1 RES1   0.0000
    11 C3       1.8992   7.8166   9.3619   C.1       1 RES1   0.0000
    12 N5       2.5314   7.3106  10.2025   N.2       1 RES1   0.0000
    13 C4       1.0543   8.7548  14.1505   C.2       1 RES1   0.0000
    14 C5       2.1297  11.9546  13.4230   C.ar      1 RES1   0.0000
    15 H3       1.8831  11.7496  12.5283   H         1 RES1   0.0000
    16 C6       4.2853   9.1337  12.5709   C.ar      1 RES1   0.0000
    17 C7       5.0287  10.2846  12.7468   C.ar      1 RES1   0.0000
    18 H4       4.7047  10.9957  13.2872   H         1 RES1   0.0000
    19 C8       2.3131  10.9542  14.3475   C.ar      1 RES1   0.0000
    20 C9       5.9065   8.1916  11.2263   C.ar      1 RES1   0.0000
    21 H5       6.2222   7.4650  10.7014   H         1 RES1   0.0000
    22 N6      -1.3325  10.4299  16.3212   N.ar      1 RES1   0.0000
    23 C10     -2.2033   9.4295  16.5833   C.ar      1 RES1   0.0000
    24 H6      -2.9230   9.5943  17.1822   H         1 RES1   0.0000
    25 C11      6.7056   9.3166  11.3441   C.ar      1 RES1   0.0000
    26 H7       7.5454   9.3594  10.9028   H         1 RES1   0.0000
    27 C12      2.6821  11.2293  15.6560   C.ar      1 RES1   0.0000
    28 H8       2.8114  10.5260  16.2828   H         1 RES1   0.0000
    29 C13      2.6641  13.5896  15.1288   C.ar      1 RES1   0.0000
    30 C14      2.3111  13.2716  13.8228   C.ar      1 RES1   0.0000
    31 H9       2.1920  13.9710  13.1911   H         1 RES1   0.0000
    32 C15      2.9712   8.8456  13.1443   C.2       1 RES1   0.0000
    33 C16     -0.1291   9.0052  14.9798   C.ar      1 RES1   0.0000
    34 C17     -2.0869   8.1761  16.0149   C.ar      1 RES1   0.0000
    35 H10     -2.7264   7.4948  16.1891   H         1 RES1   0.0000
    36 C18      2.8597  12.5515  16.0317   C.ar      1 RES1   0.0000
    37 H11      3.1195  12.7513  16.9222   H         1 RES1   0.0000
    38 C19      2.8186  15.0299  15.5520   C.3       1 RES1   0.0000
    39 H12      3.7595  15.2933  15.4747   H         1 RES1   0.0000
    40 H13      2.5256  15.1311  16.4819   H         1 RES1   0.0000
    41 H14      2.2708  15.6008  14.9735   H         1 RES1   0.0000
    42 N7       2.4372   7.6609  12.9157   N.2       1 RES1   0.0000
    43 S1B      5.8886   4.4602  15.2595   S.2       1 RES1   0.0000
    44 N1B      2.2090   4.8958  11.6038   N.ar      1 RES1   0.0000
    45 N2B      7.2066   2.7651   7.9086   N.ar      1 RES1   0.0000
    46 C1B      0.6528   2.5978  11.3092   C.ar      1 RES1   0.0000
    47 H1B      0.1198   1.8179  11.2143   H         1 RES1   0.0000
    48 N3B      5.6865   5.3837   9.8758   N.2       1 RES1   0.0000
    49 N4B      4.7884   3.3958   9.4949   N.pl3     1 RES1   0.0000
    50 C2B      7.9288   5.0242   8.2349   C.ar      1 RES1   0.0000
    51 H2B      7.7936   5.8690   8.6497   H         1 RES1   0.0000
    52 C3B      5.0192   5.1592  14.0598   C.1       1 RES1   0.0000
    53 N5B      4.3870   5.6652  13.2192   N.2       1 RES1   0.0000
    54 C4B      5.8641   4.2210   9.2713   C.2       1 RES1   0.0000
    55 C5B      4.7886   1.0212   9.9987   C.ar      1 RES1   0.0000
    56 H3B      5.0352   1.2262  10.8935   H         1 RES1   0.0000
    57 C6B      2.6331   3.8421  10.8508   C.ar      1 RES1   0.0000
    58 C7B      1.8897   2.6912  10.6749   C.ar      1 RES1   0.0000
    59 H4B      2.2137   1.9801  10.1346   H         1 RES1   0.0000
    60 C8B      4.6053   2.0216   9.0743   C.ar      1 RES1   0.0000
    61 C9B      1.0119   4.7842  12.1955   C.ar      1 RES1   0.0000
    62 H5B      0.6962   5.5108  12.7203   H         1 RES1   0.0000
    63 N6B      8.2509   2.5459   7.1005   N.ar      1 RES1   0.0000
    64 C10B     9.1217   3.5463   6.8384   C.ar      1 RES1   0.0000
    65 H6B      9.8414   3.3815   6.2396   H         1 RES1   0.0000
    66 C11B     0.2128   3.6592  12.0777   C.ar      1 RES1   0.0000
    67 H7B     -0.6270   3.6164  12.5189   H         1 RES1   0.0000
    68 C12B     4.2363   1.7465   7.7657   C.ar      1 RES1   0.0000
    69 H8B      4.1070   2.4498   7.1389   H         1 RES1   0.0000
    70 C13B     4.2542  -0.6138   8.2929   C.ar      1 RES1   0.0000
    71 C14B     4.6072  -0.2958   9.5989   C.ar      1 RES1   0.0000
    72 H9B      4.7264  -0.9952  10.2306   H         1 RES1   0.0000
    73 C15B     3.9472   4.1302  10.2775   C.2       1 RES1   0.0000
    74 C16B     7.0475   3.9706   8.4419   C.ar      1 RES1   0.0000
    75 C17B     9.0053   4.7997   7.4069   C.ar      1 RES1   0.0000
    76 H10B     9.6448   5.4810   7.2326   H         1 RES1   0.0000
    77 C18B     4.0587   0.4243   7.3900   C.ar      1 RES1   0.0000
    78 H11B     3.7989   0.2245   6.4995   H         1 RES1   0.0000
    79 C19B     4.0998  -2.0541   7.8697   C.3       1 RES1   0.0000
    80 H12B     3.1589  -2.3175   7.9470   H         1 RES1   0.0000
    81 H13B     4.3927  -2.1553   6.9399   H         1 RES1   0.0000
    82 H14B     4.6475  -2.6250   8.4482   H         1 RES1   0.0000
    83 N7B      4.4812   5.3149  10.5061   N.2       1 RES1   0.0000
    84 C20      0.6595  12.2556   9.3099   C.1       2 RES2   0.0000
    85 N8       0.9778  12.2998  10.3854   N.1       2 RES2   0.0000
    86 C21      0.2297  12.2245   7.9308   C.3       2 RES2   0.0000
    87 H15      1.0043  12.3465   7.3451   H         2 RES2   0.0000
    88 H16     -0.4166  12.9434   7.7737   H         2 RES2   0.0000
    89 H17     -0.1916  11.3603   7.7385   H         2 RES2   0.0000
    90 N9      -1.1289  11.5835   5.1448   N.1       3 RES3   0.0000
    91 C22     -1.4623  14.0593   4.4543   C.3       3 RES3   0.0000
    92 H18     -0.7703  14.3149   3.8084   H         3 RES3   0.0000
    93 H19     -1.3961  14.6315   5.2465   H         3 RES3   0.0000
    94 H20     -2.3464  14.1696   4.0449   H         3 RES3   0.0000
    95 C23     -1.2766  12.6722   4.8415   C.1       3 RES3   0.0000
@<TRIPOS>BOND
     1     1     3    1
     2     2    11    2
     3     3    16   ar
     4     4    22   ar
     5     5     6    1
     6     7    13    2
     7     8    13    1
     8     9    10    1
     9    11    12    2
    10    12     1    1
    11    13    33    1
    12    14    15    1
    13    16    17   ar
    14    17     5   ar
    15    18    17    1
    16    19     8    1
    17    20     3   ar
    18    21    20    1
    19    22    23   ar
    20    23    24    1
    21    25     5   ar
    22    26    25    1
    23    27    19   ar
    24    28    27    1
    25    29    30   ar
    26    30    14   ar
    27    31    30    1
    28    32     8    1
    29    33     4   ar
    30    34     9   ar
    31    35    34    1
    32    36    27   ar
    33    37    36    1
    34    38    29    1
    35    39    38    1
    36    40    38    1
    37    41    38    1
    38    42     1    1
    39    43    52    2
    40    44     1    1
    41    45    63   ar
    42    46    47    1
    43    48    54    2
    44    49    54    1
    45    50    51    1
    46    52    53    2
    47    53     1    1
    48    54    74    1
    49    55    56    1
    50    57    44   ar
    51    58    46   ar
    52    59    58    1
    53    60    49    1
    54    61    44   ar
    55    62    61    1
    56    63    64   ar
    57    64    65    1
    58    66    46   ar
    59    67    66    1
    60    68    60   ar
    61    69    68    1
    62    70    71   ar
    63    71    55   ar
    64    72    71    1
    65    73    49    1
    66    74    45   ar
    67    75    50   ar
    68    76    75    1
    69    77    68   ar
    70    78    77    1
    71    79    70    1
    72    80    79    1
    73    81    79    1
    74    82    79    1
    75    83     1    1
    76     7    42    1
    77     9    33   ar
    78    14    19   ar
    79    16    32    1
    80    20    25   ar
    81    23    34   ar
    82    29    36   ar
    83    32    42    2
    84    48    83    1
    85    50    74   ar
    86    55    60   ar
    87    57    58   ar
    88    57    73    1
    89    61    66   ar
    90    64    75   ar
    91    70    77   ar
    92    73    83    2
    93    84    85    3
    94    86    84    1
    95    87    86    1
    96    88    86    1
    97    89    86    1
    98    90    95    3
    99    91    92    1
   100    93    91    1
   101    94    91    1
   102    95    91    1
@<TRIPOS>SUBSTRUCTURE
     1 RES1        1 GROUP             0 ****  ****    0  
     2 RES2       84 GROUP             0 ****  ****    0  
     3 RES3       90 GROUP             0 ****  ****    0  
@<TRIPOS>CRYSIN
    7.6915   12.9758   23.4345   90.0000   91.8905   90.0000   231     1
