@<TRIPOS>MOLECULE
FOLXOW
    83    92     1     0     0
SMALL
NO_CHARGES
****
Generated from the CSD

@<TRIPOS>ATOM
     1 Fe1     10.2067   1.2917   5.4866   Fe        1 RES1   0.0000
     2 Se1     10.0666   4.0102   1.5465   Se        1 RES1   0.0000
     3 C1      10.0781   3.2796   7.9336   C.ar      1 RES1   0.0000
     4 H1       9.2344   3.5241   7.5726   H         1 RES1   0.0000
     5 C2      10.5210   3.9038   9.0770   C.ar      1 RES1   0.0000
     6 H2       9.9943   4.5816   9.4841   H         1 RES1   0.0000
     7 C3      11.7352   3.5397   9.6323   C.ar      1 RES1   0.0000
     8 H3      12.0481   3.9602  10.4234   H         1 RES1   0.0000
     9 C4      12.4861   2.5546   9.0189   C.ar      1 RES1   0.0000
    10 H4      13.3164   2.2759   9.3854   H         1 RES1   0.0000
    11 C5      11.9959   1.9857   7.8557   C.ar      1 RES1   0.0000
    12 C6      12.7080   1.0058   7.0218   C.2       1 RES1   0.0000
    13 C7      14.0406  -0.4784   6.1626   C.2       1 RES1   0.0000
    14 C8      15.0865  -1.4809   5.9420   C.ar      1 RES1   0.0000
    15 C9      15.4161  -1.8377   4.6384   C.ar      1 RES1   0.0000
    16 H5      14.9992  -1.4221   3.8933   H         1 RES1   0.0000
    17 C10     16.3679  -2.8162   4.4694   C.ar      1 RES1   0.0000
    18 H6      16.6447  -3.0902   3.6025   H         1 RES1   0.0000
    19 C11     16.9075  -3.3845   5.6073   C.ar      1 RES1   0.0000
    20 H7      17.5823  -4.0458   5.5053   H         1 RES1   0.0000
    21 C12     14.5630   0.2434   8.5459   C.ar      1 RES1   0.0000
    22 C13     15.7046   1.0194   8.6568   C.ar      1 RES1   0.0000
    23 H8      16.0147   1.5354   7.9216   H         1 RES1   0.0000
    24 C14     16.3860   1.0252   9.8649   C.ar      1 RES1   0.0000
    25 H9      17.1704   1.5535   9.9571   H         1 RES1   0.0000
    26 C15     15.9361   0.2645  10.9491   C.ar      1 RES1   0.0000
    27 C16     14.7913  -0.5117  10.7910   C.ar      1 RES1   0.0000
    28 H10     14.4826  -1.0398  11.5175   H         1 RES1   0.0000
    29 C17     14.0931  -0.5256   9.5906   C.ar      1 RES1   0.0000
    30 H11     13.3098  -1.0537   9.4918   H         1 RES1   0.0000
    31 C18     16.6855   0.2675  12.2538   C.3       1 RES1   0.0000
    32 H12     17.6246   0.0404  12.0914   H         1 RES1   0.0000
    33 H13     16.2896  -0.3924  12.8595   H         1 RES1   0.0000
    34 H14     16.6303   1.1584  12.6598   H         1 RES1   0.0000
    35 C19     10.4707   3.3560   3.1680   C.1       1 RES1   0.0000
    36 N1      10.8011   2.3406   7.3158   N.ar      1 RES1   0.0000
    37 N2      12.2908   0.7357   5.8048   N.2       1 RES1   0.0000
    38 N3      13.1286  -0.2000   5.2551   N.2       1 RES1   0.0000
    39 N4      13.8161   0.2593   7.3060   N.pl3     1 RES1   0.0000
    40 N5      15.6099  -2.0816   7.0152   N.ar      1 RES1   0.0000
    41 N6      16.5245  -3.0491   6.8506   N.ar      1 RES1   0.0000
    42 N7      10.7125   2.9155   4.2005   N.2       1 RES1   0.0000
    43 Se1A    10.3468  -1.4268   9.4268   Se        1 RES1   0.0000
    44 C1A     10.3353  -0.6961   3.0396   C.ar      1 RES1   0.0000
    45 H1A     11.1790  -0.9407   3.4006   H         1 RES1   0.0000
    46 C2A      9.8924  -1.3203   1.8962   C.ar      1 RES1   0.0000
    47 H2A     10.4191  -1.9981   1.4891   H         1 RES1   0.0000
    48 C3A      8.6782  -0.9562   1.3409   C.ar      1 RES1   0.0000
    49 H3A      8.3653  -1.3767   0.5498   H         1 RES1   0.0000
    50 C4A      7.9272   0.0289   1.9543   C.ar      1 RES1   0.0000
    51 H4A      7.0969   0.3075   1.5878   H         1 RES1   0.0000
    52 C5A      8.4175   0.5978   3.1175   C.ar      1 RES1   0.0000
    53 C6A      7.7053   1.5776   3.9515   C.2       1 RES1   0.0000
    54 C7A      6.3728   3.0618   4.8107   C.2       1 RES1   0.0000
    55 C8A      5.3269   4.0643   5.0312   C.ar      1 RES1   0.0000
    56 C9A      4.9972   4.4211   6.3348   C.ar      1 RES1   0.0000
    57 H5A      5.4141   4.0055   7.0799   H         1 RES1   0.0000
    58 C10A     4.0455   5.3997   6.5038   C.ar      1 RES1   0.0000
    59 H6A      3.7686   5.6737   7.3707   H         1 RES1   0.0000
    60 C11A     3.5059   5.9679   5.3659   C.ar      1 RES1   0.0000
    61 H7A      2.8311   6.6293   5.4679   H         1 RES1   0.0000
    62 C12A     5.8504   2.3400   2.4273   C.ar      1 RES1   0.0000
    63 C13A     4.7088   1.5640   2.3164   C.ar      1 RES1   0.0000
    64 H8A      4.3986   1.0480   3.0516   H         1 RES1   0.0000
    65 C14A     4.0274   1.5583   1.1083   C.ar      1 RES1   0.0000
    66 H9A      3.2429   1.0300   1.0161   H         1 RES1   0.0000
    67 C15A     4.4772   2.3190   0.0241   C.ar      1 RES1   0.0000
    68 C16A     5.6221   3.0952   0.1822   C.ar      1 RES1   0.0000
    69 H10A     5.9308   3.6232  -0.5443   H         1 RES1   0.0000
    70 C17A     6.3203   3.1091   1.3826   C.ar      1 RES1   0.0000
    71 H11A     7.1035   3.6371   1.4814   H         1 RES1   0.0000
    72 C18A     3.7279   2.3159  -1.2806   C.3       1 RES1   0.0000
    73 H12A     2.7888   2.5430  -1.1182   H         1 RES1   0.0000
    74 H13A     4.1237   2.9759  -1.8863   H         1 RES1   0.0000
    75 H14A     3.7830   1.4250  -1.6866   H         1 RES1   0.0000
    76 C19A     9.9427  -0.7725   7.8052   C.1       1 RES1   0.0000
    77 N1A      9.6122   0.2428   3.6574   N.ar      1 RES1   0.0000
    78 N2A      8.1226   1.8478   5.1684   N.2       1 RES1   0.0000
    79 N3A      7.2848   2.7834   5.7181   N.2       1 RES1   0.0000
    80 N4A      6.5972   2.3242   3.6672   N.pl3     1 RES1   0.0000
    81 N5A      4.8034   4.6650   3.9580   N.ar      1 RES1   0.0000
    82 N6A      3.8889   5.6326   4.1226   N.ar      1 RES1   0.0000
    83 N7A      9.7009  -0.3320   6.7727   N.2       1 RES1   0.0000
@<TRIPOS>BOND
     1     1    36    1
     2     2    35    2
     3     3     4    1
     4     5     3   ar
     5     6     5    1
     6     7     5   ar
     7     8     7    1
     8     9     7   ar
     9    10     9    1
    10    11     9   ar
    11    12    11    1
    12    13    14    1
    13    14    15   ar
    14    15    16    1
    15    17    15   ar
    16    18    17    1
    17    19    17   ar
    18    20    19    1
    19    21    22   ar
    20    22    23    1
    21    24    22   ar
    22    25    24    1
    23    26    24   ar
    24    27    26   ar
    25    28    27    1
    26    29    21   ar
    27    30    29    1
    28    31    26    1
    29    32    31    1
    30    33    31    1
    31    34    31    1
    32    35    42    2
    33    36     3   ar
    34    37     1    1
    35    38    13    2
    36    39    12    1
    37    40    14   ar
    38    41    19   ar
    39    42     1    1
    40    43    76    2
    41    44    45    1
    42    46    44   ar
    43    47    46    1
    44    48    46   ar
    45    49    48    1
    46    50    48   ar
    47    51    50    1
    48    52    50   ar
    49    53    52    1
    50    54    55    1
    51    55    56   ar
    52    56    57    1
    53    58    56   ar
    54    59    58    1
    55    60    58   ar
    56    61    60    1
    57    62    63   ar
    58    63    64    1
    59    65    63   ar
    60    66    65    1
    61    67    65   ar
    62    68    67   ar
    63    69    68    1
    64    70    62   ar
    65    71    70    1
    66    72    67    1
    67    73    72    1
    68    74    72    1
    69    75    72    1
    70    76    83    2
    71    77     1    1
    72    78     1    1
    73    79    54    2
    74    80    53    1
    75    81    55   ar
    76    82    60   ar
    77    83     1    1
    78    11    36   ar
    79    12    37    2
    80    13    39    1
    81    21    39    1
    82    27    29   ar
    83    37    38    1
    84    40    41   ar
    85    44    77   ar
    86    52    77   ar
    87    53    78    2
    88    54    80    1
    89    62    80    1
    90    68    70   ar
    91    78    79    1
    92    81    82   ar
@<TRIPOS>SUBSTRUCTURE
     1 RES1        1 GROUP             0 ****  ****    0  
@<TRIPOS>CRYSIN
    8.8922    9.1156   11.5757   75.9560   76.8730   84.8490     2     1
