@<TRIPOS>MOLECULE
FOLYEN01
    95   102     3     0     0
SMALL
NO_CHARGES
****
Generated from the CSD

@<TRIPOS>ATOM
     1 Fe1     11.9627  12.1134   6.8412   Fe        1 RES1   0.0000
     2 N1      10.7604  12.1232   8.6961   N.ar      1 RES1   0.0000
     3 N2      12.9825  10.7863   8.1902   N.2       1 RES1   0.0000
     4 N3      14.1929  10.1453   8.1605   N.2       1 RES1   0.0000
     5 N4      13.4695  10.2199  10.2462   N.pl3     1 RES1   0.0000
     6 N5      15.9330   8.7261  10.9714   N.ar      1 RES1   0.0000
     7 N6      17.0524   8.0378  11.2593   N.ar      1 RES1   0.0000
     8 C1       9.5873  12.7320   8.8457   C.ar      1 RES1   0.0000
     9 H1       9.2290  13.1880   8.1178   H         1 RES1   0.0000
    10 C2       8.8745  12.7212  10.0320   C.ar      1 RES1   0.0000
    11 H2       8.0596  13.1631  10.1017   H         1 RES1   0.0000
    12 C3       9.3963  12.0432  11.1006   C.ar      1 RES1   0.0000
    13 H3       8.9375  12.0211  11.9092   H         1 RES1   0.0000
    14 C4      10.6098  11.3921  10.9717   C.ar      1 RES1   0.0000
    15 H4      10.9706  10.9149  11.6834   H         1 RES1   0.0000
    16 C5      11.2764  11.4653   9.7595   C.ar      1 RES1   0.0000
    17 C6      12.5613  10.8226   9.4347   C.2       1 RES1   0.0000
    18 C7      14.4771   9.8135   9.3991   C.2       1 RES1   0.0000
    19 C8      15.7182   9.0967   9.7212   C.ar      1 RES1   0.0000
    20 C9      16.6045   8.8355   8.6870   C.ar      1 RES1   0.0000
    21 H5      16.4335   9.1244   7.8195   H         1 RES1   0.0000
    22 C10     17.7248   8.1440   8.9880   C.ar      1 RES1   0.0000
    23 H6      18.3532   7.9333   8.3353   H         1 RES1   0.0000
    24 C11     17.8978   7.7650  10.2906   C.ar      1 RES1   0.0000
    25 H7      18.6641   7.2838  10.5054   H         1 RES1   0.0000
    26 C12     13.4260  10.1628  11.6942   C.ar      1 RES1   0.0000
    27 C13     13.6667  11.3131  12.3949   C.ar      1 RES1   0.0000
    28 H8      13.8895  12.1008  11.9516   H         1 RES1   0.0000
    29 C14     13.5732  11.2843  13.7727   C.ar      1 RES1   0.0000
    30 H9      13.7385  12.0619  14.2557   H         1 RES1   0.0000
    31 C15     13.2414  10.1311  14.4473   C.ar      1 RES1   0.0000
    32 C16     13.0127   8.9769  13.7084   C.ar      1 RES1   0.0000
    33 H10     12.7936   8.1867  14.1490   H         1 RES1   0.0000
    34 C17     13.1085   8.9874  12.3292   C.ar      1 RES1   0.0000
    35 H11     12.9596   8.2114  11.8394   H         1 RES1   0.0000
    36 C18     13.1374  10.1199  15.9523   C.3       1 RES1   0.0000
    37 H12     12.8985   9.2386  16.2506   H         1 RES1   0.0000
    38 H13     13.9827  10.3679  16.3341   H         1 RES1   0.0000
    39 H14     12.4647  10.7454  16.2315   H         1 RES1   0.0000
    40 N7      10.7967  10.5519   6.0367   N.2       1 RES1   0.0000
    41 C19     10.1591   9.7071   5.5879   C.1       1 RES1   0.0000
    42 Se1      9.1555   8.3785   4.9392   Se        1 RES1   0.0000
    43 N1A     13.1651  12.1036   4.9863   N.ar      1 RES1   0.0000
    44 N2A     10.9429  13.4405   5.4923   N.2       1 RES1   0.0000
    45 N3A      9.7326  14.0815   5.5220   N.2       1 RES1   0.0000
    46 N4A     10.4560  14.0070   3.4362   N.pl3     1 RES1   0.0000
    47 N5A      7.9925  15.5007   2.7110   N.ar      1 RES1   0.0000
    48 N6A      6.8731  16.1891   2.4232   N.ar      1 RES1   0.0000
    49 C1A     14.3381  11.4949   4.8367   C.ar      1 RES1   0.0000
    50 H1A     14.6965  11.0388   5.5646   H         1 RES1   0.0000
    51 C2A     15.0510  11.5057   3.6505   C.ar      1 RES1   0.0000
    52 H2A     15.8659  11.0637   3.5807   H         1 RES1   0.0000
    53 C3A     14.5292  12.1836   2.5819   C.ar      1 RES1   0.0000
    54 H3A     14.9880  12.2057   1.7732   H         1 RES1   0.0000
    55 C4A     13.3157  12.8348   2.7108   C.ar      1 RES1   0.0000
    56 H4A     12.9549  13.3119   1.9990   H         1 RES1   0.0000
    57 C5A     12.6491  12.7616   3.9229   C.ar      1 RES1   0.0000
    58 C6A     11.3642  13.4043   4.2477   C.2       1 RES1   0.0000
    59 C7A      9.4484  14.4133   4.2833   C.2       1 RES1   0.0000
    60 C8A      8.2072  15.1301   3.9612   C.ar      1 RES1   0.0000
    61 C9A      7.3210  15.3913   4.9955   C.ar      1 RES1   0.0000
    62 H5A      7.4920  15.1025   5.8629   H         1 RES1   0.0000
    63 C10A     6.2007  16.0829   4.6944   C.ar      1 RES1   0.0000
    64 H6A      5.5722  16.2936   5.3471   H         1 RES1   0.0000
    65 C11A     6.0276  16.4618   3.3919   C.ar      1 RES1   0.0000
    66 H7A      5.2614  16.9431   3.1771   H         1 RES1   0.0000
    67 C12A    10.4995  14.0640   1.9882   C.ar      1 RES1   0.0000
    68 C13A    10.2588  12.9137   1.2875   C.ar      1 RES1   0.0000
    69 H8A     10.0360  12.1261   1.7308   H         1 RES1   0.0000
    70 C14A    10.3523  12.9426  -0.0903   C.ar      1 RES1   0.0000
    71 H9A     10.1869  12.1650  -0.5733   H         1 RES1   0.0000
    72 C15A    10.6840  14.0957  -0.7648   C.ar      1 RES1   0.0000
    73 C16A    10.9127  15.2499  -0.0260   C.ar      1 RES1   0.0000
    74 H10A    11.1319  16.0401  -0.4666   H         1 RES1   0.0000
    75 C17A    10.8169  15.2395   1.3532   C.ar      1 RES1   0.0000
    76 H11A    10.9658  16.0155   1.8430   H         1 RES1   0.0000
    77 C18A    10.7880  14.1070  -2.2699   C.3       1 RES1   0.0000
    78 H12A    11.0270  14.9882  -2.5682   H         1 RES1   0.0000
    79 H13A     9.9427  13.8590  -2.6517   H         1 RES1   0.0000
    80 H14A    11.4608  13.4815  -2.5490   H         1 RES1   0.0000
    81 N7A     13.1288  13.6749   7.6457   N.2       1 RES1   0.0000
    82 C19A    13.7663  14.5198   8.0945   C.1       1 RES1   0.0000
    83 Se1A    14.7700  15.8483   8.7432   Se        1 RES1   0.0000
    84 N8       6.7266   6.0616   4.2251   N.1       2 RES2   0.0000
    85 C20      6.1102   6.7355   4.8655   C.1       2 RES2   0.0000
    86 C21      5.3236   7.6257   5.6905   C.3       2 RES2   0.0000
    87 H15      4.6799   7.1151   6.1872   H         2 RES2   0.0000
    88 H16      4.8681   8.2602   5.1336   H         2 RES2   0.0000
    89 H17      5.9004   8.0910   6.2994   H         2 RES2   0.0000
    90 N9       6.4547  12.8843  -0.7813   N.1       3 RES3   0.0000
    91 C22      6.7538  13.9565  -0.8428   C.1       3 RES3   0.0000
    92 C23      7.1393  15.3345  -0.9044   C.3       3 RES3   0.0000
    93 H18      6.3546  15.8875  -0.8976   H         3 RES3   0.0000
    94 H19      7.6349  15.4926  -1.7117   H         3 RES3   0.0000
    95 H20      7.6877  15.5481  -0.1450   H         3 RES3   0.0000
@<TRIPOS>BOND
     1     1     2    1
     2     2     8   ar
     3     3     1    1
     4     4     3    1
     5     5    17    1
     6     6     7   ar
     7     7    24   ar
     8     8     9    1
     9    10     8   ar
    10    11    10    1
    11    12    10   ar
    12    13    12    1
    13    14    12   ar
    14    15    14    1
    15    16     2   ar
    16    17     3    2
    17    18     4    2
    18    19     6   ar
    19    20    19   ar
    20    21    20    1
    21    22    20   ar
    22    23    22    1
    23    24    22   ar
    24    25    24    1
    25    26     5    1
    26    27    26   ar
    27    28    27    1
    28    29    27   ar
    29    30    29    1
    30    31    29   ar
    31    32    31   ar
    32    33    32    1
    33    34    26   ar
    34    35    34    1
    35    36    31    1
    36    37    36    1
    37    38    36    1
    38    39    36    1
    39    40     1    1
    40    41    40    2
    41    42    41    2
    42    43     1    1
    43    44     1    1
    44    45    44    1
    45    46    58    1
    46    47    48   ar
    47    48    65   ar
    48    49    43   ar
    49    50    49    1
    50    51    49   ar
    51    52    51    1
    52    53    51   ar
    53    54    53    1
    54    55    53   ar
    55    56    55    1
    56    57    43   ar
    57    58    44    2
    58    59    45    2
    59    60    47   ar
    60    61    60   ar
    61    62    61    1
    62    63    61   ar
    63    64    63    1
    64    65    63   ar
    65    66    65    1
    66    67    46    1
    67    68    67   ar
    68    69    68    1
    69    70    68   ar
    70    71    70    1
    71    72    70   ar
    72    73    72   ar
    73    74    73    1
    74    75    67   ar
    75    76    75    1
    76    77    72    1
    77    78    77    1
    78    79    77    1
    79    80    77    1
    80    81     1    1
    81    82    81    2
    82    83    82    2
    83     5    18    1
    84    14    16   ar
    85    16    17    1
    86    18    19    1
    87    32    34   ar
    88    46    59    1
    89    55    57   ar
    90    57    58    1
    91    59    60    1
    92    73    75   ar
    93    84    85    3
    94    85    86    1
    95    86    87    1
    96    88    86    1
    97    89    86    1
    98    90    91    3
    99    91    92    1
   100    92    93    1
   101    94    92    1
   102    95    92    1
@<TRIPOS>SUBSTRUCTURE
     1 RES1        1 GROUP             0 ****  ****    0  
     2 RES2       84 GROUP             0 ****  ****    0  
     3 RES3       90 GROUP             0 ****  ****    0  
@<TRIPOS>CRYSIN
    7.6962   12.0272   13.7862   83.2210   86.0890   71.6000     2     1
