@<TRIPOS>MOLECULE
FOLYEN
    95   102     3     0     0
SMALL
NO_CHARGES
****
Generated from the CSD

@<TRIPOS>ATOM
     1 Fe1     11.2122  12.1134   6.7301   Fe        1 RES1   0.0000
     2 N1      10.0172  12.1834   8.3636   N.ar      1 RES1   0.0000
     3 N2      12.2517  10.9838   7.9796   N.2       1 RES1   0.0000
     4 N3      13.4494  10.3232   7.9472   N.2       1 RES1   0.0000
     5 N4      12.6929  10.3298  10.0306   N.pl3     1 RES1   0.0000
     6 N5      15.1431   8.8636  10.7923   N.ar      1 RES1   0.0000
     7 N6      16.2458   8.1472  11.1044   N.ar      1 RES1   0.0000
     8 C1       8.8117  12.7736   8.4476   C.ar      1 RES1   0.0000
     9 H1       8.4454  13.1844   7.6737   H         1 RES1   0.0000
    10 C2       8.0818  12.8016   9.6321   C.ar      1 RES1   0.0000
    11 H2       7.2370  13.2341   9.6604   H         1 RES1   0.0000
    12 C3       8.5868  12.2016  10.7614   C.ar      1 RES1   0.0000
    13 H3       8.0978  12.2201  11.5758   H         1 RES1   0.0000
    14 C4       9.8201  11.5686  10.6941   C.ar      1 RES1   0.0000
    15 H4      10.1856  11.1302  11.4547   H         1 RES1   0.0000
    16 C5      10.5033  11.5938   9.4904   C.ar      1 RES1   0.0000
    17 C6      11.7987  10.9690   9.2229   C.2       1 RES1   0.0000
    18 C7      13.7060   9.9443   9.1843   C.2       1 RES1   0.0000
    19 C8      14.9381   9.2035   9.5296   C.ar      1 RES1   0.0000
    20 C9      15.8175   8.9005   8.4826   C.ar      1 RES1   0.0000
    21 H5      15.6497   9.1856   7.5929   H         1 RES1   0.0000
    22 C10     16.9249   8.1764   8.8057   C.ar      1 RES1   0.0000
    23 H6      17.5593   7.9246   8.1461   H         1 RES1   0.0000
    24 C11     17.0892   7.8229  10.1355   C.ar      1 RES1   0.0000
    25 H7      17.8560   7.3122  10.3671   H         1 RES1   0.0000
    26 C12     12.6152  10.2655  11.4773   C.ar      1 RES1   0.0000
    27 C13     12.8220  11.4299  12.1850   C.ar      1 RES1   0.0000
    28 H8      13.0414  12.2365  11.7346   H         1 RES1   0.0000
    29 C14     12.7050  11.4022  13.5693   C.ar      1 RES1   0.0000
    30 H9      12.8513  12.1988  14.0659   H         1 RES1   0.0000
    31 C15     12.3784  10.2317  14.2382   C.ar      1 RES1   0.0000
    32 C16     12.1803   9.0707  13.4925   C.ar      1 RES1   0.0000
    33 H10     11.9616   8.2613  13.9381   H         1 RES1   0.0000
    34 C17     12.2983   9.0783  12.1102   C.ar      1 RES1   0.0000
    35 H11     12.1630   8.2834  11.6081   H         1 RES1   0.0000
    36 C18     12.2531  10.2236  15.7417   C.3       1 RES1   0.0000
    37 H12     12.0187   9.3217  16.0459   H         1 RES1   0.0000
    38 H13     13.1061  10.4915  16.1428   H         1 RES1   0.0000
    39 H14     11.5528  10.8524  16.0150   H         1 RES1   0.0000
    40 N7      10.2425  10.5811   6.0294   N.2       1 RES1   0.0000
    41 C19      9.6456   9.7146   5.5588   C.1       1 RES1   0.0000
    42 Se1      8.6793   8.3429   4.8874   Se        1 RES1   0.0000
    43 N1A     12.4071  12.0434   5.0966   N.ar      1 RES1   0.0000
    44 N2A     10.1726  13.2430   5.4806   N.2       1 RES1   0.0000
    45 N3A      8.9749  13.9036   5.5130   N.2       1 RES1   0.0000
    46 N4A      9.7314  13.8970   3.4297   N.pl3     1 RES1   0.0000
    47 N5A      7.2813  15.3632   2.6680   N.ar      1 RES1   0.0000
    48 N6A      6.1785  16.0795   2.3558   N.ar      1 RES1   0.0000
    49 C1A     13.6126  11.4532   5.0126   C.ar      1 RES1   0.0000
    50 H1A     13.9790  11.0424   5.7866   H         1 RES1   0.0000
    51 C2A     14.3425  11.4252   3.8281   C.ar      1 RES1   0.0000
    52 H2A     15.1873  10.9927   3.7998   H         1 RES1   0.0000
    53 C3A     13.8375  12.0252   2.6988   C.ar      1 RES1   0.0000
    54 H3A     14.3265  12.0067   1.8844   H         1 RES1   0.0000
    55 C4A     12.6042  12.6582   2.7661   C.ar      1 RES1   0.0000
    56 H4A     12.2387  13.0966   2.0056   H         1 RES1   0.0000
    57 C5A     11.9210  12.6330   3.9698   C.ar      1 RES1   0.0000
    58 C6A     10.6256  13.2578   4.2373   C.2       1 RES1   0.0000
    59 C7A      8.7183  14.2825   4.2759   C.2       1 RES1   0.0000
    60 C8A      7.4862  15.0233   3.9307   C.ar      1 RES1   0.0000
    61 C9A      6.6068  15.3263   4.9776   C.ar      1 RES1   0.0000
    62 H5A      6.7746  15.0412   5.8673   H         1 RES1   0.0000
    63 C10A     5.4994  16.0504   4.6545   C.ar      1 RES1   0.0000
    64 H6A      4.8650  16.3022   5.3141   H         1 RES1   0.0000
    65 C11A     5.3351  16.4039   3.3247   C.ar      1 RES1   0.0000
    66 H7A      4.5683  16.9146   3.0932   H         1 RES1   0.0000
    67 C12A     9.8091  13.9613   1.9830   C.ar      1 RES1   0.0000
    68 C13A     9.6023  12.7969   1.2752   C.ar      1 RES1   0.0000
    69 H8A      9.3829  11.9903   1.7256   H         1 RES1   0.0000
    70 C14A     9.7193  12.8246  -0.1090   C.ar      1 RES1   0.0000
    71 H9A      9.5731  12.0280  -0.6057   H         1 RES1   0.0000
    72 C15A    10.0459  13.9951  -0.7780   C.ar      1 RES1   0.0000
    73 C16A    10.2440  15.1561  -0.0323   C.ar      1 RES1   0.0000
    74 H10A    10.4627  15.9655  -0.4778   H         1 RES1   0.0000
    75 C17A    10.1260  15.1485   1.3501   C.ar      1 RES1   0.0000
    76 H11A    10.2613  15.9434   1.8521   H         1 RES1   0.0000
    77 C18A    10.1712  14.0032  -2.2815   C.3       1 RES1   0.0000
    78 H12A    10.4056  14.9051  -2.5857   H         1 RES1   0.0000
    79 H13A     9.3182  13.7353  -2.6826   H         1 RES1   0.0000
    80 H14A    10.8715  13.3744  -2.5548   H         1 RES1   0.0000
    81 N7A     12.1818  13.6457   7.4309   N.2       1 RES1   0.0000
    82 C19A    12.7787  14.5122   7.9014   C.1       1 RES1   0.0000
    83 Se1A    13.7450  15.8839   8.5728   Se        1 RES1   0.0000
    84 N8       6.3407   6.0523   4.1191   N.1       2 RES2   0.0000
    85 C20      5.7083   6.7336   4.7716   C.1       2 RES2   0.0000
    86 C21      4.8967   7.6020   5.6196   C.3       2 RES2   0.0000
    87 H15      4.5254   7.0810   6.3613   H         2 RES2   0.0000
    88 H16      4.1657   7.9851   5.0920   H         2 RES2   0.0000
    89 H17      5.4557   8.3244   5.9763   H         2 RES2   0.0000
    90 N9       5.9162  12.7515  -0.6649   N.1       3 RES3   0.0000
    91 C22      6.2194  13.8385  -0.7713   C.1       3 RES3   0.0000
    92 C23      6.6080  15.2326  -0.8857   C.3       3 RES3   0.0000
    93 H18      5.8099  15.7996  -0.8305   H         3 RES3   0.0000
    94 H19      7.0532  15.3785  -1.7458   H         3 RES3   0.0000
    95 H20      7.2217  15.4609  -0.1561   H         3 RES3   0.0000
@<TRIPOS>BOND
     1     1     2    1
     2     2     8   ar
     3     3     1    1
     4     4     3    1
     5     5    17    1
     6     6     7   ar
     7     7    24   ar
     8     8     9    1
     9    10     8   ar
    10    11    10    1
    11    12    10   ar
    12    13    12    1
    13    14    12   ar
    14    15    14    1
    15    16     2   ar
    16    17     3    2
    17    18     4    2
    18    19     6   ar
    19    20    19   ar
    20    21    20    1
    21    22    20   ar
    22    23    22    1
    23    24    22   ar
    24    25    24    1
    25    26     5    1
    26    27    26   ar
    27    28    27    1
    28    29    27   ar
    29    30    29    1
    30    31    29   ar
    31    32    31   ar
    32    33    32    1
    33    34    26   ar
    34    35    34    1
    35    36    31    1
    36    37    36    1
    37    38    36    1
    38    39    36    1
    39    40     1    1
    40    41    40    2
    41    42    41    2
    42    43     1    1
    43    44     1    1
    44    45    44    1
    45    46    58    1
    46    47    48   ar
    47    48    65   ar
    48    49    43   ar
    49    50    49    1
    50    51    49   ar
    51    52    51    1
    52    53    51   ar
    53    54    53    1
    54    55    53   ar
    55    56    55    1
    56    57    43   ar
    57    58    44    2
    58    59    45    2
    59    60    47   ar
    60    61    60   ar
    61    62    61    1
    62    63    61   ar
    63    64    63    1
    64    65    63   ar
    65    66    65    1
    66    67    46    1
    67    68    67   ar
    68    69    68    1
    69    70    68   ar
    70    71    70    1
    71    72    70   ar
    72    73    72   ar
    73    74    73    1
    74    75    67   ar
    75    76    75    1
    76    77    72    1
    77    78    77    1
    78    79    77    1
    79    80    77    1
    80    81     1    1
    81    82    81    2
    82    83    82    2
    83     5    18    1
    84    14    16   ar
    85    16    17    1
    86    18    19    1
    87    32    34   ar
    88    46    59    1
    89    55    57   ar
    90    57    58    1
    91    59    60    1
    92    73    75   ar
    93    84    85    3
    94    85    86    1
    95    86    87    1
    96    88    86    1
    97    89    86    1
    98    90    91    3
    99    91    92    1
   100    92    93    1
   101    94    92    1
   102    95    92    1
@<TRIPOS>SUBSTRUCTURE
     1 RES1        1 GROUP             0 ****  ****    0  
     2 RES2       84 GROUP             0 ****  ****    0  
     3 RES3       90 GROUP             0 ****  ****    0  
@<TRIPOS>CRYSIN
    7.5538   11.8013   13.5691   82.7850   87.1760   73.6400     2     1
