@<TRIPOS>MOLECULE
FONWOW
   101   106     2     0     0
SMALL
USER_CHARGES
****
Generated from the CSD

@<TRIPOS>ATOM
     1 Fe1      4.4382   2.7702   9.6864   Fe        1 RES1   1.0000
     2 H1       4.0841   2.1780   8.1141   H         1 RES1   0.0000
     3 P1       6.2118   1.5754   9.3828   P.3       1 RES1   0.0000
     4 P2       4.6535   3.6762  11.7474   P.3       1 RES1   0.0000
     5 O1       5.6045   5.0208   8.3078   O.2       1 RES1   0.0000
     6 N1       3.5725   1.0216  10.2767   N.3       1 RES1   0.0000
     7 H2       3.6420   0.9850  11.2029   H         1 RES1   0.0000
     8 N2       2.5461   3.4999   9.7736   N.3       1 RES1   0.0000
     9 H3       2.2697   3.6422   8.8969   H         1 RES1   0.0000
    10 C1       2.1258   1.0943   9.9586   C.3       1 RES1   0.0000
    11 H4       1.6297   0.4024  10.4609   H         1 RES1   0.0000
    12 H5       1.9819   0.9440   8.9904   H         1 RES1   0.0000
    13 C2       1.6488   2.4567  10.3463   C.3       1 RES1   0.0000
    14 H6       0.7267   2.5932  10.0129   H         1 RES1   0.0000
    15 H7       1.6350   2.5354  11.3326   H         1 RES1   0.0000
    16 C3       4.2173  -0.1982   9.7505   C.3       1 RES1   0.0000
    17 H8       4.0151  -0.2968   8.7868   H         1 RES1   0.0000
    18 H9       3.8666  -0.9951  10.2226   H         1 RES1   0.0000
    19 C4       5.7186  -0.0949   9.9561   C.3       1 RES1   0.0000
    20 H10      6.1873  -0.7920   9.4323   H         1 RES1   0.0000
    21 H11      5.9456  -0.2134  10.9118   H         1 RES1   0.0000
    22 C5       2.4516   4.8034  10.4714   C.3       1 RES1   0.0000
    23 H12      1.4988   5.0451  10.5891   H         1 RES1   0.0000
    24 H13      2.8785   5.5037   9.9164   H         1 RES1   0.0000
    25 C6       3.1385   4.7530  11.8454   C.3       1 RES1   0.0000
    26 H14      2.5117   4.3886  12.5196   H         1 RES1   0.0000
    27 H15      3.3951   5.6675  12.1244   H         1 RES1   0.0000
    28 C7       4.4858   2.6855  13.2961   C.3       1 RES1   0.0000
    29 H16      4.3450   3.3056  14.0549   H         1 RES1   0.0000
    30 H17      3.6794   2.1174  13.2209   H         1 RES1   0.0000
    31 C8       5.6822   1.7922  13.6145   C.3       1 RES1   0.0000
    32 H18      5.5017   1.2837  14.4320   H         1 RES1   0.0000
    33 H19      6.4797   2.3479  13.7442   H         1 RES1   0.0000
    34 H20      5.8340   1.1719  12.8710   H         1 RES1   0.0000
    35 C9       6.0708   4.7693  12.1111   C.3       1 RES1   0.0000
    36 H21      6.8980   4.2315  12.0279   H         1 RES1   0.0000
    37 H22      6.1038   5.4676  11.4110   H         1 RES1   0.0000
    38 C10      6.0991   5.4656  13.4728   C.3       1 RES1   0.0000
    39 H23      6.8840   6.0499  13.5255   H         1 RES1   0.0000
    40 H24      6.1432   4.7925  14.1846   H         1 RES1   0.0000
    41 H25      5.2855   6.0019  13.5828   H         1 RES1   0.0000
    42 C11      6.6739   1.3582   7.6208   C.3       1 RES1   0.0000
    43 H26      5.9144   0.9289   7.1534   H         1 RES1   0.0000
    44 H27      6.7939   2.2572   7.2213   H         1 RES1   0.0000
    45 C12      7.9289   0.5424   7.3365   C.3       1 RES1   0.0000
    46 H28      8.0273   0.4218   6.3691   H         1 RES1   0.0000
    47 H29      7.8534  -0.3345   7.7687   H         1 RES1   0.0000
    48 H30      8.7121   1.0134   7.6888   H         1 RES1   0.0000
    49 C13      7.7994   1.9509  10.2159   C.3       1 RES1   0.0000
    50 H31      7.6489   2.0379  11.1908   H         1 RES1   0.0000
    51 H32      8.4349   1.2071  10.0672   H         1 RES1   0.0000
    52 C14      8.3954   3.2494   9.6730   C.3       1 RES1   0.0000
    53 H33      9.1530   3.5192  10.2331   H         1 RES1   0.0000
    54 H34      7.7132   3.9525   9.6857   H         1 RES1   0.0000
    55 H35      8.7027   3.1069   8.7536   H         1 RES1   0.0000
    56 C15      5.1274   4.1347   8.8957   C.1       1 RES1   0.0000
    57 C16      7.0119  -1.9670   4.6302   C.ar      2 RES2   0.0000
    58 C17      7.4434  -2.8087   5.6743   C.ar      2 RES2   0.0000
    59 H36      8.2734  -3.2611   5.5803   H         2 RES2   0.0000
    60 C18      6.7071  -3.0031   6.8361   C.ar      2 RES2   0.0000
    61 H37      7.0398  -3.5733   7.5184   H         2 RES2   0.0000
    62 C19      5.4888  -2.3643   6.9993   C.ar      2 RES2   0.0000
    63 H38      4.9811  -2.4929   7.7914   H         2 RES2   0.0000
    64 C20      5.0232  -1.5395   5.9940   C.ar      2 RES2   0.0000
    65 H39      4.1851  -1.1039   6.0901   H         2 RES2   0.0000
    66 C21      5.7807  -1.3433   4.8339   C.ar      2 RES2   0.0000
    67 H40      5.4433  -0.7633   4.1611   H         2 RES2   0.0000
    68 C22      7.2565  -3.3168   2.4831   C.ar      2 RES2   0.0000
    69 C23      5.9178  -3.4328   2.0744   C.ar      2 RES2   0.0000
    70 H41      5.3602  -2.6655   2.1145   H         2 RES2   0.0000
    71 C24      5.3776  -4.6250   1.6156   C.ar      2 RES2   0.0000
    72 H42      4.4671  -4.6573   1.3453   H         2 RES2   0.0000
    73 C25      6.1577  -5.7681   1.5504   C.ar      2 RES2   0.0000
    74 H43      5.7921  -6.5858   1.2352   H         2 RES2   0.0000
    75 C26      7.4781  -5.6950   1.9524   C.ar      2 RES2   0.0000
    76 H44      8.0263  -6.4698   1.9139   H         2 RES2   0.0000
    77 C27      8.0065  -4.4959   2.4113   C.ar      2 RES2   0.0000
    78 H45      8.9151  -4.4748   2.6876   H         2 RES2   0.0000
    79 C28      9.4305  -1.8743   3.3278   C.ar      2 RES2   0.0000
    80 C29     10.2604  -2.2622   2.2623   C.ar      2 RES2   0.0000
    81 H46      9.8587  -2.6246   1.4811   H         2 RES2   0.0000
    82 C30     11.6459  -2.1402   2.3045   C.ar      2 RES2   0.0000
    83 H47     12.1696  -2.4324   1.5685   H         2 RES2   0.0000
    84 C31     12.2619  -1.5927   3.4176   C.ar      2 RES2   0.0000
    85 H48     13.2076  -1.5027   3.4477   H         2 RES2   0.0000
    86 C32     11.4873  -1.1766   4.4854   C.ar      2 RES2   0.0000
    87 H49     11.8955  -0.7898   5.2516   H         2 RES2   0.0000
    88 C33     10.0989  -1.3303   4.4300   C.ar      2 RES2   0.0000
    89 H50      9.5835  -1.0509   5.1777   H         2 RES2   0.0000
    90 C34      7.3928  -0.5845   2.3249   C.ar      2 RES2   0.0000
    91 C35      7.0728  -0.5936   0.9639   C.ar      2 RES2   0.0000
    92 H51      7.0415  -1.4284   0.5113   H         2 RES2   0.0000
    93 C36      6.7985   0.5649   0.2443   C.ar      2 RES2   0.0000
    94 H52      6.5895   0.5107  -0.6802   H         2 RES2   0.0000
    95 C37      6.8301   1.7930   0.8728   C.ar      2 RES2   0.0000
    96 H53      6.6303   2.5873   0.3906   H         2 RES2   0.0000
    97 C38      7.1574   1.8499   2.2065   C.ar      2 RES2   0.0000
    98 H54      7.1934   2.6909   2.6469   H         2 RES2   0.0000
    99 C39      7.4379   0.6822   2.9188   C.ar      2 RES2   0.0000
   100 H55      7.6662   0.7495   3.8384   H         2 RES2   0.0000
   101 B1       7.7951  -1.9269   3.1858   B         2 RES2  -1.0000
@<TRIPOS>BOND
     1     1     2    1
     2     3     1    1
     3     4     1    1
     4     5    56    3
     5     6     1    1
     6     7     6    1
     7     8     1    1
     8     9     8    1
     9    10     6    1
    10    11    10    1
    11    12    10    1
    12    13     8    1
    13    14    13    1
    14    15    13    1
    15    16     6    1
    16    17    16    1
    17    18    16    1
    18    19     3    1
    19    20    19    1
    20    21    19    1
    21    22     8    1
    22    23    22    1
    23    24    22    1
    24    25     4    1
    25    26    25    1
    26    27    25    1
    27    28     4    1
    28    29    28    1
    29    30    28    1
    30    31    28    1
    31    32    31    1
    32    33    31    1
    33    34    31    1
    34    35     4    1
    35    36    35    1
    36    37    35    1
    37    38    35    1
    38    39    38    1
    39    40    38    1
    40    41    38    1
    41    42     3    1
    42    43    42    1
    43    44    42    1
    44    45    42    1
    45    46    45    1
    46    47    45    1
    47    48    45    1
    48    49     3    1
    49    50    49    1
    50    51    49    1
    51    52    49    1
    52    53    52    1
    53    54    52    1
    54    55    52    1
    55    56     1    1
    56    10    13    1
    57    16    19    1
    58    22    25    1
    59    57    58   ar
    60    58    59    1
    61    60    58   ar
    62    61    60    1
    63    62    60   ar
    64    63    62    1
    65    64    62   ar
    66    65    64    1
    67    66    57   ar
    68    67    66    1
    69    68    69   ar
    70    69    70    1
    71    71    69   ar
    72    72    71    1
    73    73    71   ar
    74    74    73    1
    75    75    73   ar
    76    76    75    1
    77    77    68   ar
    78    78    77    1
    79    79    80   ar
    80    80    81    1
    81    82    80   ar
    82    83    82    1
    83    84    82   ar
    84    85    84    1
    85    86    84   ar
    86    87    86    1
    87    88    79   ar
    88    89    88    1
    89    90    91   ar
    90    91    92    1
    91    93    91   ar
    92    94    93    1
    93    95    93   ar
    94    96    95    1
    95    97    95   ar
    96    98    97    1
    97    99    90   ar
    98   100    99    1
    99   101    57    1
   100    64    66   ar
   101    68   101    1
   102    75    77   ar
   103    79   101    1
   104    86    88   ar
   105    90   101    1
   106    97    99   ar
@<TRIPOS>SUBSTRUCTURE
     1 RES1        1 GROUP             0 ****  ****    0  
     2 RES2       57 GROUP             0 ****  ****    0  
@<TRIPOS>CRYSIN
   10.3749   11.5650   16.1355  106.4370  101.6790   92.5170     2     1
