@<TRIPOS>MOLECULE
FOPSAG
   184   191     5     0     0
SMALL
USER_CHARGES
****
Generated from the CSD

@<TRIPOS>ATOM
     1 Br1      9.8557  15.5719   1.0102   Br        1 RES1   0.0000
     2 Fe1     10.2668  13.5679   2.4262   Fe        1 RES1   1.0000
     3 P1      10.6182  14.8849   4.2081   P.3       1 RES1   0.0000
     4 P2      10.5351  12.3124   0.5757   P.3       1 RES1   0.0000
     5 N1      12.2627  13.9725   2.0950   N.ar      1 RES1   0.0000
     6 N2      12.2719  15.2478   4.0232   N.pl3     1 RES1   0.0000
     7 N3      12.1608  12.6693   0.1914   N.pl3     1 RES1   0.0000
     8 C1      12.9289  14.8618   2.8915   C.ar      1 RES1   0.0000
     9 C2      14.2080  15.3196   2.5928   C.ar      1 RES1   0.0000
    10 C3      14.8192  14.8585   1.4469   C.ar      1 RES1   0.0000
    11 C4      14.1689  13.9642   0.6093   C.ar      1 RES1   0.0000
    12 C5      12.8801  13.5502   0.9536   C.ar      1 RES1   0.0000
    13 C6       9.8272  16.5321   4.4409   C.3       1 RES1   0.0000
    14 C7      10.7527  17.6875   4.8000   C.3       1 RES1   0.0000
    15 C8      10.5543  14.1384   5.8687   C.3       1 RES1   0.0000
    16 C9      11.1388  14.9718   7.0069   C.3       1 RES1   0.0000
    17 C10      9.6594  12.6056  -1.0129   C.3       1 RES1   0.0000
    18 C11     10.2477  11.9411  -2.2427   C.3       1 RES1   0.0000
    19 C12     10.6035  10.4896   0.6638   C.3       1 RES1   0.0000
    20 C13      9.2562   9.8260   0.6879   C.3       1 RES1   0.0000
    21 P3       8.0946  13.4457   2.6738   P.3       1 RES1   0.0000
    22 P4      14.1611  10.8560   4.0897   P.3       1 RES1   0.0000
    23 N4      10.2892  11.8201   3.6212   N.ar      1 RES1   0.0000
    24 N5       7.9629  12.0814   3.6564   N.pl3     1 RES1   0.0000
    25 N6      12.6254  11.5444   3.6557   N.pl3     1 RES1   0.0000
    26 C14      9.0692  11.3397   3.9957   C.ar      1 RES1   0.0000
    27 C15      8.8978  10.1461   4.6928   C.ar      1 RES1   0.0000
    28 C16     10.0207   9.4076   5.0299   C.ar      1 RES1   0.0000
    29 C17     11.2620   9.8732   4.7096   C.ar      1 RES1   0.0000
    30 C18     11.3920  11.0770   4.0048   C.ar      1 RES1   0.0000
    31 C19      7.0946  14.6638   3.6171   C.3       1 RES1   0.0000
    32 C20      6.6352  15.8939   2.8280   C.3       1 RES1   0.0000
    33 C21      6.9603  13.0977   1.2667   C.3       1 RES1   0.0000
    34 C22      5.4927  12.8358   1.6375   C.3       1 RES1   0.0000
    35 C23     15.0184  12.3212   4.7731   C.3       1 RES1   0.0000
    36 C24     14.5225  12.6769   6.1741   C.3       1 RES1   0.0000
    37 C25     14.9616  10.7118   2.4445   C.3       1 RES1   0.0000
    38 C26     14.4632   9.4960   1.6675   C.3       1 RES1   0.0000
    39 H1      12.5811  12.2866  -0.4032   H         1 RES1   0.0000
    40 H2       7.3233  11.7735   3.8805   H         1 RES1   0.0000
    41 H3      12.5668  12.2714   3.2189   H         1 RES1   0.0000
    42 H4      12.7213  15.7775   4.5595   H         1 RES1   0.0000
    43 H5      14.6540  15.9422   3.1715   H         1 RES1   0.0000
    44 H6      15.7034  15.1597   1.2263   H         1 RES1   0.0000
    45 H7      14.5947  13.6377  -0.1870   H         1 RES1   0.0000
    46 H8       9.3220  16.7585   3.6562   H         1 RES1   0.0000
    47 H9       9.1314  16.4629   5.0994   H         1 RES1   0.0000
    48 H10     10.2491  18.5041   4.8305   H         1 RES1   0.0000
    49 H11     11.1501  17.5243   5.6586   H         1 RES1   0.0000
    50 H12     11.4433  17.7620   4.1371   H         1 RES1   0.0000
    51 H13      9.6471  13.9024   6.0785   H         1 RES1   0.0000
    52 H14     10.9799  13.2785   5.8498   H         1 RES1   0.0000
    53 H15     11.1230  14.4605   7.8192   H         1 RES1   0.0000
    54 H16     12.0453  15.2094   6.7964   H         1 RES1   0.0000
    55 H17     10.6175  15.7697   7.1206   H         1 RES1   0.0000
    56 H18      8.7381  12.3521  -0.9221   H         1 RES1   0.0000
    57 H19      9.5816  13.5502  -1.1657   H         1 RES1   0.0000
    58 H20      9.7466  12.2046  -3.0184   H         1 RES1   0.0000
    59 H21     11.1627  12.2124  -2.3458   H         1 RES1   0.0000
    60 H22     10.2051  10.9880  -2.1424   H         1 RES1   0.0000
    61 H23     11.1127  10.1522  -0.0767   H         1 RES1   0.0000
    62 H24     11.1040  10.2251   1.4388   H         1 RES1   0.0000
    63 H25      9.3686   8.8736   0.7295   H         1 RES1   0.0000
    64 H26      8.7659  10.1241   1.4580   H         1 RES1   0.0000
    65 H27      8.7711  10.0563  -0.1082   H         1 RES1   0.0000
    66 H28      8.0208   9.8416   4.9351   H         1 RES1   0.0000
    67 H29      9.9257   8.5694   5.4881   H         1 RES1   0.0000
    68 H30     12.0439   9.3782   4.9659   H         1 RES1   0.0000
    69 H31      6.3310  14.2244   3.9983   H         1 RES1   0.0000
    70 H32      7.5833  14.9461   4.3937   H         1 RES1   0.0000
    71 H33      6.1631  16.4913   3.4130   H         1 RES1   0.0000
    72 H34      7.4000  16.3432   2.4614   H         1 RES1   0.0000
    73 H35      6.0537  15.6183   2.1156   H         1 RES1   0.0000
    74 H36      7.0068  13.8170   0.6328   H         1 RES1   0.0000
    75 H37      7.2990  12.3570   0.7584   H         1 RES1   0.0000
    76 H38      4.9898  12.6501   0.8412   H         1 RES1   0.0000
    77 H39      5.4421  12.0829   2.2309   H         1 RES1   0.0000
    78 H40      5.1294  13.6109   2.0721   H         1 RES1   0.0000
    79 H41     15.9642  12.1547   4.8018   H         1 RES1   0.0000
    80 H42     14.8885  13.0709   4.1883   H         1 RES1   0.0000
    81 H43     15.0390  13.4081   6.5209   H         1 RES1   0.0000
    82 H44     13.5978  12.9297   6.1316   H         1 RES1   0.0000
    83 H45     14.6199  11.9151   6.7510   H         1 RES1   0.0000
    84 H46     14.7929  11.5079   1.9353   H         1 RES1   0.0000
    85 H47     15.9137  10.6524   2.5559   H         1 RES1   0.0000
    86 H48     14.8363   9.5059   0.7828   H         1 RES1   0.0000
    87 H49     14.7358   8.6933   2.1197   H         1 RES1   0.0000
    88 H50     13.5057   9.5218   1.6116   H         1 RES1   0.0000
    89 C27      7.6425   6.0935   6.6753   C.ar      2 RES2   0.0000
    90 C28      9.0226   5.8810   6.5070   C.ar      2 RES2   0.0000
    91 C29      9.9915   6.5656   7.2321   C.ar      2 RES2   0.0000
    92 C30      9.6342   7.5320   8.1772   C.ar      2 RES2   0.0000
    93 C31      8.2808   7.7865   8.3449   C.ar      2 RES2   0.0000
    94 C32      7.3095   7.0859   7.6110   C.ar      2 RES2   0.0000
    95 C33     10.6993   8.2601   8.9859   C.3       2 RES2   0.0000
    96 C34      6.5919   3.6297   6.3534   C.ar      2 RES2   0.0000
    97 C35      7.4776   3.1253   7.3208   C.ar      2 RES2   0.0000
    98 C36      7.4091   1.8259   7.8128   C.ar      2 RES2   0.0000
    99 C37      6.4554   0.9357   7.3332   C.ar      2 RES2   0.0000
   100 C38      5.5664   1.3991   6.3653   C.ar      2 RES2   0.0000
   101 C39      5.6285   2.7072   5.8934   C.ar      2 RES2   0.0000
   102 C40      6.3719  -0.4801   7.8622   C.3       2 RES2   0.0000
   103 C41      5.0244   5.7408   5.9757   C.ar      2 RES2   0.0000
   104 C42      4.3797   5.6673   7.2254   C.ar      2 RES2   0.0000
   105 C43      3.0872   6.1481   7.4411   C.ar      2 RES2   0.0000
   106 C44      2.3442   6.7205   6.4008   C.ar      2 RES2   0.0000
   107 C45      2.9473   6.7745   5.1493   C.ar      2 RES2   0.0000
   108 C46      4.2455   6.3002   4.9510   C.ar      2 RES2   0.0000
   109 C47      0.9491   7.2669   6.6173   C.3       2 RES2   0.0000
   110 C48      7.0099   5.2982   4.2243   C.ar      2 RES2   0.0000
   111 C49      7.1371   4.2410   3.3066   C.ar      2 RES2   0.0000
   112 C50      7.4870   4.4293   1.9666   C.ar      2 RES2   0.0000
   113 C51      7.6973   5.7070   1.4576   C.ar      2 RES2   0.0000
   114 C52      7.5709   6.7745   2.3442   C.ar      2 RES2   0.0000
   115 C53      7.2601   6.5678   3.6795   C.ar      2 RES2   0.0000
   116 C54      8.0832   5.9437   0.0126   C.3       2 RES2   0.0000
   117 B1       6.5700   5.1841   5.8036   B         2 RES2  -1.0000
   118 H51      9.3095   5.2321   5.8604   H         2 RES2   0.0000
   119 H52     10.9195   6.3716   7.0813   H         2 RES2   0.0000
   120 H53      8.0024   8.4550   8.9753   H         2 RES2   0.0000
   121 H54      6.3832   7.2933   7.7544   H         2 RES2   0.0000
   122 H55     11.2075   7.6228   9.4926   H         2 RES2   0.0000
   123 H56     11.2832   8.7356   8.3910   H         2 RES2   0.0000
   124 H57     10.2770   8.8810   9.5843   H         2 RES2   0.0000
   125 H58      8.1633   3.7059   7.6586   H         2 RES2   0.0000
   126 H59      8.0271   1.5411   8.4903   H         2 RES2   0.0000
   127 H60      4.8978   0.8046   6.0171   H         2 RES2   0.0000
   128 H61      4.9939   2.9916   5.2317   H         2 RES2   0.0000
   129 H62      5.9773  -1.0478   7.1957   H         2 RES2   0.0000
   130 H63      7.2532  -0.7966   8.0713   H         2 RES2   0.0000
   131 H64      5.8300  -0.4940   8.6549   H         2 RES2   0.0000
   132 H65      4.8497   5.2688   7.9614   H         2 RES2   0.0000
   133 H66      2.7018   6.0855   8.3178   H         2 RES2   0.0000
   134 H67      2.4616   7.1446   4.4081   H         2 RES2   0.0000
   135 H68      4.6230   6.3593   4.0705   H         2 RES2   0.0000
   136 H69      0.6745   7.0931   7.5204   H         2 RES2   0.0000
   137 H70      0.9490   8.2138   6.4591   H         2 RES2   0.0000
   138 H71      0.3411   6.8405   6.0096   H         2 RES2   0.0000
   139 H72      6.9757   3.3463   3.6151   H         2 RES2   0.0000
   140 H73      7.5837   3.6676   1.3904   H         2 RES2   0.0000
   141 H74      7.7027   7.6701   2.0246   H         2 RES2   0.0000
   142 H75      7.2126   7.3308   4.2602   H         2 RES2   0.0000
   143 H76      8.0484   6.8841  -0.1779   H         2 RES2   0.0000
   144 H77      8.9736   5.6191  -0.1383   H         2 RES2   0.0000
   145 H78      7.4709   5.4782  -0.5623   H         2 RES2   0.0000
   146 O1       5.5718  11.0318   5.1030   O.3       3 RES3   0.0000
   147 C55      5.0528   9.6895   5.2384   C.3       3 RES3   0.0000
   148 C56      4.4267   9.6321   6.6198   C.3       3 RES3   0.0000
   149 C57      5.3260  10.5575   7.4149   C.3       3 RES3   0.0000
   150 C58      5.6562  11.6428   6.4069   C.3       3 RES3   0.0000
   151 H79      5.7769   9.0605   5.1889   H         3 RES3   0.0000
   152 H80      4.3773   9.5390   4.5738   H         3 RES3   0.0000
   153 H81      4.4984   8.7399   6.9670   H         3 RES3   0.0000
   154 H82      3.5405   9.9996   6.5848   H         3 RES3   0.0000
   155 H83      6.1297  10.0917   7.6578   H         3 RES3   0.0000
   156 H84      4.8303  10.9375   8.1437   H         3 RES3   0.0000
   157 H85      5.0073  12.3477   6.4722   H         3 RES3   0.0000
   158 H86      6.5505  11.9571   6.5560   H         3 RES3   0.0000
   159 O2      12.6896   4.5251   1.6677   O.3       4 RES4   0.0000
   160 C59     11.3222   4.2805   1.9946   C.3       4 RES4   0.0000
   161 C60     10.9933   5.2660   3.1187   C.3       4 RES4   0.0000
   162 C61     11.7613   6.4609   2.6864   C.3       4 RES4   0.0000
   163 C62     13.0435   5.8208   2.1626   C.3       4 RES4   0.0000
   164 H87     11.2261   3.3824   2.3185   H         4 RES4   0.0000
   165 H88     10.7718   4.4707   1.2312   H         4 RES4   0.0000
   166 H89     10.0540   5.4671   3.1038   H         4 RES4   0.0000
   167 H90     11.3510   4.9389   3.9469   H         4 RES4   0.0000
   168 H91     11.9634   7.0053   3.4499   H         4 RES4   0.0000
   169 H92     11.3003   6.8922   1.9621   H         4 RES4   0.0000
   170 H93     13.3969   6.3512   1.4453   H         4 RES4   0.0000
   171 H94     13.6713   5.7268   2.8828   H         4 RES4   0.0000
   172 O3      13.0974   1.4165   5.6647   O.3       5 RES5   0.0000
   173 C63     13.3834   2.7579   5.2849   C.3       5 RES5   0.0000
   174 C64     14.7372   3.0070   5.7071   C.3       5 RES5   0.0000
   175 C65     14.7943   2.3437   7.0258   C.3       5 RES5   0.0000
   176 C66     13.9820   1.0896   6.7780   C.3       5 RES5   0.0000
   177 H95     12.7904   3.3554   5.7471   H         5 RES5   0.0000
   178 H96     13.3260   2.8405   4.3303   H         5 RES5   0.0000
   179 H97     14.8698   3.9507   5.8173   H         5 RES5   0.0000
   180 H98     15.3446   2.5723   5.1035   H         5 RES5   0.0000
   181 H99     14.3494   2.8890   7.6781   H         5 RES5   0.0000
   182 H100    15.7024   2.1022   7.2236   H         5 RES5   0.0000
   183 H101    14.5681   0.3735   6.5214   H         5 RES5   0.0000
   184 H102    13.4563   0.8894   7.5561   H         5 RES5   0.0000
@<TRIPOS>BOND
     1     1     2    1
     2     2     3    1
     3     3     6    1
     4     4     2    1
     5     5     2    1
     6     6     8    1
     7     7     4    1
     8     8     5   ar
     9     9     8   ar
    10    10     9   ar
    11    11    10   ar
    12    12     5   ar
    13    13     3    1
    14    14    13    1
    15    15     3    1
    16    16    15    1
    17    17     4    1
    18    18    17    1
    19    19     4    1
    20    20    19    1
    21    21     2    1
    22    22    25    1
    23    23     2    1
    24    24    21    1
    25    25    30    1
    26    26    23   ar
    27    27    26   ar
    28    28    27   ar
    29    29    28   ar
    30    30    23   ar
    31    31    21    1
    32    32    31    1
    33    33    21    1
    34    34    33    1
    35    35    22    1
    36    36    35    1
    37    37    22    1
    38    38    37    1
    39    39     7    1
    40    40    24    1
    41    41    25    1
    42    42     6    1
    43    43     9    1
    44    44    10    1
    45    45    11    1
    46    46    13    1
    47    47    13    1
    48    48    14    1
    49    49    14    1
    50    50    14    1
    51    51    15    1
    52    52    15    1
    53    53    16    1
    54    54    16    1
    55    55    16    1
    56    56    17    1
    57    57    17    1
    58    58    18    1
    59    59    18    1
    60    60    18    1
    61    61    19    1
    62    62    19    1
    63    63    20    1
    64    64    20    1
    65    65    20    1
    66    66    27    1
    67    67    28    1
    68    68    29    1
    69    69    31    1
    70    70    31    1
    71    71    32    1
    72    72    32    1
    73    73    32    1
    74    74    33    1
    75    75    33    1
    76    76    34    1
    77    77    34    1
    78    78    34    1
    79    79    35    1
    80    80    35    1
    81    81    36    1
    82    82    36    1
    83    83    36    1
    84    84    37    1
    85    85    37    1
    86    86    38    1
    87    87    38    1
    88    88    38    1
    89     7    12    1
    90    11    12   ar
    91    24    26    1
    92    29    30   ar
    93    89    90   ar
    94    90    91   ar
    95    91    92   ar
    96    92    93   ar
    97    93    94   ar
    98    94    89   ar
    99    95    92    1
   100    96    97   ar
   101    97    98   ar
   102    98    99   ar
   103    99   100   ar
   104   100   101   ar
   105   101    96   ar
   106   102    99    1
   107   103   104   ar
   108   104   105   ar
   109   105   106   ar
   110   106   107   ar
   111   107   108   ar
   112   108   103   ar
   113   109   106    1
   114   110   111   ar
   115   111   112   ar
   116   112   113   ar
   117   113   114   ar
   118   114   115   ar
   119   115   110   ar
   120   116   113    1
   121   117    89    1
   122   118    90    1
   123   119    91    1
   124   120    93    1
   125   121    94    1
   126   122    95    1
   127   123    95    1
   128   124    95    1
   129   125    97    1
   130   126    98    1
   131   127   100    1
   132   128   101    1
   133   129   102    1
   134   130   102    1
   135   131   102    1
   136   132   104    1
   137   133   105    1
   138   134   107    1
   139   135   108    1
   140   136   109    1
   141   137   109    1
   142   138   109    1
   143   139   111    1
   144   140   112    1
   145   141   114    1
   146   142   115    1
   147   143   116    1
   148   144   116    1
   149   145   116    1
   150    96   117    1
   151   103   117    1
   152   110   117    1
   153   146   147    1
   154   147   148    1
   155   148   149    1
   156   149   150    1
   157   150   146    1
   158   151   147    1
   159   152   147    1
   160   153   148    1
   161   154   148    1
   162   155   149    1
   163   156   149    1
   164   157   150    1
   165   158   150    1
   166   159   160    1
   167   160   161    1
   168   161   162    1
   169   162   163    1
   170   163   159    1
   171   164   160    1
   172   165   160    1
   173   166   161    1
   174   167   161    1
   175   168   162    1
   176   169   162    1
   177   170   163    1
   178   171   163    1
   179   172   173    1
   180   173   174    1
   181   174   175    1
   182   175   176    1
   183   176   172    1
   184   177   173    1
   185   178   173    1
   186   179   174    1
   187   180   174    1
   188   181   175    1
   189   182   175    1
   190   183   176    1
   191   184   176    1
@<TRIPOS>SUBSTRUCTURE
     1 RES1        1 GROUP             0 ****  ****    0  
     2 RES2       89 GROUP             0 ****  ****    0  
     3 RES3      146 GROUP             0 ****  ****    0  
     4 RES4      159 GROUP             0 ****  ****    0  
     5 RES5      172 GROUP             0 ****  ****    0  
@<TRIPOS>CRYSIN
   12.7780   15.5460   18.7900   75.9540   70.7410   86.6970     2     1
