@<TRIPOS>MOLECULE
FOPSEK
   115   124     2     0     0
SMALL
USER_CHARGES
****
Generated from the CSD

@<TRIPOS>ATOM
     1 Fe1      2.2422  17.2827   3.0421   Fe        1 RES1   1.0000
     2 Cl1      1.0622  17.8955   1.1263   Cl        1 RES1   0.0000
     3 P1       0.3386  16.8494   4.1274   P.3       1 RES1   0.0000
     4 P2       4.1435  17.0978   1.8702   P.3       1 RES1   0.0000
     5 P3       2.4244  19.3900   3.5831   P.3       1 RES1   0.0000
     6 N1       1.9260  15.4042   2.2913   N.ar      1 RES1   0.0000
     7 N2      -0.0740  15.3219   3.4924   N.pl3     1 RES1   0.0000
     8 N3       3.9153  15.5934   1.0980   N.pl3     1 RES1   0.0000
     9 N4       3.3158  16.9748   4.7815   N.ar      1 RES1   0.0000
    10 N5       3.2937  19.3304   5.0335   N.pl3     1 RES1   0.0000
    11 N6       3.3945  14.6544   4.5570   N.pl3     1 RES1   0.0000
    12 C1       0.7774  14.7253   2.5810   C.ar      1 RES1   0.0000
    13 C2       0.4728  13.4963   1.9913   C.ar      1 RES1   0.0000
    14 C3       1.3237  13.0073   1.0143   C.ar      1 RES1   0.0000
    15 C4       2.4704  13.6957   0.6670   C.ar      1 RES1   0.0000
    16 C5       2.7563  14.8830   1.3392   C.ar      1 RES1   0.0000
    17 C6       0.4474  16.5904   5.9338   C.ar      1 RES1   0.0000
    18 C7       0.1831  15.3665   6.5481   C.ar      1 RES1   0.0000
    19 C8       0.3293  15.2314   7.9262   C.ar      1 RES1   0.0000
    20 C9       0.7701  16.2921   8.6997   C.ar      1 RES1   0.0000
    21 C10      1.0447  17.5137   8.1018   C.ar      1 RES1   0.0000
    22 C11      0.8713  17.6611   6.7343   C.ar      1 RES1   0.0000
    23 C12     -1.2308  17.7528   3.9134   C.ar      1 RES1   0.0000
    24 C13     -1.8590  17.7101   2.6647   C.ar      1 RES1   0.0000
    25 C14     -3.0656  18.3739   2.4677   C.ar      1 RES1   0.0000
    26 C15     -3.6524  19.0879   3.4985   C.ar      1 RES1   0.0000
    27 C16     -3.0347  19.1444   4.7355   C.ar      1 RES1   0.0000
    28 C17     -1.8306  18.4768   4.9516   C.ar      1 RES1   0.0000
    29 C18     -1.3794  14.6885   3.7439   C.3       1 RES1   0.0000
    30 C19      5.6628  16.8450   2.8533   C.ar      1 RES1   0.0000
    31 C20      6.1391  15.5548   3.0963   C.ar      1 RES1   0.0000
    32 C21      7.1958  15.3484   3.9773   C.ar      1 RES1   0.0000
    33 C22      7.7984  16.4255   4.6070   C.ar      1 RES1   0.0000
    34 C23      7.3393  17.7125   4.3738   C.ar      1 RES1   0.0000
    35 C24      6.2678  17.9200   3.5154   C.ar      1 RES1   0.0000
    36 C25      4.6444  18.1156   0.4353   C.ar      1 RES1   0.0000
    37 C26      3.8428  18.0436  -0.7169   C.ar      1 RES1   0.0000
    38 C27      4.1769  18.7753  -1.8512   C.ar      1 RES1   0.0000
    39 C28      5.2899  19.6119  -1.8494   C.ar      1 RES1   0.0000
    40 C29      6.0768  19.6892  -0.7103   C.ar      1 RES1   0.0000
    41 C30      5.7701  18.9366   0.4256   C.ar      1 RES1   0.0000
    42 C31      4.8923  15.0571   0.1400   C.3       1 RES1   0.0000
    43 C32      3.6864  18.0745   5.5108   C.ar      1 RES1   0.0000
    44 C33      4.4348  17.9955   6.6837   C.ar      1 RES1   0.0000
    45 C34      4.8480  16.7485   7.1166   C.ar      1 RES1   0.0000
    46 C35      4.5029  15.6215   6.4215   C.ar      1 RES1   0.0000
    47 C36      3.7307  15.7615   5.2593   C.ar      1 RES1   0.0000
    48 C37      3.3632  20.5320   2.4866   C.ar      1 RES1   0.0000
    49 C38      4.5469  21.1463   2.8985   C.ar      1 RES1   0.0000
    50 C39      5.2012  22.0482   2.0599   C.ar      1 RES1   0.0000
    51 C40      4.7030  22.3267   0.8033   C.ar      1 RES1   0.0000
    52 C41      3.5469  21.6854   0.3589   C.ar      1 RES1   0.0000
    53 C42      2.8827  20.7938   1.1915   C.ar      1 RES1   0.0000
    54 C43      0.9498  20.4433   3.9419   C.ar      1 RES1   0.0000
    55 C44      0.6800  20.9669   5.2113   C.ar      1 RES1   0.0000
    56 C45     -0.4217  21.7968   5.4236   C.ar      1 RES1   0.0000
    57 C46     -1.2720  22.1077   4.3796   C.ar      1 RES1   0.0000
    58 C47     -1.0345  21.5771   3.1198   C.ar      1 RES1   0.0000
    59 C48      0.0612  20.7459   2.9001   C.ar      1 RES1   0.0000
    60 C49      3.6967  20.5079   5.8237   C.3       1 RES1   0.0000
    61 C50      3.9406  13.3422   4.8205   C.3       1 RES1   0.0000
    62 H1      -0.3067  13.0028   2.2567   H         1 RES1   0.0000
    63 H2       1.1146  12.1806   0.5731   H         1 RES1   0.0000
    64 H3       3.0548  13.3651  -0.0190   H         1 RES1   0.0000
    65 H4      -0.0998  14.6164   6.0201   H         1 RES1   0.0000
    66 H5       0.1220  14.3929   8.3451   H         1 RES1   0.0000
    67 H6       0.8852  16.1826   9.6464   H         1 RES1   0.0000
    68 H7       1.3530  18.2524   8.6318   H         1 RES1   0.0000
    69 H8       1.0449  18.5131   6.3271   H         1 RES1   0.0000
    70 H9      -1.4569  17.2220   1.9424   H         1 RES1   0.0000
    71 H10     -3.4947  18.3367   1.6097   H         1 RES1   0.0000
    72 H11     -4.4857  19.5426   3.3556   H         1 RES1   0.0000
    73 H12     -3.4377  19.6457   5.4483   H         1 RES1   0.0000
    74 H13     -1.4111  18.5135   5.8144   H         1 RES1   0.0000
    75 H14     -1.8575  15.1930   4.4062   H         1 RES1   0.0000
    76 H15     -1.8871  14.6675   2.9295   H         1 RES1   0.0000
    77 H16     -1.2445  13.7922   4.0603   H         1 RES1   0.0000
    78 H17      5.7349  14.8056   2.6526   H         1 RES1   0.0000
    79 H18      7.5083  14.4571   4.1494   H         1 RES1   0.0000
    80 H19      8.5349  16.2803   5.2055   H         1 RES1   0.0000
    81 H20      7.7613  18.4592   4.8051   H         1 RES1   0.0000
    82 H21      5.9381  18.8105   3.3744   H         1 RES1   0.0000
    83 H22      3.0608  17.4868  -0.7209   H         1 RES1   0.0000
    84 H23      3.6362  18.7033  -2.6413   H         1 RES1   0.0000
    85 H24      5.5100  20.1290  -2.6277   H         1 RES1   0.0000
    86 H25      6.8429  20.2679  -0.7024   H         1 RES1   0.0000
    87 H26      6.3351  18.9850   1.2002   H         1 RES1   0.0000
    88 H27      5.6831  15.6014   0.1509   H         1 RES1   0.0000
    89 H28      5.1199  14.1572   0.3848   H         1 RES1   0.0000
    90 H29      4.5122  15.0625  -0.7415   H         1 RES1   0.0000
    91 H30      4.6583  18.7869   7.1788   H         1 RES1   0.0000
    92 H31      5.3813  16.6732   7.9113   H         1 RES1   0.0000
    93 H32      4.7832  14.7542   6.7229   H         1 RES1   0.0000
    94 H33      4.9124  20.9470   3.7635   H         1 RES1   0.0000
    95 H34      6.0052  22.4792   2.3592   H         1 RES1   0.0000
    96 H35      5.1506  22.9597   0.2370   H         1 RES1   0.0000
    97 H36      3.2100  21.8603  -0.5228   H         1 RES1   0.0000
    98 H37      2.0891  20.3526   0.8799   H         1 RES1   0.0000
    99 H38      1.2603  20.7524   5.9455   H         1 RES1   0.0000
   100 H39     -0.5898  22.1533   6.2989   H         1 RES1   0.0000
   101 H40     -2.0230  22.6878   4.5252   H         1 RES1   0.0000
   102 H41     -1.6289  21.7844   2.3949   H         1 RES1   0.0000
   103 H42      0.2096  20.3762   2.0267   H         1 RES1   0.0000
   104 H43      3.4493  21.3080   5.3546   H         1 RES1   0.0000
   105 H44      3.2558  20.4874   6.6762   H         1 RES1   0.0000
   106 H45      4.6477  20.4950   5.9549   H         1 RES1   0.0000
   107 H46      3.6116  12.7216   4.1661   H         1 RES1   0.0000
   108 H47      4.8986  13.3791   4.7735   H         1 RES1   0.0000
   109 H48      3.6739  13.0548   5.6967   H         1 RES1   0.0000
   110 H49      2.9207  14.7941   3.8652   H         1 RES1   0.0000
   111 F1      11.8211  12.0554   2.1676   F         2 RES2   0.0000
   112 F2      12.6606  10.3152   3.3559   F         2 RES2   0.0000
   113 F3      13.5376  10.8270   1.3215   F         2 RES2   0.0000
   114 F4      11.4840   9.9146   1.4559   F         2 RES2   0.0000
   115 B1      12.3690  10.7772   2.0787   B         2 RES2  -1.0000
@<TRIPOS>BOND
     1     1     2    1
     2     3     1    1
     3     4     1    1
     4     5     1    1
     5     6     1    1
     6     7     3    1
     7     8     4    1
     8     9     1    1
     9    10     5    1
    10    11    47    1
    11    12     6   ar
    12    13    12   ar
    13    14    13   ar
    14    15    14   ar
    15    16     6   ar
    16    17     3    1
    17    18    17   ar
    18    19    18   ar
    19    20    19   ar
    20    21    20   ar
    21    22    17   ar
    22    23     3    1
    23    24    23   ar
    24    25    24   ar
    25    26    25   ar
    26    27    26   ar
    27    28    23   ar
    28    29     7    1
    29    30     4    1
    30    31    30   ar
    31    32    31   ar
    32    33    32   ar
    33    34    33   ar
    34    35    30   ar
    35    36     4    1
    36    37    36   ar
    37    38    37   ar
    38    39    38   ar
    39    40    39   ar
    40    41    36   ar
    41    42     8    1
    42    43     9   ar
    43    44    43   ar
    44    45    44   ar
    45    46    45   ar
    46    47     9   ar
    47    48     5    1
    48    49    48   ar
    49    50    49   ar
    50    51    50   ar
    51    52    51   ar
    52    53    48   ar
    53    54     5    1
    54    55    54   ar
    55    56    55   ar
    56    57    56   ar
    57    58    57   ar
    58    59    54   ar
    59    60    10    1
    60    61    11    1
    61    62    13    1
    62    63    14    1
    63    64    15    1
    64    65    18    1
    65    66    19    1
    66    67    20    1
    67    68    21    1
    68    69    22    1
    69    70    24    1
    70    71    25    1
    71    72    26    1
    72    73    27    1
    73    74    28    1
    74    75    29    1
    75    76    29    1
    76    77    29    1
    77    78    31    1
    78    79    32    1
    79    80    33    1
    80    81    34    1
    81    82    35    1
    82    83    37    1
    83    84    38    1
    84    85    39    1
    85    86    40    1
    86    87    41    1
    87    88    42    1
    88    89    42    1
    89    90    42    1
    90    91    44    1
    91    92    45    1
    92    93    46    1
    93    94    49    1
    94    95    50    1
    95    96    51    1
    96    97    52    1
    97    98    53    1
    98    99    55    1
    99   100    56    1
   100   101    57    1
   101   102    58    1
   102   103    59    1
   103   104    60    1
   104   105    60    1
   105   106    60    1
   106   107    61    1
   107   108    61    1
   108   109    61    1
   109   110    11    1
   110     7    12    1
   111     8    16    1
   112    10    43    1
   113    15    16   ar
   114    21    22   ar
   115    27    28   ar
   116    34    35   ar
   117    40    41   ar
   118    46    47   ar
   119    52    53   ar
   120    58    59   ar
   121   111   115    1
   122   112   115    1
   123   113   115    1
   124   114   115    1
@<TRIPOS>SUBSTRUCTURE
     1 RES1        1 GROUP             0 ****  ****    0  
     2 RES2      111 GROUP             0 ****  ****    0  
@<TRIPOS>CRYSIN
   14.5198   21.3080   15.1462   90.0000   99.7100   90.0000   231     1
