@<TRIPOS>MOLECULE
FORVUE
    72    75     3     0     0
SMALL
USER_CHARGES
****
Generated from the CSD

@<TRIPOS>ATOM
     1 Fe1      2.5136  10.1552  12.7695   Fe        1 RES1   0.0000
     2 C1       0.6113  12.0828  11.5372   C.3       1 RES1   0.0000
     3 C2       0.5334  12.1516  10.0150   C.3       1 RES1   0.0000
     4 H1       0.8986  11.3370   9.6345   H         1 RES1   0.0000
     5 H2      -0.3928  12.2250   9.7399   H         1 RES1   0.0000
     6 C3       1.3143  13.3513   9.4969   C.3       1 RES1   0.0000
     7 H3       2.2604  13.2245   9.7231   H         1 RES1   0.0000
     8 C4       0.8406  14.6412  10.1403   C.3       1 RES1   0.0000
     9 H4      -0.0779  14.8185   9.8484   H         1 RES1   0.0000
    10 C5       0.8635  14.5556  11.6686   C.3       1 RES1   0.0000
    11 H5       0.4615  15.3702  12.0370   H         1 RES1   0.0000
    12 C6       0.0810  13.3559  12.1653   C.3       1 RES1   0.0000
    13 H6       0.1559  13.2978  13.1312   H         1 RES1   0.0000
    14 H7      -0.8559  13.4644  11.9407   H         1 RES1   0.0000
    15 C7      -0.1391  10.8220  12.0339   C.2       1 RES1   0.0000
    16 O1       1.9888  11.8834  11.9286   O.3       1 RES1   0.0000
    17 O2      -1.3892  10.7715  11.9376   O.co2     1 RES1   0.0000
    18 O3       0.5532   9.8830  12.4909   O.co2     1 RES1   0.0000
    19 O4       1.1951  13.4124   8.0557   O.3       1 RES1   0.0000
    20 H8       0.4172  13.5714   7.8525   H         1 RES1   0.0000
    21 O5       1.6827  15.6912   9.6696   O.3       1 RES1   0.0000
    22 H9       1.3434  16.4156   9.8469   H         1 RES1   0.0000
    23 O6       2.2099  14.4517  12.1455   O.3       1 RES1   0.0000
    24 H10      2.3994  15.1226  12.5749   H         1 RES1   0.0000
    25 C1G      3.7459   8.2529  10.8418   C.3       1 RES1   0.0000
    26 C1J      4.4413  11.3874  14.6718   C.3       1 RES1   0.0000
    27 C2G      5.2681   8.1749  10.7731   C.3       1 RES1   0.0000
    28 C2J      4.5100  12.9096  14.7497   C.3       1 RES1   0.0000
    29 H1G      5.6486   8.5402  11.5876   H         1 RES1   0.0000
    30 H1J      3.6955  13.2902  14.3845   H         1 RES1   0.0000
    31 H2G      5.5432   7.2488  10.6997   H         1 RES1   0.0000
    32 H2J      4.5834  13.1847  15.6759   H         1 RES1   0.0000
    33 C3G      5.7862   8.9559   9.5733   C.3       1 RES1   0.0000
    34 C3J      5.7098  13.4277  13.9688   C.3       1 RES1   0.0000
    35 H3G      5.5600   9.9019   9.7002   H         1 RES1   0.0000
    36 H3J      5.5829  13.2015  13.0227   H         1 RES1   0.0000
    37 C4G      5.1428   8.4821   8.2834   C.3       1 RES1   0.0000
    38 C4J      6.9997  12.7843  14.4425   C.3       1 RES1   0.0000
    39 H4G      5.4347   7.5636   8.1062   H         1 RES1   0.0000
    40 H4J      7.1769  13.0762  15.3610   H         1 RES1   0.0000
    41 C5G      3.6145   8.5050   8.3690   C.3       1 RES1   0.0000
    42 C5J      6.9141  11.2560  14.4196   C.3       1 RES1   0.0000
    43 H5G      3.2461   8.1031   7.5544   H         1 RES1   0.0000
    44 H5J      7.7287  10.8877  14.8216   H         1 RES1   0.0000
    45 C6G      3.1178   7.7226   9.5687   C.3       1 RES1   0.0000
    46 C6J      5.7144  10.7593  15.2021   C.3       1 RES1   0.0000
    47 H6G      2.1519   7.7974   9.6268   H         1 RES1   0.0000
    48 H6J      5.6563   9.7934  15.1272   H         1 RES1   0.0000
    49 H7G      3.3424   6.7857   9.4602   H         1 RES1   0.0000
    50 H7J      5.8229  10.9840  16.1390   H         1 RES1   0.0000
    51 C7G      3.2492   7.5025  12.1027   C.2       1 RES1   0.0000
    52 C7J      3.1804  10.8907  15.4222   C.2       1 RES1   0.0000
    53 O1G      3.3545   9.6303  11.0413   O.3       1 RES1   0.0000
    54 O1J      4.2418  10.9960  13.2943   O.3       1 RES1   0.0000
    55 O2G      3.3455   6.2523  12.1531   O.co2     1 RES1   0.0000
    56 O2J      3.1300  10.9870  16.6723   O.co2     1 RES1   0.0000
    57 O3G      2.7922   8.1948  13.0417   O.co2     1 RES1   0.0000
    58 O3J      2.2414  10.4338  14.7299   O.co2     1 RES1   0.0000
    59 O4G      7.2274   8.8367   9.5122   O.3       1 RES1   0.0000
    60 O4J      5.7709  14.8689  14.0880   O.3       1 RES1   0.0000
    61 H8G      7.4306   8.0588   9.3533   H         1 RES1   0.0000
    62 H8J      5.9298  15.0722  14.8659   H         1 RES1   0.0000
    63 O5G      5.6135   9.3242   7.2335   O.3       1 RES1   0.0000
    64 O5J      8.0496  13.2550  13.6004   O.3       1 RES1   0.0000
    65 H9G      5.4362   8.9849   6.5091   H         1 RES1   0.0000
    66 H9J      8.7740  13.0777  13.9397   H         1 RES1   0.0000
    67 O6G      3.1376   9.8515   8.4730   O.3       1 RES1   0.0000
    68 O6J      6.8101  10.7792  13.0732   O.3       1 RES1   0.0000
    69 H10G     2.7082  10.0410   7.8020   H         1 RES1   0.0000
    70 H10J     7.4811  10.3497  12.8837   H         1 RES1   0.0000
    71 N1      11.2377  11.2377  11.2377   N.3       2 RES2   1.0000
    72 O7       4.5345   0.6633  11.7221   O.3       3 RES3  -1.0000
@<TRIPOS>BOND
     1     1    16    1
     2     2     3    1
     3     3     4    1
     4     5     3    1
     5     6     3    1
     6     7     6    1
     7     8     6    1
     8     9     8    1
     9    10     8    1
    10    11    10    1
    11    12     2    1
    12    13    12    1
    13    14    12    1
    14    15     2    1
    15    16     2    1
    16    17    15    2
    17    18     1    1
    18    19     6    1
    19    20    19    1
    20    21     8    1
    21    22    21    1
    22    23    10    1
    23    24    23    1
    24    25    27    1
    25    26    28    1
    26    27    29    1
    27    28    30    1
    28    31    27    1
    29    32    28    1
    30    33    27    1
    31    34    28    1
    32    35    33    1
    33    36    34    1
    34    37    33    1
    35    38    34    1
    36    39    37    1
    37    40    38    1
    38    41    37    1
    39    42    38    1
    40    43    41    1
    41    44    42    1
    42    45    25    1
    43    46    26    1
    44    47    45    1
    45    48    46    1
    46    49    45    1
    47    50    46    1
    48    51    25    1
    49    52    26    1
    50    53     1    1
    51    54     1    1
    52    55    51    2
    53    56    52    2
    54    57     1    1
    55    58     1    1
    56    59    33    1
    57    60    34    1
    58    61    59    1
    59    62    60    1
    60    63    37    1
    61    64    38    1
    62    65    63    1
    63    66    64    1
    64    67    41    1
    65    68    42    1
    66    69    67    1
    67    70    68    1
    68    10    12    1
    69    15    18    1
    70    25    53    1
    71    26    54    1
    72    41    45    1
    73    42    46    1
    74    51    57    1
    75    52    58    1
@<TRIPOS>SUBSTRUCTURE
     1 RES1        1 GROUP             0 ****  ****    0  
     2 RES2       71 GROUP             0 ****  ****    0  
     3 RES3       72 GROUP             0 ****  ****    0  
@<TRIPOS>CRYSIN
   15.2831   15.2831   15.2831   90.0000   90.0000   90.0000   198     1
