@<TRIPOS>MOLECULE
FOSNEI
    95   103     4     0     0
SMALL
NO_CHARGES
****
Generated from the CSD

@<TRIPOS>ATOM
     1 Fe1      1.2753  -1.1564   4.0051   Fe        1 RES1   0.0000
     2 C1       0.9178  -3.7617   7.2978   C.3       1 RES1   0.0000
     3 H1       0.3300  -3.3707   7.9921   H         1 RES1   0.0000
     4 H2       1.8527  -3.6979   7.6146   H         1 RES1   0.0000
     5 C2      -0.6601  -4.8162   4.8859   C.3       1 RES1   0.0000
     6 H3      -0.2154  -5.4873   4.3102   H         1 RES1   0.0000
     7 H4      -1.5664  -4.6531   4.5246   H         1 RES1   0.0000
     8 C3      -1.4045   1.8589   2.7382   C.3       1 RES1   0.0000
     9 H5      -2.3262   1.6251   3.0119   H         1 RES1   0.0000
    10 H6      -1.3267   1.7085   1.7621   H         1 RES1   0.0000
    11 C4      -1.1404   3.3339   3.0469   C.3       1 RES1   0.0000
    12 H7      -0.3499   3.6405   2.5346   H         1 RES1   0.0000
    13 H8      -1.9183   3.8729   2.7598   H         1 RES1   0.0000
    14 C5       0.4086   2.8706   4.9924   C.3       1 RES1   0.0000
    15 H9       1.1906   3.3968   4.6864   H         1 RES1   0.0000
    16 H10      0.4290   2.8364   5.9806   H         1 RES1   0.0000
    17 C6       5.4003  -1.2417   3.0429   C.3       1 RES1   0.0000
    18 H11      5.8004  -2.0505   3.4514   H         1 RES1   0.0000
    19 H12      5.7042  -0.4526   3.5579   H         1 RES1   0.0000
    20 C7      -0.8947   3.5579   4.5219   C.3       1 RES1   0.0000
    21 H13     -1.6594   3.1967   5.0396   H         1 RES1   0.0000
    22 H14     -0.8369   4.5292   4.7012   H         1 RES1   0.0000
    23 C8       0.5444  -5.2379   7.0781   C.3       1 RES1   0.0000
    24 H15      1.2630  -5.6865   6.5657   H         1 RES1   0.0000
    25 H16      0.4656  -5.6917   7.9557   H         1 RES1   0.0000
    26 C9      -0.7692  -5.3638   6.3244   C.3       1 RES1   0.0000
    27 H17     -1.4733  -4.8666   6.8111   H         1 RES1   0.0000
    28 H18     -1.0362  -6.3169   6.2921   H         1 RES1   0.0000
    29 C10      5.1886  -2.1532   0.6957   C.3       1 RES1   0.0000
    30 H19      5.3497  -3.0565   1.0664   H         1 RES1   0.0000
    31 H20      5.5899  -2.1193  -0.2090   H         1 RES1   0.0000
    32 C11      3.6790  -1.9075   0.5919   C.3       1 RES1   0.0000
    33 H21      3.5084  -1.1647  -0.0418   H         1 RES1   0.0000
    34 H22      3.2364  -2.7191   0.2386   H         1 RES1   0.0000
    35 C12      5.8576  -1.1169   1.5814   C.3       1 RES1   0.0000
    36 H23      5.6410  -0.2111   1.2471   H         1 RES1   0.0000
    37 H24      6.8399  -1.2321   1.5356   H         1 RES1   0.0000
    38 C13     -1.2679  -2.5614   0.4166   C.ar      1 RES1   0.0000
    39 N1      -2.3844  -4.3790  -0.7671   N.ar      1 RES1   0.0000
    40 C14     -1.6763  -3.8919   0.2710   C.ar      1 RES1   0.0000
    41 H25     -1.4345  -4.5006   0.9599   H         1 RES1   0.0000
    42 C15     -2.7340  -3.4993  -1.7190   C.ar      1 RES1   0.0000
    43 H26     -3.2386  -3.8137  -2.4605   H         1 RES1   0.0000
    44 C16     -2.3966  -2.1553  -1.6785   C.ar      1 RES1   0.0000
    45 H27     -2.6694  -1.5631  -2.3701   H         1 RES1   0.0000
    46 C17     -1.6494  -1.6936  -0.6000   C.ar      1 RES1   0.0000
    47 H28     -1.3989  -0.7777  -0.5582   H         1 RES1   0.0000
    48 B1      -0.3947  -2.0840   1.6718   B         1 RES1   0.0000
    49 O1      -0.3141  -3.1912   2.6533   O.3       1 RES1   0.0000
    50 N2       0.3241  -2.7969   3.8141   N.2       1 RES1   0.0000
    51 C18      0.1249  -3.5420   4.8697   C.2       1 RES1   0.0000
    52 C19      0.7690  -2.9989   6.0305   C.2       1 RES1   0.0000
    53 N3       1.2524  -1.8098   5.8000   N.2       1 RES1   0.0000
    54 O2       1.9578  -1.2259   6.8367   O.3       1 RES1   0.0000
    55 B2       2.9565  -0.2246   6.3392   B         1 RES1   0.0000
    56 O3      -1.0620  -0.8825   2.2731   O.3       1 RES1   0.0000
    57 N4      -0.2618  -0.3046   3.2532   N.2       1 RES1   0.0000
    58 C20     -0.4318   0.9763   3.4568   C.2       1 RES1   0.0000
    59 C21      0.4900   1.4829   4.4369   C.2       1 RES1   0.0000
    60 N5       1.3937   0.5944   4.7389   N.2       1 RES1   0.0000
    61 O4       2.2803   0.9516   5.7433   O.3       1 RES1   0.0000
    62 O5       0.9594  -1.7105   1.1514   O.3       1 RES1   0.0000
    63 N6       1.8241  -1.4213   2.1935   N.2       1 RES1   0.0000
    64 C22      3.1007  -1.5646   1.9279   C.2       1 RES1   0.0000
    65 C23      3.9129  -1.3359   3.0968   C.2       1 RES1   0.0000
    66 O6       3.8562  -0.8837   5.3294   O.3       1 RES1   0.0000
    67 C24      3.8634   0.2453   7.5648   C.ar      1 RES1   0.0000
    68 C25      4.1930   1.5708   7.7926   C.ar      1 RES1   0.0000
    69 H29      3.8373   2.2186   7.1954   H         1 RES1   0.0000
    70 N7       4.9779   2.0165   8.7916   N.ar      1 RES1   0.0000
    71 C26      5.4528   1.0960   9.6235   C.ar      1 RES1   0.0000
    72 H30      6.0072   1.3813  10.3394   H         1 RES1   0.0000
    73 C27      5.1842  -0.2544   9.5075   C.ar      1 RES1   0.0000
    74 H31      5.5396  -0.8734  10.1344   H         1 RES1   0.0000
    75 C28      4.3891  -0.6902   8.4627   C.ar      1 RES1   0.0000
    76 H32      4.2015  -1.6153   8.3562   H         1 RES1   0.0000
    77 N8       3.1696  -1.2050   4.1673   N.2       1 RES1   0.0000
    78 O7      -4.7695   2.2760   3.0631   O.3       2 RES2   0.0000
    79 H33     -4.6333   3.0039   2.6667   H         2 RES2   0.0000
    80 C29     -5.1474   2.5321   4.4005   C.3       2 RES2   0.0000
    81 H34     -5.9415   3.1058   4.4113   H         2 RES2   0.0000
    82 H35     -4.4129   2.9832   4.8670   H         2 RES2   0.0000
    83 H36     -5.3496   1.6850   4.8508   H         2 RES2   0.0000
    84 O8      -6.0968  -4.8027  -1.9428   O.3       3 RES3   0.0000
    85 H37     -6.3559  -4.9207  -1.1527   H         3 RES3   0.0000
    86 C30     -5.7895  -6.0255  -2.5144   C.3       3 RES3   0.0000
    87 H38     -6.6141  -6.5308  -2.6694   H         3 RES3   0.0000
    88 H39     -5.2066  -6.5312  -1.9091   H         3 RES3   0.0000
    89 H40     -5.3289  -5.8815  -3.3665   H         3 RES3   0.0000
    90 O9      -2.5217  -7.1036  -0.4543   O.3       4 RES4   0.0000
    91 H41     -2.6482  -6.2888  -0.6148   H         4 RES4   0.0000
    92 C31     -1.1269  -7.3731  -0.4395   C.3       4 RES4   0.0000
    93 H42     -0.9774  -8.3310  -0.5784   H         4 RES4   0.0000
    94 H43     -0.7520  -7.1058   0.4260   H         4 RES4   0.0000
    95 H44     -0.6898  -6.8668  -1.1554   H         4 RES4   0.0000
@<TRIPOS>BOND
     1     1    50    1
     2     2     3    1
     3     4     2    1
     4     5     6    1
     5     7     5    1
     6     8     9    1
     7    10     8    1
     8    11     8    1
     9    12    11    1
    10    13    11    1
    11    14    15    1
    12    16    14    1
    13    17    18    1
    14    19    17    1
    15    20    11    1
    16    21    20    1
    17    22    20    1
    18    23     2    1
    19    24    23    1
    20    25    23    1
    21    26     5    1
    22    27    26    1
    23    28    26    1
    24    29    30    1
    25    31    29    1
    26    32    29    1
    27    33    32    1
    28    34    32    1
    29    35    17    1
    30    36    35    1
    31    37    35    1
    32    38    40   ar
    33    39    40   ar
    34    40    41    1
    35    42    39   ar
    36    43    42    1
    37    44    42   ar
    38    45    44    1
    39    46    38   ar
    40    47    46    1
    41    48    38    1
    42    49    48    1
    43    50    49    1
    44    51     5    1
    45    52     2    1
    46    53     1    1
    47    54    53    1
    48    55    54    1
    49    56    48    1
    50    57     1    1
    51    58     8    1
    52    59    14    1
    53    60     1    1
    54    61    55    1
    55    62    48    1
    56    63     1    1
    57    64    32    1
    58    65    17    1
    59    66    55    1
    60    67    55    1
    61    68    67   ar
    62    69    68    1
    63    70    68   ar
    64    71    70   ar
    65    72    71    1
    66    73    71   ar
    67    74    73    1
    68    75    67   ar
    69    76    75    1
    70    77     1    1
    71    14    20    1
    72    23    26    1
    73    29    35    1
    74    44    46   ar
    75    50    51    2
    76    51    52    1
    77    52    53    2
    78    56    57    1
    79    57    58    2
    80    58    59    1
    81    59    60    2
    82    60    61    1
    83    62    63    1
    84    63    64    2
    85    64    65    1
    86    65    77    2
    87    66    77    1
    88    73    75   ar
    89    78    79    1
    90    80    78    1
    91    81    80    1
    92    82    80    1
    93    83    80    1
    94    84    85    1
    95    86    84    1
    96    87    86    1
    97    88    86    1
    98    89    86    1
    99    90    91    1
   100    92    90    1
   101    93    92    1
   102    94    92    1
   103    95    92    1
@<TRIPOS>SUBSTRUCTURE
     1 RES1        1 GROUP             0 ****  ****    0  
     2 RES2       78 GROUP             0 ****  ****    0  
     3 RES3       84 GROUP             0 ****  ****    0  
     4 RES4       90 GROUP             0 ****  ****    0  
@<TRIPOS>CRYSIN
   10.4350   12.5220   14.5680  110.0500   98.2500   92.9300     2     1
