@<TRIPOS>MOLECULE
FOSRUD
   109   114     1     0     0
SMALL
NO_CHARGES
****
Generated from the CSD

@<TRIPOS>ATOM
     1 Fe1     -3.7216   4.1176   7.9545   Fe        1 RES1   0.0000
     2 S1      -6.5699   2.5281   4.6093   S.2       1 RES1   0.0000
     3 O1      -3.2138   5.2411   3.4907   O.2       1 RES1   0.0000
     4 N1      -2.1138   4.8330   7.0130   N.ar      1 RES1   0.0000
     5 N2      -4.5352   5.9041   7.7028   N.ar      1 RES1   0.0000
     6 N3      -4.5394   3.4722   6.2910   N.2       1 RES1   0.0000
     7 N4      -3.5173   6.0623   5.5756   N.am      1 RES1   0.0000
     8 C1      -0.8655   4.5427   7.4583   C.ar      1 RES1   0.0000
     9 H1      -0.7744   4.0048   8.2360   H         1 RES1   0.0000
    10 C2       0.2755   4.9934   6.8324   C.ar      1 RES1   0.0000
    11 H2       1.1322   4.7652   7.1738   H         1 RES1   0.0000
    12 C3       0.1610   5.7850   5.6970   C.ar      1 RES1   0.0000
    13 H3       0.9343   6.0877   5.2358   H         1 RES1   0.0000
    14 C4      -1.1016   6.1216   5.2541   C.ar      1 RES1   0.0000
    15 H4      -1.2140   6.6718   4.4879   H         1 RES1   0.0000
    16 C5      -2.2088   5.6414   5.9493   C.ar      1 RES1   0.0000
    17 C6      -4.3369   6.6358   6.5919   C.ar      1 RES1   0.0000
    18 C7      -4.8498   7.9165   6.4337   C.ar      1 RES1   0.0000
    19 H5      -4.6331   8.4319   5.6657   H         1 RES1   0.0000
    20 C8      -5.6836   8.4310   7.4151   C.ar      1 RES1   0.0000
    21 H6      -6.0960   9.2796   7.3042   H         1 RES1   0.0000
    22 C9      -5.9036   7.6821   8.5620   C.ar      1 RES1   0.0000
    23 H7      -6.4715   8.0083   9.2502   H         1 RES1   0.0000
    24 C10     -5.2850   6.4574   8.6863   C.ar      1 RES1   0.0000
    25 H8      -5.3891   5.9783   9.4999   H         1 RES1   0.0000
    26 C11     -3.9623   5.7829   4.2781   C.2       1 RES1   0.0000
    27 C12     -5.3834   6.1665   3.9397   C.3       1 RES1   0.0000
    28 H9      -5.4796   7.1492   4.0113   H         1 RES1   0.0000
    29 H10     -5.9963   5.7528   4.5979   H         1 RES1   0.0000
    30 C13     -5.7873   5.7261   2.5357   C.3       1 RES1   0.0000
    31 H11     -5.6814   4.7448   2.4588   H         1 RES1   0.0000
    32 H12     -5.1842   6.1502   1.8749   H         1 RES1   0.0000
    33 C14     -7.2335   6.1034   2.2123   C.3       1 RES1   0.0000
    34 H13     -7.4653   5.7398   1.3212   H         1 RES1   0.0000
    35 H14     -7.8300   5.6743   2.8758   H         1 RES1   0.0000
    36 C15     -7.4996   7.6035   2.2131   C.3       1 RES1   0.0000
    37 H15     -6.8884   8.0337   1.5641   H         1 RES1   0.0000
    38 H16     -7.2844   7.9626   3.1103   H         1 RES1   0.0000
    39 C16     -8.9339   7.9914   1.8637   C.3       1 RES1   0.0000
    40 H17     -9.1260   7.7202   0.9312   H         1 RES1   0.0000
    41 H18     -9.5569   7.5019   2.4572   H         1 RES1   0.0000
    42 C17     -9.1758   9.4850   2.0091   C.3       1 RES1   0.0000
    43 H19     -8.5899   9.9645   1.3712   H         1 RES1   0.0000
    44 H20     -8.9129   9.7612   2.9228   H         1 RES1   0.0000
    45 C18    -10.6217   9.9159   1.7646   C.3       1 RES1   0.0000
    46 H21    -10.8521   9.7384   0.8183   H         1 RES1   0.0000
    47 H22    -11.2192   9.3636   2.3284   H         1 RES1   0.0000
    48 C19    -10.8823  11.3867   2.0661   C.3       1 RES1   0.0000
    49 H23    -11.8603  11.5325   2.1128   H         1 RES1   0.0000
    50 H24    -10.5045  11.5999   2.9559   H         1 RES1   0.0000
    51 C20    -10.2944  12.3444   1.0441   C.3       1 RES1   0.0000
    52 H25    -10.6668  12.1472   0.1593   H         1 RES1   0.0000
    53 H26     -9.3204  12.2387   1.0195   H         1 RES1   0.0000
    54 H27    -10.5167  13.2656   1.2941   H         1 RES1   0.0000
    55 C21     -5.3668   3.0789   5.5743   C.1       1 RES1   0.0000
    56 S1B     -0.8732   5.7070  11.2996   S.2       1 RES1   0.0000
    57 O1B     -4.2293   2.9940  12.4182   O.2       1 RES1   0.0000
    58 N1B     -5.3293   3.4021   8.8959   N.ar      1 RES1   0.0000
    59 N2B     -2.9079   2.3310   8.2061   N.ar      1 RES1   0.0000
    60 N3B     -2.9037   4.7629   9.6179   N.2       1 RES1   0.0000
    61 N4B     -3.9259   2.1728  10.3333   N.am      1 RES1   0.0000
    62 C1B     -6.5776   3.6924   8.4507   C.ar      1 RES1   0.0000
    63 H1B     -6.6687   4.2303   7.6730   H         1 RES1   0.0000
    64 C2B     -7.7187   3.2417   9.0765   C.ar      1 RES1   0.0000
    65 H2B     -8.5753   3.4699   8.7351   H         1 RES1   0.0000
    66 C3B     -7.6041   2.4501  10.2119   C.ar      1 RES1   0.0000
    67 H3B     -8.3775   2.1474  10.6731   H         1 RES1   0.0000
    68 C4B     -6.3415   2.1135  10.6548   C.ar      1 RES1   0.0000
    69 H4B     -6.2292   1.5633  11.4210   H         1 RES1   0.0000
    70 C5B     -5.2344   2.5937   9.9596   C.ar      1 RES1   0.0000
    71 C6B     -3.1062   1.5993   9.3171   C.ar      1 RES1   0.0000
    72 C7B     -2.5933   0.3186   9.4752   C.ar      1 RES1   0.0000
    73 H5B     -2.8101  -0.1968  10.2432   H         1 RES1   0.0000
    74 C8B     -1.7596  -0.1959   8.4938   C.ar      1 RES1   0.0000
    75 H6B     -1.3472  -1.0445   8.6047   H         1 RES1   0.0000
    76 C9B     -1.5395   0.5530   7.3469   C.ar      1 RES1   0.0000
    77 H7B     -0.9716   0.2268   6.6588   H         1 RES1   0.0000
    78 C10B    -2.1581   1.7777   7.2226   C.ar      1 RES1   0.0000
    79 H8B     -2.0540   2.2568   6.4090   H         1 RES1   0.0000
    80 C11B    -3.4808   2.4522  11.6309   C.2       1 RES1   0.0000
    81 C12B    -2.0597   2.0686  11.9692   C.3       1 RES1   0.0000
    82 H9B     -1.9635   1.0859  11.8976   H         1 RES1   0.0000
    83 H10B    -1.4469   2.4823  11.3110   H         1 RES1   0.0000
    84 C13B    -1.6559   2.5090  13.3732   C.3       1 RES1   0.0000
    85 H11B    -1.7618   3.4903  13.4501   H         1 RES1   0.0000
    86 H12B    -2.2589   2.0849  14.0340   H         1 RES1   0.0000
    87 C14B    -0.2096   2.1317  13.6966   C.3       1 RES1   0.0000
    88 H13B     0.0221   2.4953  14.5877   H         1 RES1   0.0000
    89 H14B     0.3868   2.5608  13.0331   H         1 RES1   0.0000
    90 C15B     0.0565   0.6316  13.6958   C.3       1 RES1   0.0000
    91 H15B    -0.5547   0.2014  14.3448   H         1 RES1   0.0000
    92 H16B    -0.1587   0.2725  12.7987   H         1 RES1   0.0000
    93 C16B     1.4907   0.2437  14.0452   C.3       1 RES1   0.0000
    94 H17B     1.6829   0.5149  14.9777   H         1 RES1   0.0000
    95 H18B     2.1138   0.7332  13.4517   H         1 RES1   0.0000
    96 C17B     1.7326  -1.2499  13.8998   C.3       1 RES1   0.0000
    97 H19B     1.1467  -1.7294  14.5377   H         1 RES1   0.0000
    98 H20B     1.4697  -1.5261  12.9861   H         1 RES1   0.0000
    99 C18B     3.1785  -1.6808  14.1443   C.3       1 RES1   0.0000
   100 H21B     3.4090  -1.5033  15.0906   H         1 RES1   0.0000
   101 H22B     3.7761  -1.1285  13.5805   H         1 RES1   0.0000
   102 C19B     3.4392  -3.1516  13.8428   C.3       1 RES1   0.0000
   103 H23B     4.4172  -3.2974  13.7962   H         1 RES1   0.0000
   104 H24B     3.0613  -3.3648  12.9530   H         1 RES1   0.0000
   105 C20B     2.8513  -4.1093  14.8648   C.3       1 RES1   0.0000
   106 H25B     3.2236  -3.9121  15.7496   H         1 RES1   0.0000
   107 H26B     1.8773  -4.0036  14.8894   H         1 RES1   0.0000
   108 H27B     3.0735  -5.0305  14.6148   H         1 RES1   0.0000
   109 C21B    -2.0764   5.1562  10.3346   C.1       1 RES1   0.0000
@<TRIPOS>BOND
     1     1     4    1
     2     2    55    2
     3     3    26    2
     4     4     8   ar
     5     5     1    1
     6     6     1    1
     7     7    16    1
     8     8     9    1
     9    10     8   ar
    10    11    10    1
    11    12    10   ar
    12    13    12    1
    13    14    12   ar
    14    15    14    1
    15    16     4   ar
    16    17     5   ar
    17    18    17   ar
    18    19    18    1
    19    20    18   ar
    20    21    20    1
    21    22    20   ar
    22    23    22    1
    23    24     5   ar
    24    25    24    1
    25    26     7   am
    26    27    26    1
    27    28    27    1
    28    29    27    1
    29    30    27    1
    30    31    30    1
    31    32    30    1
    32    33    30    1
    33    34    33    1
    34    35    33    1
    35    36    33    1
    36    37    36    1
    37    38    36    1
    38    39    36    1
    39    40    39    1
    40    41    39    1
    41    42    39    1
    42    43    42    1
    43    44    42    1
    44    45    42    1
    45    46    45    1
    46    47    45    1
    47    48    45    1
    48    49    48    1
    49    50    48    1
    50    51    48    1
    51    52    51    1
    52    53    51    1
    53    54    51    1
    54    55     6    2
    55    56   109    2
    56    57    80    2
    57    58     1    1
    58    59     1    1
    59    60     1    1
    60    61    70    1
    61    62    58   ar
    62    63    62    1
    63    64    62   ar
    64    65    64    1
    65    66    64   ar
    66    67    66    1
    67    68    66   ar
    68    69    68    1
    69    70    58   ar
    70    71    59   ar
    71    72    71   ar
    72    73    72    1
    73    74    72   ar
    74    75    74    1
    75    76    74   ar
    76    77    76    1
    77    78    59   ar
    78    79    78    1
    79    80    61   am
    80    81    80    1
    81    82    81    1
    82    83    81    1
    83    84    81    1
    84    85    84    1
    85    86    84    1
    86    87    84    1
    87    88    87    1
    88    89    87    1
    89    90    87    1
    90    91    90    1
    91    92    90    1
    92    93    90    1
    93    94    93    1
    94    95    93    1
    95    96    93    1
    96    97    96    1
    97    98    96    1
    98    99    96    1
    99   100    99    1
   100   101    99    1
   101   102    99    1
   102   103   102    1
   103   104   102    1
   104   105   102    1
   105   106   105    1
   106   107   105    1
   107   108   105    1
   108   109    60    2
   109     7    17    1
   110    14    16   ar
   111    22    24   ar
   112    61    71    1
   113    68    70   ar
   114    76    78   ar
@<TRIPOS>SUBSTRUCTURE
     1 RES1        1 GROUP             0 ****  ****    0  
@<TRIPOS>CRYSIN
   15.9053    8.2351   17.5640   90.0000  115.0730   90.0000    14     1
