@<TRIPOS>MOLECULE
FOTLAC
   112   118     3     0     0
SMALL
NO_CHARGES
****
Generated from the CSD

@<TRIPOS>ATOM
     1 Fe1     -2.5177  -2.2744  14.2511   Fe        1 RES1   0.0000
     2 O1      -3.0341  -2.3550  12.4319   O.3       1 RES1   0.0000
     3 O2      -2.4963  -0.3960  14.4683   O.3       1 RES1   0.0000
     4 O3      -1.5023  -2.8593  15.9210   O.co2     1 RES1   0.0000
     5 N1      -0.4182  -2.2926  13.5926   N.3       1 RES1   0.0000
     6 N2      -3.0729  -4.5809  14.3708   N.ar      1 RES1   0.0000
     7 O4       0.2630  -4.0053  16.6487   O.co2     1 RES1   0.0000
     8 C1      -1.1712  -3.4878  11.5074   C.ar      1 RES1   0.0000
     9 N3      -4.3087  -2.4170  15.4273   N.ar      1 RES1   0.0000
    10 C2      -0.2280   2.2750  12.1790   C.ar      1 RES1   0.0000
    11 C3      -2.5592  -3.3167  11.6153   C.ar      1 RES1   0.0000
    12 C4       0.3084   1.1020  12.7009   C.ar      1 RES1   0.0000
    13 H1       1.2036   0.9019  12.5391   H         1 RES1   0.0000
    14 C5      -1.8020   0.4798  13.6996   C.ar      1 RES1   0.0000
    15 C6      -2.8324  -5.1838  10.1712   C.ar      1 RES1   0.0000
    16 H2      -3.3914  -5.7564   9.6979   H         1 RES1   0.0000
    17 C7      -4.0953  -4.7990  15.2324   C.ar      1 RES1   0.0000
    18 C8      -1.5688   2.5136  12.4452   C.ar      1 RES1   0.0000
    19 H3      -1.9455   3.2930  12.1076   H         1 RES1   0.0000
    20 C9      -5.8470  -3.8355  16.6521   C.ar      1 RES1   0.0000
    21 C10     -4.5479  -6.0908  15.5804   C.ar      1 RES1   0.0000
    22 C11     -0.6420  -4.5424  10.7697   C.ar      1 RES1   0.0000
    23 H4       0.2813  -4.6468  10.7227   H         1 RES1   0.0000
    24 C12     -0.4535   0.2219  13.4543   C.ar      1 RES1   0.0000
    25 C13     -2.3870   1.6635  13.1829   C.ar      1 RES1   0.0000
    26 C14     -4.7610  -3.6545  15.7944   C.ar      1 RES1   0.0000
    27 C15     -3.4295  -4.1572  10.8723   C.ar      1 RES1   0.0000
    28 C16     -0.2746  -2.4402  12.1285   C.3       1 RES1   0.0000
    29 H5       0.6481  -2.6648  11.9284   H         1 RES1   0.0000
    30 H6      -0.4629  -1.5845  11.7110   H         1 RES1   0.0000
    31 C17     -1.4582  -5.4375  10.1085   C.ar      1 RES1   0.0000
    32 C18      0.2003  -3.3866  14.3503   C.3       1 RES1   0.0000
    33 H7       1.1605  -3.2558  14.3886   H         1 RES1   0.0000
    34 H8       0.0276  -4.2305  13.9049   H         1 RES1   0.0000
    35 C19     -3.8499   2.0067  13.4665   C.3       1 RES1   0.0000
    36 C20     -2.5187  -5.6481  13.8005   C.ar      1 RES1   0.0000
    37 H9      -1.8389  -5.5103  13.1811   H         1 RES1   0.0000
    38 C21     -5.6413  -6.2232  16.5077   C.ar      1 RES1   0.0000
    39 H10     -5.9198  -7.0718  16.7670   H         1 RES1   0.0000
    40 C22      0.1937  -1.0025  14.0441   C.3       1 RES1   0.0000
    41 H11      1.1339  -1.0035  13.8057   H         1 RES1   0.0000
    42 H12      0.1354  -0.9523  15.0115   H         1 RES1   0.0000
    43 C23     -4.9392  -1.3641  15.9162   C.ar      1 RES1   0.0000
    44 H13     -4.6365  -0.5184  15.6743   H         1 RES1   0.0000
    45 C24     -3.9101  -7.1775  14.9645   C.ar      1 RES1   0.0000
    46 H14     -4.1783  -8.0459  15.1628   H         1 RES1   0.0000
    47 C25      0.6492   3.2759  11.4065   C.3       1 RES1   0.0000
    48 C26     -0.9398  -6.6456   9.3100   C.3       1 RES1   0.0000
    49 C27     -4.9368  -3.8948  10.7923   C.3       1 RES1   0.0000
    50 C28     -6.2608  -5.1543  16.9984   C.ar      1 RES1   0.0000
    51 H15     -6.9783  -5.2698  17.5795   H         1 RES1   0.0000
    52 C29     -6.4739  -2.6856  17.1480   C.ar      1 RES1   0.0000
    53 H16     -7.1916  -2.7608  17.7326   H         1 RES1   0.0000
    54 C30     -6.0288  -1.4509  16.7687   C.ar      1 RES1   0.0000
    55 H17     -6.4494  -0.6820  17.0784   H         1 RES1   0.0000
    56 C31     -4.7894   0.8915  12.9532   C.3       1 RES1   0.0000
    57 H18     -4.7693   0.8729  11.9945   H         1 RES1   0.0000
    58 H19     -5.6856   1.0653  13.2525   H         1 RES1   0.0000
    59 H20     -4.4966   0.0441  13.2960   H         1 RES1   0.0000
    60 C32     -2.9010  -6.9610  14.0789   C.ar      1 RES1   0.0000
    61 H21     -2.4716  -7.6766  13.6665   H         1 RES1   0.0000
    62 C33     -4.0332   2.2274  14.9801   C.3       1 RES1   0.0000
    63 H22     -3.6853   1.4707  15.4569   H         1 RES1   0.0000
    64 H23     -4.9668   2.3299  15.1785   H         1 RES1   0.0000
    65 H24     -3.5591   3.0190  15.2463   H         1 RES1   0.0000
    66 C34     -0.3676  -3.4289  15.7631   C.2       1 RES1   0.0000
    67 C35     -4.2788   3.3071  12.7723   C.3       1 RES1   0.0000
    68 H25     -3.7231   4.0287  13.0750   H         1 RES1   0.0000
    69 H26     -5.1946   3.4968  12.9863   H         1 RES1   0.0000
    70 H27     -4.1864   3.2084  11.8223   H         1 RES1   0.0000
    71 C36     -0.1784   4.2084  10.5452   C.3       1 RES1   0.0000
    72 H28      0.4027   4.8191  10.0842   H         1 RES1   0.0000
    73 H29     -0.7868   4.7015  11.1003   H         1 RES1   0.0000
    74 H30     -0.6744   3.6944   9.9032   H         1 RES1   0.0000
    75 C37     -1.4386  -6.5538   7.8520   C.3       1 RES1   0.0000
    76 H31     -2.3985  -6.5724   7.8415   H         1 RES1   0.0000
    77 H32     -1.0991  -7.2979   7.3509   H         1 RES1   0.0000
    78 H33     -1.1296  -5.7338   7.4587   H         1 RES1   0.0000
    79 C38      1.4218   4.1141  12.4347   C.3       1 RES1   0.0000
    80 H34      1.9776   3.5388  12.9636   H         1 RES1   0.0000
    81 H35      0.8002   4.5731  13.0054   H         1 RES1   0.0000
    82 H36      1.9700   4.7568  11.9771   H         1 RES1   0.0000
    83 C39      0.5812  -6.6954   9.2647   C.3       1 RES1   0.0000
    84 H37      0.9137  -5.9103   8.8228   H         1 RES1   0.0000
    85 H38      0.8610  -7.4756   8.7810   H         1 RES1   0.0000
    86 H39      0.9275  -6.7313  10.1590   H         1 RES1   0.0000
    87 C40     -5.1790  -2.4809  10.2634   C.3       1 RES1   0.0000
    88 H40     -4.7392  -1.8462  10.8323   H         1 RES1   0.0000
    89 H41     -6.1219  -2.3017  10.2512   H         1 RES1   0.0000
    90 H42     -4.8281  -2.4089   9.3726   H         1 RES1   0.0000
    91 C41      1.6487   2.5439  10.5157   C.3       1 RES1   0.0000
    92 H43      2.2125   1.9879  11.0568   H         1 RES1   0.0000
    93 H44      2.1873   3.1843  10.0442   H         1 RES1   0.0000
    94 H45      1.1737   1.9995   9.8824   H         1 RES1   0.0000
    95 C42     -5.5828  -4.0520  12.1564   C.3       1 RES1   0.0000
    96 H46     -5.4408  -4.9456  12.4765   H         1 RES1   0.0000
    97 H47     -6.5248  -3.8835  12.0850   H         1 RES1   0.0000
    98 H48     -5.1915  -3.4268  12.7705   H         1 RES1   0.0000
    99 C43     -1.4564  -7.9260   9.9520   C.3       1 RES1   0.0000
   100 H49     -1.1338  -7.9849  10.8532   H         1 RES1   0.0000
   101 H50     -1.1445  -8.6838   9.4509   H         1 RES1   0.0000
   102 H51     -2.4165  -7.9175   9.9554   H         1 RES1   0.0000
   103 C44     -5.6330  -4.8561   9.8110   C.3       1 RES1   0.0000
   104 H52     -5.2141  -4.7926   8.9498   H         1 RES1   0.0000
   105 H53     -6.5606  -4.6197   9.7345   H         1 RES1   0.0000
   106 H54     -5.5580  -5.7557  10.1364   H         1 RES1   0.0000
   107 N4      -3.6740   0.6060  18.6425   N.1       2 RES2   0.0000
   108 C45     -2.6502  -0.0200  18.5921   C.1       2 RES2   0.0000
   109 C47     -1.4769  -0.6384  18.5729   C.2       2 RES2   0.0000
   110 O5       0.1993  -3.3601  19.3402   O.3       3 RES3   0.0000
   111 C46      0.0241  -4.5656  21.3532   C.3       3 RES3   0.0000
   112 C48      0.6270  -4.4448  19.9909   C.3       3 RES3   0.0000
@<TRIPOS>BOND
     1     1     2    1
     2     2    11    1
     3     3     1    1
     4     4     1    1
     5     5     1    1
     6     6     1    1
     7     7    66    2
     8     8    11   ar
     9     9     1    1
    10    10    12   ar
    11    11    27   ar
    12    12    13    1
    13    14     3    1
    14    15    16    1
    15    17     6   ar
    16    18    10   ar
    17    19    18    1
    18    20    26   ar
    19    21    17   ar
    20    22     8   ar
    21    23    22    1
    22    24    12   ar
    23    25    14   ar
    24    26     9   ar
    25    27    15   ar
    26    28     5    1
    27    29    28    1
    28    30    28    1
    29    31    15   ar
    30    32     5    1
    31    33    32    1
    32    34    32    1
    33    35    25    1
    34    36     6   ar
    35    37    36    1
    36    38    21   ar
    37    39    38    1
    38    40     5    1
    39    41    40    1
    40    42    40    1
    41    43     9   ar
    42    44    43    1
    43    45    21   ar
    44    46    45    1
    45    47    10    1
    46    48    31    1
    47    49    27    1
    48    50    20   ar
    49    51    50    1
    50    52    20   ar
    51    53    52    1
    52    54    43   ar
    53    55    54    1
    54    56    35    1
    55    57    56    1
    56    58    56    1
    57    59    56    1
    58    60    36   ar
    59    61    60    1
    60    62    35    1
    61    63    62    1
    62    64    62    1
    63    65    62    1
    64    66     4    1
    65    67    35    1
    66    68    67    1
    67    69    67    1
    68    70    67    1
    69    71    47    1
    70    72    71    1
    71    73    71    1
    72    74    71    1
    73    75    48    1
    74    76    75    1
    75    77    75    1
    76    78    75    1
    77    79    47    1
    78    80    79    1
    79    81    79    1
    80    82    79    1
    81    83    48    1
    82    84    83    1
    83    85    83    1
    84    86    83    1
    85    87    49    1
    86    88    87    1
    87    89    87    1
    88    90    87    1
    89    91    47    1
    90    92    91    1
    91    93    91    1
    92    94    91    1
    93    95    49    1
    94    96    95    1
    95    97    95    1
    96    98    95    1
    97    99    48    1
    98   100    99    1
    99   101    99    1
   100   102    99    1
   101   103    49    1
   102   104   103    1
   103   105   103    1
   104   106   103    1
   105     8    28    1
   106    14    24   ar
   107    17    26   ar
   108    18    25   ar
   109    22    31   ar
   110    24    40    1
   111    32    66    1
   112    38    50   ar
   113    45    60   ar
   114    52    54   ar
   115   107   108    3
   116   108   109    1
   117   110   112    1
   118   111   112    1
@<TRIPOS>SUBSTRUCTURE
     1 RES1        1 GROUP             0 ****  ****    0  
     2 RES2      107 GROUP             0 ****  ****    0  
     3 RES3      110 GROUP             0 ****  ****    0  
@<TRIPOS>CRYSIN
    9.6570   14.1790   18.7780  104.3870  102.5370  103.4240     2     1
