@<TRIPOS>MOLECULE
FOXROB
    75    83     1     0     0
SMALL
NO_CHARGES
****
Generated from the CSD

@<TRIPOS>ATOM
     1 Fe1      0.4039   4.1752   3.4852   Fe        1 RES1   0.0000
     2 N1      -1.7064   3.6435   3.9003   N.ar      1 RES1   0.0000
     3 N2      -0.5054   5.1644   1.7044   N.ar      1 RES1   0.0000
     4 N3       2.1183   5.5453   3.4249   N.ar      1 RES1   0.0000
     5 N4      -0.3297   6.0048   4.4038   N.3       1 RES1   0.0000
     6 O1       1.2709   2.4552   2.7984   O.3       1 RES1   0.0000
     7 O2       1.2553   1.8407   7.1770   O.2       1 RES1   0.0000
     8 O3       1.4391   0.3807   4.0211   O.2       1 RES1   0.0000
     9 O4       3.4004   1.8044   3.7467   O.2       1 RES1   0.0000
    10 O5       1.0840   3.5478   5.4773   O.3       1 RES1   0.0000
    11 O6       0.4335   4.0650   7.7412   O.2       1 RES1   0.0000
    12 S1       2.1333   1.3664   3.2665   S.o2      1 RES1   0.0000
    13 F1       3.2233  -0.5336   1.8550   F         1 RES1   0.0000
    14 F2       3.1306   1.3472   0.8434   F         1 RES1   0.0000
    15 F3       1.3556   0.1783   1.0857   F         1 RES1   0.0000
    16 S2       1.2289   3.2349   6.8842   S.o2      1 RES1   0.0000
    17 F4       3.8139   3.2750   6.3983   F         1 RES1   0.0000
    18 F5       3.3187   3.4518   8.4457   F         1 RES1   0.0000
    19 F6       3.0413   5.1156   7.1246   F         1 RES1   0.0000
    20 C1      -1.4690   5.6207   5.2704   C.3       1 RES1   0.0000
    21 H1      -2.0082   6.4232   5.4861   H         1 RES1   0.0000
    22 H2      -1.1288   5.2409   6.1197   H         1 RES1   0.0000
    23 C2      -2.3377   4.5987   4.5691   C.ar      1 RES1   0.0000
    24 C3      -3.7406   4.6724   4.6700   C.ar      1 RES1   0.0000
    25 H3      -4.1513   5.3581   5.1840   H         1 RES1   0.0000
    26 C4      -4.5043   3.7436   4.0194   C.ar      1 RES1   0.0000
    27 H4      -5.4517   3.7901   4.0616   H         1 RES1   0.0000
    28 C5      -3.8799   2.7165   3.2845   C.ar      1 RES1   0.0000
    29 C6      -4.6000   1.7324   2.5683   C.ar      1 RES1   0.0000
    30 H5      -5.5482   1.7757   2.5364   H         1 RES1   0.0000
    31 C7      -3.9513   0.7248   1.9246   C.ar      1 RES1   0.0000
    32 H6      -4.4464   0.0706   1.4455   H         1 RES1   0.0000
    33 C8      -2.5431   0.6515   1.9670   C.ar      1 RES1   0.0000
    34 H7      -2.0966  -0.0706   1.5420   H         1 RES1   0.0000
    35 C9      -1.8164   1.6103   2.6155   C.ar      1 RES1   0.0000
    36 H8      -0.8682   1.5567   2.6245   H         1 RES1   0.0000
    37 C10     -2.4600   2.6733   3.2690   C.ar      1 RES1   0.0000
    38 C11     -0.7501   6.9535   3.3426   C.3       1 RES1   0.0000
    39 H9      -0.0252   7.6141   3.2077   H         1 RES1   0.0000
    40 H10     -1.5477   7.4460   3.6588   H         1 RES1   0.0000
    41 C12     -1.0722   6.3198   2.0193   C.ar      1 RES1   0.0000
    42 C13     -1.9180   7.0348   1.1476   C.ar      1 RES1   0.0000
    43 H11     -2.2995   7.8627   1.4140   H         1 RES1   0.0000
    44 C14     -2.1781   6.5163  -0.0810   C.ar      1 RES1   0.0000
    45 H12     -2.7682   6.9713  -0.6692   H         1 RES1   0.0000
    46 C15     -1.5783   5.3113  -0.4871   C.ar      1 RES1   0.0000
    47 C16     -1.7800   4.7394  -1.7610   C.ar      1 RES1   0.0000
    48 H13     -2.3639   5.1632  -2.3791   H         1 RES1   0.0000
    49 C17     -1.1507   3.5923  -2.1158   C.ar      1 RES1   0.0000
    50 H14     -1.2898   3.2208  -2.9791   H         1 RES1   0.0000
    51 C18     -0.2890   2.9528  -1.2051   C.ar      1 RES1   0.0000
    52 H15      0.1686   2.1627  -1.4665   H         1 RES1   0.0000
    53 C19     -0.1048   3.4560   0.0495   C.ar      1 RES1   0.0000
    54 H16      0.4522   2.9934   0.6650   H         1 RES1   0.0000
    55 C20     -0.7324   4.6541   0.4408   C.ar      1 RES1   0.0000
    56 C21      0.7964   6.5762   5.1775   C.3       1 RES1   0.0000
    57 H17      0.8841   6.0983   6.0400   H         1 RES1   0.0000
    58 H18      0.6161   7.5307   5.3707   H         1 RES1   0.0000
    59 C22      2.0878   6.4506   4.3920   C.ar      1 RES1   0.0000
    60 C23      3.1851   7.2684   4.7153   C.ar      1 RES1   0.0000
    61 H19      3.1276   7.8867   5.4337   H         1 RES1   0.0000
    62 C24      4.3296   7.1642   3.9888   C.ar      1 RES1   0.0000
    63 H20      5.0901   7.6833   4.2210   H         1 RES1   0.0000
    64 C25      4.3831   6.2831   2.8884   C.ar      1 RES1   0.0000
    65 C26      5.4901   6.2050   2.0107   C.ar      1 RES1   0.0000
    66 H21      6.2517   6.7524   2.1609   H         1 RES1   0.0000
    67 C27      5.4727   5.3496   0.9506   C.ar      1 RES1   0.0000
    68 H22      6.2199   5.3073   0.3650   H         1 RES1   0.0000
    69 C28      4.3571   4.5313   0.7175   C.ar      1 RES1   0.0000
    70 H23      4.3565   3.9342  -0.0210   H         1 RES1   0.0000
    71 C29      3.2711   4.5844   1.5437   C.ar      1 RES1   0.0000
    72 H24      2.5219   4.0260   1.3741   H         1 RES1   0.0000
    73 C30      3.2544   5.4617   2.6436   C.ar      1 RES1   0.0000
    74 C31      2.4865   0.5410   1.6790   C.3       1 RES1   0.0000
    75 C32      2.9373   3.8000   7.2349   C.3       1 RES1   0.0000
@<TRIPOS>BOND
     1     1     2    1
     2     2    23   ar
     3     3     1    1
     4     4     1    1
     5     5     1    1
     6     6     1    1
     7     7    16    2
     8     8    12    2
     9     9    12    2
    10    10     1    1
    11    11    16    2
    12    12     6    1
    13    13    74    1
    14    14    74    1
    15    15    74    1
    16    16    10    1
    17    17    75    1
    18    18    75    1
    19    19    75    1
    20    20     5    1
    21    21    20    1
    22    22    20    1
    23    23    20    1
    24    24    23   ar
    25    25    24    1
    26    26    24   ar
    27    27    26    1
    28    28    26   ar
    29    29    28   ar
    30    30    29    1
    31    31    29   ar
    32    32    31    1
    33    33    31   ar
    34    34    33    1
    35    35    33   ar
    36    36    35    1
    37    37     2   ar
    38    38     5    1
    39    39    38    1
    40    40    38    1
    41    41     3   ar
    42    42    41   ar
    43    43    42    1
    44    44    42   ar
    45    45    44    1
    46    46    44   ar
    47    47    46   ar
    48    48    47    1
    49    49    47   ar
    50    50    49    1
    51    51    49   ar
    52    52    51    1
    53    53    51   ar
    54    54    53    1
    55    55     3   ar
    56    56     5    1
    57    57    56    1
    58    58    56    1
    59    59     4   ar
    60    60    59   ar
    61    61    60    1
    62    62    60   ar
    63    63    62    1
    64    64    62   ar
    65    65    64   ar
    66    66    65    1
    67    67    65   ar
    68    68    67    1
    69    69    67   ar
    70    70    69    1
    71    71    69   ar
    72    72    71    1
    73    73     4   ar
    74    74    12    1
    75    75    16    1
    76    28    37   ar
    77    35    37   ar
    78    38    41    1
    79    46    55   ar
    80    53    55   ar
    81    56    59    1
    82    64    73   ar
    83    71    73   ar
@<TRIPOS>SUBSTRUCTURE
     1 RES1        1 GROUP             0 ****  ****    0  
@<TRIPOS>CRYSIN
   11.0386   14.1263   21.5894   90.0000  103.6530   90.0000    14     1
