@<TRIPOS>MOLECULE
FOYXOI
   123   131     3     0     0
SMALL
USER_CHARGES
****
Generated from the CSD

@<TRIPOS>ATOM
     1 Fe1     10.4234   6.8247  12.2965   Fe        1 RES1   1.0000
     2 O1      10.6397   4.9350  12.4768   O.3       1 RES1   0.0000
     3 O2      10.8514   7.5912  13.9979   O.3       1 RES1   0.0000
     4 O3      10.5549  -0.5768   9.3994   O.2       1 RES1   0.0000
     5 O4      10.3566   0.8608   7.6875   O.3       1 RES1   0.0000
     6 O5      11.0078  13.7966  15.3864   O.2       1 RES1   0.0000
     7 O6      11.7233  12.8681  17.2401   O.3       1 RES1   0.0000
     8 N1       9.8152   6.5005  10.3057   N.2       1 RES1   0.0000
     9 N2       9.9717   8.7903  11.6321   N.2       1 RES1   0.0000
    10 N3       8.3582   6.6111  12.8951   N.2       1 RES1   0.0000
    11 N4       6.4636   6.8436  13.9806   N.pl3     1 RES1   0.0000
    12 N5      12.4957   6.9850  11.7321   N.2       1 RES1   0.0000
    13 N6      14.6601   7.2113  11.9113   N.pl3     1 RES1   0.0000
    14 C1      10.5977   3.9463  11.6174   C.ar      1 RES1   0.0000
    15 C2      10.9269   2.6612  12.0436   C.ar      1 RES1   0.0000
    16 C3      10.9116   1.5950  11.1983   C.ar      1 RES1   0.0000
    17 C4      10.5456   1.7561   9.8332   C.ar      1 RES1   0.0000
    18 C5      10.4753   0.5534   8.9859   C.2       1 RES1   0.0000
    19 C6      10.2170  -0.2619   6.7801   C.3       1 RES1   0.0000
    20 C7      10.3470   0.2632   5.4093   C.3       1 RES1   0.0000
    21 C8      10.2166   3.0215   9.3858   C.ar      1 RES1   0.0000
    22 C9      10.2264   4.1209  10.2535   C.ar      1 RES1   0.0000
    23 C10      9.7893   5.3814   9.6944   C.2       1 RES1   0.0000
    24 C11      9.2753   7.6736   9.6583   C.3       1 RES1   0.0000
    25 C12      9.5743   8.8530  10.2026   C.3       1 RES1   0.0000
    26 C13     10.0982   9.8626  12.2694   C.2       1 RES1   0.0000
    27 C14     10.5851   9.9610  13.6616   C.ar      1 RES1   0.0000
    28 C15     10.7224  11.2338  14.2062   C.ar      1 RES1   0.0000
    29 C16     11.1827  11.4441  15.4831   C.ar      1 RES1   0.0000
    30 C17     11.3042  12.8115  16.0065   C.2       1 RES1   0.0000
    31 C18     11.8566  14.1999  17.8701   C.3       1 RES1   0.0000
    32 C19     11.8983  14.0794  19.2379   C.3       1 RES1   0.0000
    33 C20     11.5450  10.3287  16.2391   C.ar      1 RES1   0.0000
    34 C21     11.4297   9.0559  15.7043   C.ar      1 RES1   0.0000
    35 C22     10.9567   8.8394  14.4343   C.ar      1 RES1   0.0000
    36 C23      7.6797   7.3441  13.7622   C.2       1 RES1   0.0000
    37 C24      5.4368   7.4031  14.8723   C.3       1 RES1   0.0000
    38 C25      6.3445   5.7269  13.2080   C.2       1 RES1   0.0000
    39 C26      7.5067   5.5732  12.5430   C.2       1 RES1   0.0000
    40 C27     13.4910   7.3428  12.5167   C.2       1 RES1   0.0000
    41 C28     15.9770   7.5076  12.4915   C.3       1 RES1   0.0000
    42 C29     14.4369   6.7722  10.6423   C.2       1 RES1   0.0000
    43 C30     13.0979   6.6234  10.5366   C.2       1 RES1   0.0000
    44 H1      11.1609   2.5296  12.9327   H         1 RES1   0.0000
    45 H2      11.1432   0.7477  11.5055   H         1 RES1   0.0000
    46 H3       9.3405  -0.6604   6.8931   H         1 RES1   0.0000
    47 H4      10.9004  -0.9235   6.9694   H         1 RES1   0.0000
    48 H5       9.6701   0.9285   5.2567   H         1 RES1   0.0000
    49 H6      10.2598  -0.4341   4.7565   H         1 RES1   0.0000
    50 H7      11.2149   0.6678   5.3330   H         1 RES1   0.0000
    51 H8       9.9746   3.1346   8.4956   H         1 RES1   0.0000
    52 H9       9.4780   5.3789   8.8177   H         1 RES1   0.0000
    53 H10      8.3230   7.7720   9.8154   H         1 RES1   0.0000
    54 H11      9.4411   7.6306   8.7047   H         1 RES1   0.0000
    55 H12      9.0072   9.5613   9.8606   H         1 RES1   0.0000
    56 H13     10.4258   8.8972   9.7391   H         1 RES1   0.0000
    57 H14      9.8598  10.6546  11.8446   H         1 RES1   0.0000
    58 H15     10.4673  11.9728  13.7014   H         1 RES1   0.0000
    59 H16     11.1003  14.7558  17.6270   H         1 RES1   0.0000
    60 H17     12.6777  14.6205  17.5677   H         1 RES1   0.0000
    61 H18     12.6448  13.5334  19.4866   H         1 RES1   0.0000
    62 H19     11.0854  13.6662  19.5460   H         1 RES1   0.0000
    63 H20     11.9872  14.9464  19.6421   H         1 RES1   0.0000
    64 H21     11.8617  10.4529  17.1042   H         1 RES1   0.0000
    65 H22     11.6826   8.3291  16.2252   H         1 RES1   0.0000
    66 H23      8.0156   8.1065  14.1762   H         1 RES1   0.0000
    67 H24      5.2192   8.2934  14.5860   H         1 RES1   0.0000
    68 H25      4.6487   6.8559  14.8404   H         1 RES1   0.0000
    69 H26      5.7721   7.4289  15.7730   H         1 RES1   0.0000
    70 H27      5.5994   5.1711  13.1503   H         1 RES1   0.0000
    71 H28      7.7167   4.8895  11.9492   H         1 RES1   0.0000
    72 H29     13.3779   7.6367  13.3905   H         1 RES1   0.0000
    73 H30     16.1306   6.9641  13.2690   H         1 RES1   0.0000
    74 H31     16.6571   7.3305  11.8390   H         1 RES1   0.0000
    75 H32     16.0065   8.4349  12.7405   H         1 RES1   0.0000
    76 H33     15.0723   6.5915   9.9878   H         1 RES1   0.0000
    77 H34     12.6420   6.3197   9.7871   H         1 RES1   0.0000
    78 O7      11.8053  10.1946  21.1965   O.3       2 RES2   0.0000
    79 C31      8.6974   4.1664   4.1412   C.ar      3 RES3   0.0000
    80 C32      9.8923   3.8749   3.4720   C.ar      3 RES3   0.0000
    81 C33     10.0630   2.7571   2.6761   C.ar      3 RES3   0.0000
    82 C34      9.0280   1.8704   2.4916   C.ar      3 RES3   0.0000
    83 C35      7.8387   2.1225   3.1119   C.ar      3 RES3   0.0000
    84 C36      7.6931   3.2306   3.9084   C.ar      3 RES3   0.0000
    85 C37      9.8161   6.1660   5.6448   C.ar      3 RES3   0.0000
    86 C38     10.8353   5.3642   6.1673   C.ar      3 RES3   0.0000
    87 C39     11.9404   5.9003   6.8403   C.ar      3 RES3   0.0000
    88 C40     12.0771   7.2457   6.9847   C.ar      3 RES3   0.0000
    89 C41     11.0914   8.0635   6.4892   C.ar      3 RES3   0.0000
    90 C42      9.9954   7.5322   5.8152   C.ar      3 RES3   0.0000
    91 C43      7.5577   5.2018   6.3861   C.ar      3 RES3   0.0000
    92 C44      7.5044   3.9758   7.0259   C.ar      3 RES3   0.0000
    93 C45      6.8754   3.7962   8.2695   C.ar      3 RES3   0.0000
    94 C46      6.2416   4.8489   8.8762   C.ar      3 RES3   0.0000
    95 C47      6.2718   6.0664   8.2717   C.ar      3 RES3   0.0000
    96 C48      6.9087   6.2398   7.0669   C.ar      3 RES3   0.0000
    97 C49      7.6399   6.5201   4.0019   C.ar      3 RES3   0.0000
    98 C50      6.2799   6.4931   3.8439   C.ar      3 RES3   0.0000
    99 C51      5.6146   7.2715   2.8689   C.ar      3 RES3   0.0000
   100 C52      6.3272   8.0979   2.0617   C.ar      3 RES3   0.0000
   101 C53      7.6646   8.1643   2.1985   C.ar      3 RES3   0.0000
   102 C54      8.3187   7.3810   3.1382   C.ar      3 RES3   0.0000
   103 B1       8.4400   5.5019   5.0309   B         3 RES3  -1.0000
   104 H35     10.5967   4.4751   3.5667   H         3 RES3   0.0000
   105 H36     10.8795   2.6071   2.2581   H         3 RES3   0.0000
   106 H37      9.1428   1.1142   1.9614   H         3 RES3   0.0000
   107 H38      7.1272   1.5384   2.9873   H         3 RES3   0.0000
   108 H39      6.8736   3.3744   4.3213   H         3 RES3   0.0000
   109 H40     10.7698   4.4419   6.0679   H         3 RES3   0.0000
   110 H41     12.5924   5.3359   7.1842   H         3 RES3   0.0000
   111 H42     12.8182   7.6048   7.4188   H         3 RES3   0.0000
   112 H43     11.1708   8.9833   6.5935   H         3 RES3   0.0000
   113 H44      9.3439   8.1090   5.4857   H         3 RES3   0.0000
   114 H45      7.9189   3.2502   6.6190   H         3 RES3   0.0000
   115 H46      6.8704   2.9600   8.6764   H         3 RES3   0.0000
   116 H47      5.8034   4.7321   9.6882   H         3 RES3   0.0000
   117 H48      5.8536   6.7882   8.6849   H         3 RES3   0.0000
   118 H49      6.9154   7.0846   6.6783   H         3 RES3   0.0000
   119 H50      5.7833   5.9360   4.3976   H         3 RES3   0.0000
   120 H51      4.6883   7.2272   2.7838   H         3 RES3   0.0000
   121 H52      5.8922   8.6169   1.4244   H         3 RES3   0.0000
   122 H53      8.1577   8.7214   1.6420   H         3 RES3   0.0000
   123 H54      9.2446   7.4289   3.2106   H         3 RES3   0.0000
@<TRIPOS>BOND
     1     1     2    1
     2     2    14    1
     3     3     1    1
     4     4    18    2
     5     5    18    1
     6     6    30    2
     7     7    30    1
     8     8     1    1
     9     9     1    1
    10    10     1    1
    11    11    36    1
    12    12     1    1
    13    13    40    1
    14    14    15   ar
    15    15    16   ar
    16    16    17   ar
    17    17    18    1
    18    19     5    1
    19    20    19    1
    20    21    17   ar
    21    22    14   ar
    22    23     8    2
    23    24     8    1
    24    25     9    1
    25    26     9    2
    26    27    26    1
    27    28    27   ar
    28    29    28   ar
    29    30    29    1
    30    31     7    1
    31    32    31    1
    32    33    29   ar
    33    34    33   ar
    34    35     3    1
    35    36    10    2
    36    37    11    1
    37    38    11    1
    38    39    10    1
    39    40    12    2
    40    41    13    1
    41    42    13    1
    42    43    12    1
    43    44    15    1
    44    45    16    1
    45    46    19    1
    46    47    19    1
    47    48    20    1
    48    49    20    1
    49    50    20    1
    50    51    21    1
    51    52    23    1
    52    53    24    1
    53    54    24    1
    54    55    25    1
    55    56    25    1
    56    57    26    1
    57    58    28    1
    58    59    31    1
    59    60    31    1
    60    61    32    1
    61    62    32    1
    62    63    32    1
    63    64    33    1
    64    65    34    1
    65    66    36    1
    66    67    37    1
    67    68    37    1
    68    69    37    1
    69    70    38    1
    70    71    39    1
    71    72    40    1
    72    73    41    1
    73    74    41    1
    74    75    41    1
    75    76    42    1
    76    77    43    1
    77    21    22   ar
    78    22    23    1
    79    24    25    1
    80    27    35   ar
    81    34    35   ar
    82    38    39    2
    83    42    43    2
    84    79    80   ar
    85    80    81   ar
    86    81    82   ar
    87    82    83   ar
    88    83    84   ar
    89    84    79   ar
    90    85    86   ar
    91    86    87   ar
    92    87    88   ar
    93    88    89   ar
    94    89    90   ar
    95    90    85   ar
    96    91    92   ar
    97    92    93   ar
    98    93    94   ar
    99    94    95   ar
   100    95    96   ar
   101    96    91   ar
   102    97    98   ar
   103    98    99   ar
   104    99   100   ar
   105   100   101   ar
   106   101   102   ar
   107   102    97   ar
   108   103    79    1
   109   104    80    1
   110   105    81    1
   111   106    82    1
   112   107    83    1
   113   108    84    1
   114   109    86    1
   115   110    87    1
   116   111    88    1
   117   112    89    1
   118   113    90    1
   119   114    92    1
   120   115    93    1
   121   116    94    1
   122   117    95    1
   123   118    96    1
   124   119    98    1
   125   120    99    1
   126   121   100    1
   127   122   101    1
   128   123   102    1
   129    85   103    1
   130    91   103    1
   131    97   103    1
@<TRIPOS>SUBSTRUCTURE
     1 RES1        1 GROUP             0 ****  ****    0  
     2 RES2       78 GROUP             0 ****  ****    0  
     3 RES3       79 GROUP             0 ****  ****    0  
@<TRIPOS>CRYSIN
   30.0462   12.2975   28.5858   90.0000   98.6320   90.0000    15     1
