@<TRIPOS>MOLECULE
FUBJAP01
   125   133     3     0     0
SMALL
USER_CHARGES
****
Generated from the CSD

@<TRIPOS>ATOM
     1 Fe1     -0.4257   5.2947  18.9385   Fe        1 RES1   1.0000
     2 O1      -0.4499   7.0508  18.2325   O.3       1 RES1   0.0000
     3 O2      -2.0107   4.9580  17.9642   O.3       1 RES1   0.0000
     4 O3       2.6075  12.5609  19.0448   O.2       1 RES1   0.0000
     5 O4       4.0268  11.1162  20.0094   O.3       1 RES1   0.0000
     6 O5      -5.3249  -0.0065  15.8693   O.2       1 RES1   0.0000
     7 O6      -3.9204  -1.0125  17.3138   O.3       1 RES1   0.0000
     8 N1       1.2030   5.5578  19.9148   N.2       1 RES1   0.0000
     9 N2      -0.3771   3.5507  19.7264   N.2       1 RES1   0.0000
    10 N3      -1.5522   5.9636  20.4499   N.2       1 RES1   0.0000
    11 N4      -3.3369   6.5112  21.5739   N.pl3     1 RES1   0.0000
    12 N5       0.5547   4.6775  17.3278   N.2       1 RES1   0.0000
    13 N6       1.5968   3.4470  15.8459   N.pl3     1 RES1   0.0000
    14 C1       0.3235   8.0460  18.5899   C.ar      1 RES1   0.0000
    15 C2       0.0107   9.3550  18.1329   C.ar      1 RES1   0.0000
    16 C3       0.8452  10.4120  18.3762   C.ar      1 RES1   0.0000
    17 C4       2.0291  10.2560  19.1291   C.ar      1 RES1   0.0000
    18 C5       2.8932  11.4210  19.3687   C.2       1 RES1   0.0000
    19 C6       4.8891  12.2369  20.3462   C.3       1 RES1   0.0000
    20 C7       6.0400  11.6839  21.1281   C.3       1 RES1   0.0000
    21 C8       2.3358   9.0059  19.6189   C.ar      1 RES1   0.0000
    22 C9       1.5018   7.8998  19.3875   C.ar      1 RES1   0.0000
    23 C10      1.9112   6.6410  19.9538   C.2       1 RES1   0.0000
    24 C11      1.7478   4.3306  20.5218   C.3       1 RES1   0.0000
    25 C12      0.5450   3.4590  20.8670   C.3       1 RES1   0.0000
    26 C13     -1.1001   2.5351  19.3706   C.2       1 RES1   0.0000
    27 C14     -2.0636   2.5580  18.3078   C.ar      1 RES1   0.0000
    28 C15     -2.6917   1.3472  17.9583   C.ar      1 RES1   0.0000
    29 C16     -3.6750   1.2992  16.9855   C.ar      1 RES1   0.0000
    30 C17     -4.3899   0.0524  16.6593   C.2       1 RES1   0.0000
    31 C18     -4.6299  -2.2678  17.0739   C.3       1 RES1   0.0000
    32 C19     -3.8919  -3.3347  17.8374   C.3       1 RES1   0.0000
    33 C20     -4.0597   2.5024  16.3419   C.ar      1 RES1   0.0000
    34 C21     -3.4806   3.6881  16.6596   C.ar      1 RES1   0.0000
    35 C22     -2.4783   3.7721  17.6621   C.ar      1 RES1   0.0000
    36 C23     -2.8396   5.7858  20.5689   C.2       1 RES1   0.0000
    37 C24     -2.3108   7.2137  22.1281   C.2       1 RES1   0.0000
    38 C25     -1.2103   6.8755  21.4436   C.2       1 RES1   0.0000
    39 C26      1.1460   3.5136  17.0945   C.2       1 RES1   0.0000
    40 C27      1.2762   4.6229  15.2223   C.2       1 RES1   0.0000
    41 C28      0.6322   5.3767  16.1311   C.2       1 RES1   0.0000
    42 H1      -4.2266   6.5352  21.8457   H         1 RES1   0.0000
    43 H2       2.0438   2.7293  15.4604   H         1 RES1   0.0000
    44 H3      -0.7751   9.4880  17.6534   H         1 RES1   0.0000
    45 H4       0.6274  11.2530  18.0439   H         1 RES1   0.0000
    46 H5       5.1920  12.6471  19.5215   H         1 RES1   0.0000
    47 H6       4.3806  12.8849  20.8585   H         1 RES1   0.0000
    48 H7       6.5069  11.0327  20.5992   H         1 RES1   0.0000
    49 H8       6.6440  12.3918  21.3677   H         1 RES1   0.0000
    50 H9       5.7036  11.2672  21.9238   H         1 RES1   0.0000
    51 H10      3.1094   8.8935  20.1244   H         1 RES1   0.0000
    52 H11      2.7378   6.6039  20.3774   H         1 RES1   0.0000
    53 H12      2.3246   3.8899  19.8776   H         1 RES1   0.0000
    54 H13      2.2626   4.5619  21.3115   H         1 RES1   0.0000
    55 H14      0.0932   3.7808  21.6614   H         1 RES1   0.0000
    56 H15      0.7916   2.5285  20.9928   H         1 RES1   0.0000
    57 H16     -0.9786   1.7355  19.8307   H         1 RES1   0.0000
    58 H17     -2.4351   0.5618  18.3844   H         1 RES1   0.0000
    59 H18     -5.5435  -2.1762  17.3878   H         1 RES1   0.0000
    60 H19     -4.6328  -2.4500  16.1226   H         1 RES1   0.0000
    61 H20     -4.3491  -4.1746  17.7471   H         1 RES1   0.0000
    62 H21     -3.0006  -3.4165  17.4878   H         1 RES1   0.0000
    63 H22     -3.8529  -3.0936  18.7655   H         1 RES1   0.0000
    64 H23     -4.7196   2.4696  15.6853   H         1 RES1   0.0000
    65 H24     -3.7441   4.4615  16.2163   H         1 RES1   0.0000
    66 H25     -3.3447   5.2229  20.0276   H         1 RES1   0.0000
    67 H26     -2.3659   7.8071  22.8422   H         1 RES1   0.0000
    68 H27     -0.3516   7.1940  21.6051   H         1 RES1   0.0000
    69 H28      1.2287   2.8318  17.7221   H         1 RES1   0.0000
    70 H29      1.4777   4.8586  14.3451   H         1 RES1   0.0000
    71 H30      0.2838   6.2265  15.9852   H         1 RES1   0.0000
    72 O7       2.1512   0.7363  15.2373   O.3       2 RES2   0.0000
    73 C29      2.7813  -0.2389  14.3932   C.3       2 RES2   0.0000
    74 C30      2.5150  -1.6472  14.8321   C.3       2 RES2   0.0000
    75 H31      1.3406   0.6141  15.2261   H         2 RES2   0.0000
    76 H32      2.4424  -0.0796  13.4985   H         2 RES2   0.0000
    77 H33      3.7295  -0.0415  14.4170   H         2 RES2   0.0000
    78 H34      1.5695  -1.8097  14.8168   H         2 RES2   0.0000
    79 H35      2.9543  -2.2624  14.2420   H         2 RES2   0.0000
    80 H36      2.8453  -1.7704  15.7259   H         2 RES2   0.0000
    81 C31      5.6613   6.2810  19.6168   C.ar      3 RES3   0.0000
    82 C32      4.9892   5.2043  19.0329   C.ar      3 RES3   0.0000
    83 C33      4.2277   5.2851  17.8877   C.ar      3 RES3   0.0000
    84 C34      4.0693   6.5177  17.2704   C.ar      3 RES3   0.0000
    85 C35      4.6768   7.6238  17.8211   C.ar      3 RES3   0.0000
    86 C36      5.4617   7.5060  18.9573   C.ar      3 RES3   0.0000
    87 C37      7.3418   7.4209  21.4239   C.ar      3 RES3   0.0000
    88 C38      8.2042   8.0351  20.5221   C.ar      3 RES3   0.0000
    89 C39      8.9266   9.1870  20.8007   C.ar      3 RES3   0.0000
    90 C40      8.7958   9.7935  22.0472   C.ar      3 RES3   0.0000
    91 C41      7.9737   9.2121  22.9881   C.ar      3 RES3   0.0000
    92 C42      7.2681   8.0460  22.6895   C.ar      3 RES3   0.0000
    93 C43      7.6414   4.8607  20.8313   C.ar      3 RES3   0.0000
    94 C44      8.3945   4.4408  21.9288   C.ar      3 RES3   0.0000
    95 C45      9.3165   3.4012  21.8691   C.ar      3 RES3   0.0000
    96 C46      9.5288   2.7325  20.6739   C.ar      3 RES3   0.0000
    97 C47      8.8289   3.1198  19.5621   C.ar      3 RES3   0.0000
    98 C48      7.9180   4.1790  19.6317   C.ar      3 RES3   0.0000
    99 C49      5.4144   5.6603  22.1465   C.ar      3 RES3   0.0000
   100 C50      5.2774   4.3917  22.7201   C.ar      3 RES3   0.0000
   101 C51      4.2674   4.0688  23.6223   C.ar      3 RES3   0.0000
   102 C52      3.3307   5.0167  23.9981   C.ar      3 RES3   0.0000
   103 C53      3.4302   6.2963  23.4545   C.ar      3 RES3   0.0000
   104 C54      4.4367   6.5941  22.5554   C.ar      3 RES3   0.0000
   105 B1       6.5193   6.0585  21.0091   B         3 RES3  -1.0000
   106 H37      5.0624   4.3753  19.4496   H         3 RES3   0.0000
   107 H38      3.8247   4.5291  17.5253   H         3 RES3   0.0000
   108 H39      3.5586   6.5973  16.4975   H         3 RES3   0.0000
   109 H40      4.5664   8.4583  17.4253   H         3 RES3   0.0000
   110 H41      5.8681   8.2641  19.3090   H         3 RES3   0.0000
   111 H42      8.3020   7.6478  19.6808   H         3 RES3   0.0000
   112 H43      9.4885   9.5568  20.1588   H         3 RES3   0.0000
   113 H44      9.2624  10.5723  22.2487   H         3 RES3   0.0000
   114 H45      7.8802   9.6004  23.8294   H         3 RES3   0.0000
   115 H46      6.7317   7.6609  23.3420   H         3 RES3   0.0000
   116 H47      8.2736   4.8836  22.7391   H         3 RES3   0.0000
   117 H48      9.7920   3.1525  22.6298   H         3 RES3   0.0000
   118 H49     10.1361   2.0300  20.6273   H         3 RES3   0.0000
   119 H50      8.9591   2.6780  18.7561   H         3 RES3   0.0000
   120 H51      7.4802   4.4506  18.8561   H         3 RES3   0.0000
   121 H52      5.8871   3.7317  22.4767   H         3 RES3   0.0000
   122 H53      4.2221   3.2147  23.9856   H         3 RES3   0.0000
   123 H54      2.6449   4.8029  24.5916   H         3 RES3   0.0000
   124 H55      2.8201   6.9508  23.7075   H         3 RES3   0.0000
   125 H56      4.4764   7.4526  22.1987   H         3 RES3   0.0000
@<TRIPOS>BOND
     1     1     2    1
     2     2    14    1
     3     3     1    1
     4     4    18    2
     5     5    18    1
     6     6    30    2
     7     7    30    1
     8     8     1    1
     9     9     1    1
    10    10     1    1
    11    11    36    1
    12    12     1    1
    13    13    39    1
    14    14    15   ar
    15    15    16   ar
    16    16    17   ar
    17    17    18    1
    18    19     5    1
    19    20    19    1
    20    21    17   ar
    21    22    14   ar
    22    23     8    2
    23    24     8    1
    24    25     9    1
    25    26     9    2
    26    27    26    1
    27    28    27   ar
    28    29    28   ar
    29    30    29    1
    30    31     7    1
    31    32    31    1
    32    33    29   ar
    33    34    33   ar
    34    35     3    1
    35    36    10    2
    36    37    11    1
    37    38    10    1
    38    39    12    2
    39    40    13    1
    40    41    12    1
    41    42    11    1
    42    43    13    1
    43    44    15    1
    44    45    16    1
    45    46    19    1
    46    47    19    1
    47    48    20    1
    48    49    20    1
    49    50    20    1
    50    51    21    1
    51    52    23    1
    52    53    24    1
    53    54    24    1
    54    55    25    1
    55    56    25    1
    56    57    26    1
    57    58    28    1
    58    59    31    1
    59    60    31    1
    60    61    32    1
    61    62    32    1
    62    63    32    1
    63    64    33    1
    64    65    34    1
    65    66    36    1
    66    67    37    1
    67    68    38    1
    68    69    39    1
    69    70    40    1
    70    71    41    1
    71    21    22   ar
    72    22    23    1
    73    24    25    1
    74    27    35   ar
    75    34    35   ar
    76    37    38    2
    77    40    41    2
    78    72    73    1
    79    73    74    1
    80    74    78    1
    81    75    72    1
    82    76    73    1
    83    77    73    1
    84    79    74    1
    85    80    74    1
    86    81    82   ar
    87    82    83   ar
    88    83    84   ar
    89    84    85   ar
    90    85    86   ar
    91    86    81   ar
    92    87    88   ar
    93    88    89   ar
    94    89    90   ar
    95    90    91   ar
    96    91    92   ar
    97    92    87   ar
    98    93    94   ar
    99    94    95   ar
   100    95    96   ar
   101    96    97   ar
   102    97    98   ar
   103    98    93   ar
   104    99   100   ar
   105   100   101   ar
   106   101   102   ar
   107   102   103   ar
   108   103   104   ar
   109   104    99   ar
   110   105    81    1
   111   106    82    1
   112   107    83    1
   113   108    84    1
   114   109    85    1
   115   110    86    1
   116   111    88    1
   117   112    89    1
   118   113    90    1
   119   114    91    1
   120   115    92    1
   121   116    94    1
   122   117    95    1
   123   118    96    1
   124   119    97    1
   125   120    98    1
   126   121   100    1
   127   122   101    1
   128   123   102    1
   129   124   103    1
   130   125   104    1
   131    87   105    1
   132    93   105    1
   133    99   105    1
@<TRIPOS>SUBSTRUCTURE
     1 RES1        1 GROUP             0 ****  ****    0  
     2 RES2       72 GROUP             0 ****  ****    0  
     3 RES3       81 GROUP             0 ****  ****    0  
@<TRIPOS>CRYSIN
   14.4569   10.9083   31.7892   90.0000  100.6720   90.0000    14     1
