@<TRIPOS>MOLECULE
FUBJAP
   125   133     3     0     0
SMALL
USER_CHARGES
****
Generated from the CSD

@<TRIPOS>ATOM
     1 Fe1     -1.0109   5.4387  19.0484   Fe        1 RES1   1.0000
     2 O1      -0.8167   7.2281  18.4852   O.3       1 RES1   0.0000
     3 O2      -2.5510   4.8960  18.0853   O.3       1 RES1   0.0000
     4 O3       2.4593  12.5507  19.4384   O.2       1 RES1   0.0000
     5 O4       3.7075  11.0761  20.5157   O.3       1 RES1   0.0000
     6 O5      -5.8384  -0.0990  16.1001   O.2       1 RES1   0.0000
     7 O6      -4.5098  -1.0697  17.6064   O.3       1 RES1   0.0000
     8 N1       0.7045   5.6077  20.1979   N.2       1 RES1   0.0000
     9 N2      -0.9522   3.5466  19.9496   N.2       1 RES1   0.0000
    10 N3      -2.2421   6.0713  20.6761   N.2       1 RES1   0.0000
    11 N4      -4.0681   6.4979  21.7864   N.pl3     1 RES1   0.0000
    12 N5       0.1803   4.7295  17.4165   N.2       1 RES1   0.0000
    13 N6       1.2951   3.4606  16.0227   N.pl3     1 RES1   0.0000
    14 C1       0.0138   8.1727  18.8724   C.ar      1 RES1   0.0000
    15 C2      -0.2071   9.4927  18.4033   C.ar      1 RES1   0.0000
    16 C3       0.6469  10.5048  18.7233   C.ar      1 RES1   0.0000
    17 C4       1.7647  10.2948  19.5269   C.ar      1 RES1   0.0000
    18 C5       2.6545  11.4048  19.7983   C.2       1 RES1   0.0000
    19 C6       4.6160  12.1502  20.9076   C.3       1 RES1   0.0000
    20 C7       5.6133  11.6289  21.7448   C.3       1 RES1   0.0000
    21 C8       1.9880   9.0128  20.0194   C.ar      1 RES1   0.0000
    22 C9       1.1203   7.9539  19.7289   C.ar      1 RES1   0.0000
    23 C10      1.4377   6.6633  20.2965   C.2       1 RES1   0.0000
    24 C11      1.1876   4.3334  20.7922   C.3       1 RES1   0.0000
    25 C12     -0.0354   3.4813  21.0979   C.3       1 RES1   0.0000
    26 C13     -1.6575   2.5421  19.5906   C.2       1 RES1   0.0000
    27 C14     -2.6432   2.5269  18.5337   C.ar      1 RES1   0.0000
    28 C15     -3.2627   1.3211  18.2121   C.ar      1 RES1   0.0000
    29 C16     -4.2330   1.2319  17.2357   C.ar      1 RES1   0.0000
    30 C17     -4.9444  -0.0185  16.9189   C.2       1 RES1   0.0000
    31 C18     -5.2077  -2.3234  17.3651   C.3       1 RES1   0.0000
    32 C19     -4.4975  -3.3561  18.1576   C.3       1 RES1   0.0000
    33 C20     -4.5853   2.3898  16.5399   C.ar      1 RES1   0.0000
    34 C21     -4.0107   3.5858  16.8273   C.ar      1 RES1   0.0000
    35 C22     -3.0288   3.7098  17.8259   C.ar      1 RES1   0.0000
    36 C23     -3.5015   5.7546  20.8531   C.2       1 RES1   0.0000
    37 C24     -3.1253   7.3511  22.2332   C.2       1 RES1   0.0000
    38 C25     -2.0146   7.0877  21.5564   C.2       1 RES1   0.0000
    39 C26      0.7559   3.5509  17.2297   C.2       1 RES1   0.0000
    40 C27      1.0668   4.6337  15.3875   C.2       1 RES1   0.0000
    41 C28      0.3836   5.4042  16.2460   C.2       1 RES1   0.0000
    42 H1      -4.9496   6.4424  22.0778   H         1 RES1   0.0000
    43 H2       1.7465   2.7271  15.6720   H         1 RES1   0.0000
    44 H3      -0.9493   9.6625  17.8696   H         1 RES1   0.0000
    45 H4       0.4854  11.3569  18.3865   H         1 RES1   0.0000
    46 H5       5.0676  12.5039  20.1275   H         1 RES1   0.0000
    47 H6       4.1401  12.8663  21.3579   H         1 RES1   0.0000
    48 H7       6.0863  10.9216  21.3008   H         1 RES1   0.0000
    49 H8       6.2335  12.3102  22.0144   H         1 RES1   0.0000
    50 H9       5.1668  11.2796  22.5218   H         1 RES1   0.0000
    51 H10      2.7218   8.8637  20.5715   H         1 RES1   0.0000
    52 H11      2.2322   6.5871  20.7744   H         1 RES1   0.0000
    53 H12      1.7623   3.8937  20.1465   H         1 RES1   0.0000
    54 H13      1.6978   4.5358  21.5926   H         1 RES1   0.0000
    55 H14     -0.5110   3.8175  21.8717   H         1 RES1   0.0000
    56 H15      0.1970   2.5508  21.2438   H         1 RES1   0.0000
    57 H16     -1.5204   1.7510  20.0609   H         1 RES1   0.0000
    58 H17     -3.0197   0.5517  18.6751   H         1 RES1   0.0000
    59 H18     -6.1344  -2.2309  17.6381   H         1 RES1   0.0000
    60 H19     -5.1702  -2.5236  16.4172   H         1 RES1   0.0000
    61 H20     -4.9663  -4.1908  18.0916   H         1 RES1   0.0000
    62 H21     -3.6027  -3.4639  17.8252   H         1 RES1   0.0000
    63 H22     -4.4664  -3.0797  19.0778   H         1 RES1   0.0000
    64 H23     -5.2336   2.3332  15.8750   H         1 RES1   0.0000
    65 H24     -4.2680   4.3399  16.3475   H         1 RES1   0.0000
    66 H25     -3.9417   5.0864  20.3780   H         1 RES1   0.0000
    67 H26     -3.2383   7.9877  22.9023   H         1 RES1   0.0000
    68 H27     -1.2027   7.5328  21.6497   H         1 RES1   0.0000
    69 H28      0.7637   2.8653  17.8569   H         1 RES1   0.0000
    70 H29      1.3389   4.8612  14.5272   H         1 RES1   0.0000
    71 H30      0.0927   6.2715  16.0811   H         1 RES1   0.0000
    72 O7       1.7361   0.7150  15.3679   O.3       2 RES2   0.0000
    73 C29      2.3638  -0.2721  14.6287   C.3       2 RES2   0.0000
    74 C30      2.1514  -1.5845  14.8665   C.3       2 RES2   0.0000
    75 H31      3.3264  -0.1817  14.7143   H         2 RES2   0.0000
    76 H32      2.1110  -0.1567  13.6995   H         2 RES2   0.0000
    77 H33      2.4200  -1.7945  15.7640   H         2 RES2   0.0000
    78 H34      2.6561  -2.1188  14.2481   H         2 RES2   0.0000
    79 H35      1.2174  -1.7695  14.7587   H         2 RES2   0.0000
    80 H36      0.8655   0.8271  15.0631   H         2 RES2   0.0000
    81 C31      5.3498   6.3107  19.9182   C.ar      3 RES3   0.0000
    82 C32      4.6914   5.2246  19.3487   C.ar      3 RES3   0.0000
    83 C33      3.9056   5.3248  18.2150   C.ar      3 RES3   0.0000
    84 C34      3.7286   6.5294  17.5982   C.ar      3 RES3   0.0000
    85 C35      4.3359   7.6318  18.1281   C.ar      3 RES3   0.0000
    86 C36      5.1318   7.5284  19.2700   C.ar      3 RES3   0.0000
    87 C37      7.0948   7.4501  21.6992   C.ar      3 RES3   0.0000
    88 C38      7.8952   8.1150  20.7881   C.ar      3 RES3   0.0000
    89 C39      8.6265   9.2315  21.0820   C.ar      3 RES3   0.0000
    90 C40      8.5911   9.7528  22.3315   C.ar      3 RES3   0.0000
    91 C41      7.8394   9.1630  23.2860   C.ar      3 RES3   0.0000
    92 C42      7.1019   8.0149  22.9790   C.ar      3 RES3   0.0000
    93 C43      7.3437   4.9003  21.1122   C.ar      3 RES3   0.0000
    94 C44      8.0587   4.3965  22.2002   C.ar      3 RES3   0.0000
    95 C45      8.9572   3.3572  22.1063   C.ar      3 RES3   0.0000
    96 C46      9.2114   2.7750  20.9076   C.ar      3 RES3   0.0000
    97 C47      8.5870   3.2506  19.8072   C.ar      3 RES3   0.0000
    98 C48      7.6769   4.2877  19.9065   C.ar      3 RES3   0.0000
    99 C49      5.1238   5.7459  22.4377   C.ar      3 RES3   0.0000
   100 C50      4.9307   4.4868  22.9943   C.ar      3 RES3   0.0000
   101 C51      3.9011   4.1886  23.8825   C.ar      3 RES3   0.0000
   102 C52      3.0298   5.1659  24.2650   C.ar      3 RES3   0.0000
   103 C53      3.1665   6.4315  23.7417   C.ar      3 RES3   0.0000
   104 C54      4.1947   6.7046  22.8462   C.ar      3 RES3   0.0000
   105 B1       6.2498   6.1126  21.2894   B         3 RES3  -1.0000
   106 H37      4.7937   4.3998  19.7660   H         3 RES3   0.0000
   107 H38      3.4962   4.5652  17.8665   H         3 RES3   0.0000
   108 H39      3.1997   6.5958  16.8358   H         3 RES3   0.0000
   109 H40      4.2128   8.4578  17.7174   H         3 RES3   0.0000
   110 H41      5.5326   8.2935  19.6170   H         3 RES3   0.0000
   111 H42      7.9392   7.7668  19.9277   H         3 RES3   0.0000
   112 H43      9.1409   9.6462  20.4256   H         3 RES3   0.0000
   113 H44      9.0903  10.5080  22.5471   H         3 RES3   0.0000
   114 H45      7.8076   9.5167  24.1454   H         3 RES3   0.0000
   115 H46      6.6066   7.6024  23.6507   H         3 RES3   0.0000
   116 H47      7.9231   4.7970  23.0291   H         3 RES3   0.0000
   117 H48      9.3909   3.0438  22.8674   H         3 RES3   0.0000
   118 H49      9.8110   2.0677  20.8442   H         3 RES3   0.0000
   119 H50      8.7692   2.8740  18.9764   H         3 RES3   0.0000
   120 H51      7.2544   4.5913  19.1349   H         3 RES3   0.0000
   121 H52      5.5177   3.8121  22.7406   H         3 RES3   0.0000
   122 H53      3.8179   3.3355  24.2405   H         3 RES3   0.0000
   123 H54      2.3318   4.9733  24.8462   H         3 RES3   0.0000
   124 H55      2.5779   7.1029  24.0027   H         3 RES3   0.0000
   125 H56      4.2786   7.5654  22.5059   H         3 RES3   0.0000
@<TRIPOS>BOND
     1     1     2    1
     2     2    14    1
     3     3     1    1
     4     4    18    2
     5     5    18    1
     6     6    30    2
     7     7    30    1
     8     8     1    1
     9     9     1    1
    10    10     1    1
    11    11    36    1
    12    12     1    1
    13    13    39    1
    14    14    15   ar
    15    15    16   ar
    16    16    17   ar
    17    17    18    1
    18    19     5    1
    19    20    19    1
    20    21    17   ar
    21    22    14   ar
    22    23     8    2
    23    24     8    1
    24    25     9    1
    25    26     9    2
    26    27    26    1
    27    28    27   ar
    28    29    28   ar
    29    30    29    1
    30    31     7    1
    31    32    31    1
    32    33    29   ar
    33    34    33   ar
    34    35     3    1
    35    36    10    2
    36    37    11    1
    37    38    10    1
    38    39    12    2
    39    40    13    1
    40    41    12    1
    41    42    11    1
    42    43    13    1
    43    44    15    1
    44    45    16    1
    45    46    19    1
    46    47    19    1
    47    48    20    1
    48    49    20    1
    49    50    20    1
    50    51    21    1
    51    52    23    1
    52    53    24    1
    53    54    24    1
    54    55    25    1
    55    56    25    1
    56    57    26    1
    57    58    28    1
    58    59    31    1
    59    60    31    1
    60    61    32    1
    61    62    32    1
    62    63    32    1
    63    64    33    1
    64    65    34    1
    65    66    36    1
    66    67    37    1
    67    68    38    1
    68    69    39    1
    69    70    40    1
    70    71    41    1
    71    21    22   ar
    72    22    23    1
    73    24    25    1
    74    27    35   ar
    75    34    35   ar
    76    37    38    2
    77    40    41    2
    78    72    73    1
    79    73    74    1
    80    74    77    1
    81    75    73    1
    82    76    73    1
    83    78    74    1
    84    79    74    1
    85    80    72    1
    86    81    82   ar
    87    82    83   ar
    88    83    84   ar
    89    84    85   ar
    90    85    86   ar
    91    86    81   ar
    92    87    88   ar
    93    88    89   ar
    94    89    90   ar
    95    90    91   ar
    96    91    92   ar
    97    92    87   ar
    98    93    94   ar
    99    94    95   ar
   100    95    96   ar
   101    96    97   ar
   102    97    98   ar
   103    98    93   ar
   104    99   100   ar
   105   100   101   ar
   106   101   102   ar
   107   102   103   ar
   108   103   104   ar
   109   104    99   ar
   110   105    81    1
   111   106    82    1
   112   107    83    1
   113   108    84    1
   114   109    85    1
   115   110    86    1
   116   111    88    1
   117   112    89    1
   118   113    90    1
   119   114    91    1
   120   115    92    1
   121   116    94    1
   122   117    95    1
   123   118    96    1
   124   119    97    1
   125   120    98    1
   126   121   100    1
   127   122   101    1
   128   123   102    1
   129   124   103    1
   130   125   104    1
   131    87   105    1
   132    93   105    1
   133    99   105    1
@<TRIPOS>SUBSTRUCTURE
     1 RES1        1 GROUP             0 ****  ****    0  
     2 RES2       72 GROUP             0 ****  ****    0  
     3 RES3       81 GROUP             0 ****  ****    0  
@<TRIPOS>CRYSIN
   14.9105   10.8824   32.4415   90.0000  102.1748   90.0000    14     1
