@<TRIPOS>MOLECULE
FUFLOJ01
    87    94     3     0     0
SMALL
USER_CHARGES
****
Generated from the CSD

@<TRIPOS>ATOM
     1 Fe1      1.8626   1.1985   5.2375   Fe        1 RES1   2.0000
     2 N1       1.3479   1.5483   7.1282   N.2       1 RES1   0.0000
     3 N2       1.1872   0.4612   7.9452   N.pl3     1 RES1   0.0000
     4 N3       0.4717  -0.2500   5.2198   N.2       1 RES1   0.0000
     5 N4       0.3892  -1.0650   6.3190   N.pl3     1 RES1   0.0000
     6 N5       3.1435  -0.1779   5.9360   N.2       1 RES1   0.0000
     7 N6       2.6868  -1.0443   6.8893   N.pl3     1 RES1   0.0000
     8 C1       1.3333  -0.8793   7.4154   C.3       1 RES1   0.0000
     9 C2       1.1216   2.6173   7.8951   C.2       1 RES1   0.0000
    10 C3       0.8275   2.2096   9.1940   C.2       1 RES1   0.0000
    11 H1       0.6349   2.7607   9.9178   H         1 RES1   0.0000
    12 C4       0.8753   0.8616   9.2023   C.2       1 RES1   0.0000
    13 H2       0.7229   0.3092   9.9345   H         1 RES1   0.0000
    14 C5      -0.4565  -0.7104   4.3702   C.2       1 RES1   0.0000
    15 C6      -1.1059  -1.8146   4.9421   C.2       1 RES1   0.0000
    16 H3      -1.7852  -2.3177   4.5546   H         1 RES1   0.0000
    17 C7      -0.5637  -2.0095   6.1499   C.2       1 RES1   0.0000
    18 H4      -0.7979  -2.6718   6.7596   H         1 RES1   0.0000
    19 C8       4.3731  -0.6002   5.6282   C.2       1 RES1   0.0000
    20 C9       4.6777  -1.7383   6.3709   C.2       1 RES1   0.0000
    21 H5       5.4675  -2.2282   6.3332   H         1 RES1   0.0000
    22 C10      3.6144  -1.9936   7.1534   C.2       1 RES1   0.0000
    23 H6       3.5316  -2.6933   7.7610   H         1 RES1   0.0000
    24 C11      1.2109   4.0263   7.4027   C.3       1 RES1   0.0000
    25 H7       1.3305   4.0251   6.4505   H         1 RES1   0.0000
    26 H8       1.9570   4.4640   7.8186   H         1 RES1   0.0000
    27 H9       0.4017   4.4933   7.6237   H         1 RES1   0.0000
    28 C12     -0.7273  -0.1000   3.0409   C.3       1 RES1   0.0000
    29 H10     -0.3794   0.7946   3.0231   H         1 RES1   0.0000
    30 H11     -1.6737  -0.0785   2.8859   H         1 RES1   0.0000
    31 H12     -0.3017  -0.6229   2.3569   H         1 RES1   0.0000
    32 C13      5.2437   0.0732   4.6268   C.3       1 RES1   0.0000
    33 H13      4.9067   0.9548   4.4519   H         1 RES1   0.0000
    34 H14      5.2468  -0.4355   3.8129   H         1 RES1   0.0000
    35 H15      6.1376   0.1346   4.9694   H         1 RES1   0.0000
    36 C14      1.0726  -1.9046   8.5152   C.3       1 RES1   0.0000
    37 H16      0.1763  -1.8004   8.8441   H         1 RES1   0.0000
    38 H17      1.6943  -1.7694   9.2327   H         1 RES1   0.0000
    39 H18      1.1823  -2.7897   8.1601   H         1 RES1   0.0000
    40 N1A      2.3773   0.8486   3.3469   N.2       1 RES1   0.0000
    41 N2A      2.5380   1.9357   2.5298   N.pl3     1 RES1   0.0000
    42 N3A      3.2536   2.6469   5.2552   N.2       1 RES1   0.0000
    43 N4A      3.3361   3.4620   4.1561   N.pl3     1 RES1   0.0000
    44 N5A      0.5818   2.5748   4.5391   N.2       1 RES1   0.0000
    45 N6A      1.0385   3.4412   3.5857   N.pl3     1 RES1   0.0000
    46 C1A      2.3920   3.2762   3.0597   C.3       1 RES1   0.0000
    47 C2A      2.6037  -0.2204   2.5800   C.2       1 RES1   0.0000
    48 C3A      2.8978   0.1873   1.2811   C.2       1 RES1   0.0000
    49 H1A      3.0904  -0.3637   0.5573   H         1 RES1   0.0000
    50 C4A      2.8500   1.5353   1.2727   C.2       1 RES1   0.0000
    51 H2A      3.0024   2.0877   0.5405   H         1 RES1   0.0000
    52 C5A      4.1817   3.1073   6.1049   C.2       1 RES1   0.0000
    53 C6A      4.8312   4.2116   5.5329   C.2       1 RES1   0.0000
    54 H3A      5.5105   4.7146   5.9205   H         1 RES1   0.0000
    55 C7A      4.2889   4.4065   4.3252   C.2       1 RES1   0.0000
    56 H4A      4.5232   5.0687   3.7155   H         1 RES1   0.0000
    57 C8A     -0.6479   2.9972   4.8468   C.2       1 RES1   0.0000
    58 C9A     -0.9524   4.1352   4.1041   C.2       1 RES1   0.0000
    59 H5A     -1.7422   4.6251   4.1418   H         1 RES1   0.0000
    60 C10A     0.1108   4.3905   3.3216   C.2       1 RES1   0.0000
    61 H6A      0.1937   5.0902   2.7141   H         1 RES1   0.0000
    62 C11A     2.5144  -1.6294   3.0723   C.3       1 RES1   0.0000
    63 H7A      2.3948  -1.6282   4.0245   H         1 RES1   0.0000
    64 H8A      1.7683  -2.0671   2.6565   H         1 RES1   0.0000
    65 H9A      3.3235  -2.0964   2.8513   H         1 RES1   0.0000
    66 C12A     4.4526   2.4969   7.4341   C.3       1 RES1   0.0000
    67 H10A     4.1046   1.6023   7.4520   H         1 RES1   0.0000
    68 H11A     5.3989   2.4754   7.5892   H         1 RES1   0.0000
    69 H12A     4.0270   3.0198   8.1182   H         1 RES1   0.0000
    70 C13A    -1.5185   2.3237   5.8482   C.3       1 RES1   0.0000
    71 H13A    -1.1815   1.4421   6.0232   H         1 RES1   0.0000
    72 H14A    -1.5215   2.8324   6.6621   H         1 RES1   0.0000
    73 H15A    -2.4123   2.2623   5.5057   H         1 RES1   0.0000
    74 C14A     2.6527   4.3016   1.9599   C.3       1 RES1   0.0000
    75 H16A     3.5490   4.1974   1.6310   H         1 RES1   0.0000
    76 H17A     2.0309   4.1663   1.2423   H         1 RES1   0.0000
    77 H18A     2.5430   5.1866   2.3150   H         1 RES1   0.0000
    78 B1       7.3948   5.5288   8.4534   B         2 RES2  -1.0000
    79 F1       7.4706   5.7455   7.1137   F         2 RES2   0.0000
    80 F2       6.1683   5.9320   8.9237   F         2 RES2   0.0000
    81 F3       7.5538   4.1975   8.7132   F         2 RES2   0.0000
    82 F4       8.3759   6.2479   9.0651   F         2 RES2   0.0000
    83 C15      6.7762   9.0712   9.7177   C.3       3 RES3   0.0000
    84 H19      7.3202   8.9473  10.5117   H         3 RES3   0.0000
    85 H20      6.6807   8.2063   9.2893   H         3 RES3   0.0000
    86 Cl1      5.2067   9.6302  10.2003   Cl        3 RES3   0.0000
    87 Cl2      7.5985  10.1301   8.6462   Cl        3 RES3   0.0000
@<TRIPOS>BOND
     1     1     2    1
     2     2     3    1
     3     3     8    1
     4     4     1    1
     5     5     4    1
     6     6     1    1
     7     7     6    1
     8     8     5    1
     9     9     2    2
    10    10     9    1
    11    11    10    1
    12    12     3    1
    13    13    12    1
    14    14     4    2
    15    15    14    1
    16    16    15    1
    17    17     5    1
    18    18    17    1
    19    19     6    2
    20    20    19    1
    21    21    20    1
    22    22     7    1
    23    23    22    1
    24    24     9    1
    25    25    24    1
    26    26    24    1
    27    27    24    1
    28    28    14    1
    29    29    28    1
    30    30    28    1
    31    31    28    1
    32    32    19    1
    33    33    32    1
    34    34    32    1
    35    35    32    1
    36    36     8    1
    37    37    36    1
    38    38    36    1
    39    39    36    1
    40    40     1    1
    41    41    40    1
    42    42     1    1
    43    43    42    1
    44    44     1    1
    45    45    44    1
    46    46    41    1
    47    47    40    2
    48    48    47    1
    49    49    48    1
    50    50    41    1
    51    51    50    1
    52    52    42    2
    53    53    52    1
    54    54    53    1
    55    55    43    1
    56    56    55    1
    57    57    44    2
    58    58    57    1
    59    59    58    1
    60    60    45    1
    61    61    60    1
    62    62    47    1
    63    63    62    1
    64    64    62    1
    65    65    62    1
    66    66    52    1
    67    67    66    1
    68    68    66    1
    69    69    66    1
    70    70    57    1
    71    71    70    1
    72    72    70    1
    73    73    70    1
    74    74    46    1
    75    75    74    1
    76    76    74    1
    77    77    74    1
    78     7     8    1
    79    10    12    2
    80    15    17    2
    81    20    22    2
    82    43    46    1
    83    45    46    1
    84    48    50    2
    85    53    55    2
    86    58    60    2
    87    78    79    1
    88    80    78    1
    89    81    78    1
    90    82    78    1
    91    83    84    1
    92    85    83    1
    93    86    83    1
    94    87    83    1
@<TRIPOS>SUBSTRUCTURE
     1 RES1        1 GROUP             0 ****  ****    0  
     2 RES2       78 GROUP             0 ****  ****    0  
     3 RES3       83 GROUP             0 ****  ****    0  
@<TRIPOS>CRYSIN
    9.6380   10.0000   11.3732   76.7900   70.8800   86.8340     2     1
