@<TRIPOS>MOLECULE
FUFLOJ
    87    94     3     0     0
SMALL
USER_CHARGES
****
Generated from the CSD

@<TRIPOS>ATOM
     1 Fe1      1.7861   1.2181   5.1525   Fe        1 RES1   2.0000
     2 N1       1.2836   1.6162   7.0085   N.2       1 RES1   0.0000
     3 N2       1.1283   0.5524   7.8585   N.pl3     1 RES1   0.0000
     4 N3       0.4131  -0.2142   5.1473   N.2       1 RES1   0.0000
     5 N4       0.3213  -1.0061   6.2609   N.pl3     1 RES1   0.0000
     6 N5       3.0619  -0.1221   5.8517   N.2       1 RES1   0.0000
     7 N6       2.6130  -0.9783   6.8219   N.pl3     1 RES1   0.0000
     8 C1       1.2674  -0.8056   7.3538   C.3       1 RES1   0.0000
     9 C2       1.0494   2.7086   7.7523   C.2       1 RES1   0.0000
    10 C3       0.7353   2.3314   9.0697   C.2       1 RES1   0.0000
    11 H1       0.5238   2.9116   9.7918   H         1 RES1   0.0000
    12 C4       0.7936   0.9684   9.1070   C.2       1 RES1   0.0000
    13 H2       0.6311   0.4156   9.8619   H         1 RES1   0.0000
    14 C5      -0.5066  -0.6989   4.2943   C.2       1 RES1   0.0000
    15 C6      -1.1679  -1.7989   4.8715   C.2       1 RES1   0.0000
    16 H3      -1.8579  -2.3184   4.4755   H         1 RES1   0.0000
    17 C7      -0.6242  -1.9734   6.1115   C.2       1 RES1   0.0000
    18 H4      -0.8599  -2.6397   6.7457   H         1 RES1   0.0000
    19 C8       4.2896  -0.5491   5.5299   C.2       1 RES1   0.0000
    20 C9       4.6159  -1.6903   6.2897   C.2       1 RES1   0.0000
    21 H5       5.4237  -2.1886   6.2510   H         1 RES1   0.0000
    22 C10      3.5378  -1.9359   7.0928   C.2       1 RES1   0.0000
    23 H6       3.4509  -2.6426   7.7216   H         1 RES1   0.0000
    24 C11      1.1374   4.1030   7.2331   C.3       1 RES1   0.0000
    25 H7       1.4142   4.0845   6.2933   H         1 RES1   0.0000
    26 H8       1.7949   4.6058   7.7576   H         1 RES1   0.0000
    27 H9       0.2611   4.5350   7.3073   H         1 RES1   0.0000
    28 C12     -0.7669  -0.1237   2.9444   C.3       1 RES1   0.0000
    29 H10     -0.5469   0.8316   2.9483   H         1 RES1   0.0000
    30 H11     -1.7126  -0.2405   2.7164   H         1 RES1   0.0000
    31 H12     -0.2111  -0.5841   2.2805   H         1 RES1   0.0000
    32 C13      5.1533   0.0995   4.5079   C.3       1 RES1   0.0000
    33 H13      4.8179   1.0010   4.3219   H         1 RES1   0.0000
    34 H14      5.1389  -0.4314   3.6840   H         1 RES1   0.0000
    35 H15      6.0720   0.1557   4.8444   H         1 RES1   0.0000
    36 C14      1.0057  -1.8033   8.4723   C.3       1 RES1   0.0000
    37 H16      0.0971  -1.6770   8.8170   H         1 RES1   0.0000
    38 H17      1.6510  -1.6609   9.1952   H         1 RES1   0.0000
    39 H18      1.0992  -2.7153   8.1255   H         1 RES1   0.0000
    40 N1A      2.2886   0.8200   3.2965   N.2       1 RES1   0.0000
    41 N2A      2.4439   1.8837   2.4465   N.pl3     1 RES1   0.0000
    42 N3A      3.1592   2.6504   5.1578   N.2       1 RES1   0.0000
    43 N4A      3.2510   3.4423   4.0441   N.pl3     1 RES1   0.0000
    44 N5A      0.5103   2.5583   4.4533   N.2       1 RES1   0.0000
    45 N6A      0.9593   3.4145   3.4831   N.pl3     1 RES1   0.0000
    46 C1A      2.3048   3.2418   2.9513   C.3       1 RES1   0.0000
    47 C2A      2.5228  -0.2724   2.5528   C.2       1 RES1   0.0000
    48 C3A      2.8370   0.1048   1.2354   C.2       1 RES1   0.0000
    49 H1A      3.0485  -0.4754   0.5132   H         1 RES1   0.0000
    50 C4A      2.7787   1.4678   1.1981   C.2       1 RES1   0.0000
    51 H2A      2.9412   2.0206   0.4431   H         1 RES1   0.0000
    52 C5A      4.0788   3.1350   6.0107   C.2       1 RES1   0.0000
    53 C6A      4.7401   4.2351   5.4335   C.2       1 RES1   0.0000
    54 H3A      5.4302   4.7546   5.8296   H         1 RES1   0.0000
    55 C7A      4.1965   4.4096   4.1935   C.2       1 RES1   0.0000
    56 H4A      4.4322   5.0759   3.5594   H         1 RES1   0.0000
    57 C8A     -0.7173   2.9853   4.7751   C.2       1 RES1   0.0000
    58 C9A     -1.0436   4.1264   4.0154   C.2       1 RES1   0.0000
    59 H5A     -1.8514   4.6248   4.0540   H         1 RES1   0.0000
    60 C10A     0.0344   4.3721   3.2122   C.2       1 RES1   0.0000
    61 H6A      0.1213   5.0787   2.5835   H         1 RES1   0.0000
    62 C11A     2.4348  -1.6668   3.0719   C.3       1 RES1   0.0000
    63 H7A      2.1580  -1.6483   4.0117   H         1 RES1   0.0000
    64 H8A      1.7774  -2.1696   2.5474   H         1 RES1   0.0000
    65 H9A      3.3111  -2.0988   2.9977   H         1 RES1   0.0000
    66 C12A     4.3391   2.5599   7.3607   C.3       1 RES1   0.0000
    67 H10A     4.1191   1.6046   7.3568   H         1 RES1   0.0000
    68 H11A     5.2849   2.6767   7.5886   H         1 RES1   0.0000
    69 H12A     3.7834   3.0202   8.0245   H         1 RES1   0.0000
    70 C13A    -1.5810   2.3367   5.7971   C.3       1 RES1   0.0000
    71 H13A    -1.2456   1.4352   5.9831   H         1 RES1   0.0000
    72 H14A    -1.5666   2.8675   6.6210   H         1 RES1   0.0000
    73 H15A    -2.4997   2.2805   5.4606   H         1 RES1   0.0000
    74 C14A     2.5666   4.2395   1.8327   C.3       1 RES1   0.0000
    75 H16A     3.4752   4.1132   1.4880   H         1 RES1   0.0000
    76 H17A     1.9213   4.0970   1.1099   H         1 RES1   0.0000
    77 H18A     2.4731   5.1515   2.1795   H         1 RES1   0.0000
    78 B1       7.2621   5.5356   8.2891   B         2 RES2  -1.0000
    79 F1       7.3316   5.6960   6.9142   F         2 RES2   0.0000
    80 F2       5.9953   5.9217   8.7450   F         2 RES2   0.0000
    81 F3       7.4851   4.2097   8.6235   F         2 RES2   0.0000
    82 F4       8.2302   6.3419   8.8839   F         2 RES2   0.0000
    83 C15      6.5961   9.0195   9.6002   C.3       3 RES3   0.0000
    84 H19      7.1380   8.9020  10.4215   H         3 RES3   0.0000
    85 H20      6.4799   8.1285   9.1838   H         3 RES3   0.0000
    86 Cl1      5.0078   9.6644  10.0429   Cl        3 RES3   0.0000
    87 Cl2      7.4657  10.0657   8.4848   Cl        3 RES3   0.0000
@<TRIPOS>BOND
     1     1     2    1
     2     2     3    1
     3     3     8    1
     4     4     1    1
     5     5     4    1
     6     6     1    1
     7     7     6    1
     8     8     5    1
     9     9     2    2
    10    10     9    1
    11    11    10    1
    12    12     3    1
    13    13    12    1
    14    14     4    2
    15    15    14    1
    16    16    15    1
    17    17     5    1
    18    18    17    1
    19    19     6    2
    20    20    19    1
    21    21    20    1
    22    22     7    1
    23    23    22    1
    24    24     9    1
    25    25    24    1
    26    26    24    1
    27    27    24    1
    28    28    14    1
    29    29    28    1
    30    30    28    1
    31    31    28    1
    32    32    19    1
    33    33    32    1
    34    34    32    1
    35    35    32    1
    36    36     8    1
    37    37    36    1
    38    38    36    1
    39    39    36    1
    40    40     1    1
    41    41    40    1
    42    42     1    1
    43    43    42    1
    44    44     1    1
    45    45    44    1
    46    46    41    1
    47    47    40    2
    48    48    47    1
    49    49    48    1
    50    50    41    1
    51    51    50    1
    52    52    42    2
    53    53    52    1
    54    54    53    1
    55    55    43    1
    56    56    55    1
    57    57    44    2
    58    58    57    1
    59    59    58    1
    60    60    45    1
    61    61    60    1
    62    62    47    1
    63    63    62    1
    64    64    62    1
    65    65    62    1
    66    66    52    1
    67    67    66    1
    68    68    66    1
    69    69    66    1
    70    70    57    1
    71    71    70    1
    72    72    70    1
    73    73    70    1
    74    74    46    1
    75    75    74    1
    76    76    74    1
    77    77    74    1
    78     7     8    1
    79    10    12    2
    80    15    17    2
    81    20    22    2
    82    43    46    1
    83    45    46    1
    84    48    50    2
    85    53    55    2
    86    58    60    2
    87    78    79    1
    88    80    78    1
    89    81    78    1
    90    82    78    1
    91    83    84    1
    92    85    83    1
    93    86    83    1
    94    87    83    1
@<TRIPOS>SUBSTRUCTURE
     1 RES1        1 GROUP             0 ****  ****    0  
     2 RES2       78 GROUP             0 ****  ****    0  
     3 RES3       83 GROUP             0 ****  ****    0  
@<TRIPOS>CRYSIN
    9.4829    9.9138   11.1754   76.3020   71.3580   86.5560     2     1
