@<TRIPOS>MOLECULE
FUFMAW
    88    95     3     0     0
SMALL
USER_CHARGES
****
Generated from the CSD

@<TRIPOS>ATOM
     1 Fe1      4.0120   7.5021   5.8996   Fe        1 RES1   2.0000
     2 N1       2.2547   6.6883   5.9740   N.2       1 RES1   0.0000
     3 N2       1.9766   5.6624   6.8415   N.pl3     1 RES1   0.0000
     4 N3       4.7103   5.7020   5.9275   N.2       1 RES1   0.0000
     5 N4       4.2052   4.7592   6.7877   N.pl3     1 RES1   0.0000
     6 N5       4.0187   7.4145   7.8342   N.2       1 RES1   0.0000
     7 N6       3.5777   6.3009   8.5054   N.pl3     1 RES1   0.0000
     8 C1       3.0973   5.1802   7.6733   C.3       1 RES1   0.0000
     9 C2       1.1241   6.9517   5.3389   C.2       1 RES1   0.0000
    10 H1       1.0236   7.6191   4.6701   H         1 RES1   0.0000
    11 C3       0.1028   6.1195   5.7817   C.2       1 RES1   0.0000
    12 H2      -0.7966   6.1142   5.4760   H         1 RES1   0.0000
    13 C4       0.6454   5.3046   6.7485   C.2       1 RES1   0.0000
    14 C5       5.6862   5.1242   5.2454   C.2       1 RES1   0.0000
    15 H3       6.2078   5.5471   4.5733   H         1 RES1   0.0000
    16 C6       5.8324   3.8009   5.6634   C.2       1 RES1   0.0000
    17 H4       6.4636   3.1734   5.3309   H         1 RES1   0.0000
    18 C7       4.8996   3.5739   6.6401   C.2       1 RES1   0.0000
    19 C8       4.4032   8.2778   8.7632   C.2       1 RES1   0.0000
    20 H5       4.7481   9.1451   8.5862   H         1 RES1   0.0000
    21 C9       4.2299   7.7356  10.0354   C.2       1 RES1   0.0000
    22 H6       4.4388   8.1548  10.8623   H         1 RES1   0.0000
    23 C10      3.7004   6.4820   9.8651   C.2       1 RES1   0.0000
    24 C11     -0.1214   4.3043   7.5467   C.3       1 RES1   0.0000
    25 H7      -1.0400   4.2537   7.2105   H         1 RES1   0.0000
    26 H8      -0.1320   4.5763   8.4883   H         1 RES1   0.0000
    27 H9       0.3053   3.4255   7.4653   H         1 RES1   0.0000
    28 C12      4.7244   2.2794   7.3587   C.3       1 RES1   0.0000
    29 H10      5.3460   1.6160   6.9934   H         1 RES1   0.0000
    30 H11      3.8037   1.9640   7.2423   H         1 RES1   0.0000
    31 H12      4.9077   2.4082   8.3125   H         1 RES1   0.0000
    32 C13      3.3300   5.5492  10.9687   C.3       1 RES1   0.0000
    33 H13      3.8480   4.7218  10.8847   H         1 RES1   0.0000
    34 H14      2.3735   5.3430  10.9142   H         1 RES1   0.0000
    35 H15      3.5248   5.9702  11.8322   H         1 RES1   0.0000
    36 C14      2.6530   4.0226   8.5300   C.3       1 RES1   0.0000
    37 H16      1.9318   4.3152   9.1255   H         1 RES1   0.0000
    38 H17      3.4097   3.7030   9.0653   H         1 RES1   0.0000
    39 H18      2.3287   3.2964   7.9562   H         1 RES1   0.0000
    40 N1B      5.7693   8.3159   5.8251   N.2       1 RES1   0.0000
    41 N2B      6.0474   9.3418   4.9576   N.pl3     1 RES1   0.0000
    42 N3B      3.3137   9.3022   5.8716   N.2       1 RES1   0.0000
    43 N4B      3.8188  10.2450   5.0114   N.pl3     1 RES1   0.0000
    44 N5B      4.0052   7.5897   3.9650   N.2       1 RES1   0.0000
    45 N6B      4.4462   8.7033   3.2937   N.pl3     1 RES1   0.0000
    46 C1B      4.9267   9.8240   4.1258   C.3       1 RES1   0.0000
    47 C2B      6.8999   8.0525   6.4603   C.2       1 RES1   0.0000
    48 H1B      7.0003   7.3851   7.1290   H         1 RES1   0.0000
    49 C3B      7.9212   8.8847   6.0174   C.2       1 RES1   0.0000
    50 H2B      8.8206   8.8900   6.3232   H         1 RES1   0.0000
    51 C4B      7.3786   9.6996   5.0506   C.2       1 RES1   0.0000
    52 C5B      2.3378   9.8800   6.5537   C.2       1 RES1   0.0000
    53 H3B      1.8162   9.4571   7.2258   H         1 RES1   0.0000
    54 C6B      2.1915  11.2033   6.1358   C.2       1 RES1   0.0000
    55 H4B      1.5603  11.8308   6.4683   H         1 RES1   0.0000
    56 C7B      3.1243  11.4303   5.1591   C.2       1 RES1   0.0000
    57 C8B      3.6208   6.7264   3.0359   C.2       1 RES1   0.0000
    58 H5B      3.2758   5.8591   3.2129   H         1 RES1   0.0000
    59 C9B      3.7940   7.2686   1.7637   C.2       1 RES1   0.0000
    60 H6B      3.5851   6.8494   0.9369   H         1 RES1   0.0000
    61 C10B     4.3235   8.5222   1.9340   C.2       1 RES1   0.0000
    62 C11B     8.1453  10.6999   4.2524   C.3       1 RES1   0.0000
    63 H7B      9.0640  10.7505   4.5887   H         1 RES1   0.0000
    64 H8B      8.1560  10.4279   3.3108   H         1 RES1   0.0000
    65 H9B      7.7186  11.5787   4.3338   H         1 RES1   0.0000
    66 C12B     3.2996  12.7248   4.4405   C.3       1 RES1   0.0000
    67 H10B     2.6779  13.3882   4.8058   H         1 RES1   0.0000
    68 H11B     4.2203  13.0402   4.5568   H         1 RES1   0.0000
    69 H12B     3.1162  12.5960   3.4866   H         1 RES1   0.0000
    70 C13B     4.6939   9.4550   0.8304   C.3       1 RES1   0.0000
    71 H13B     4.1759  10.2824   0.9144   H         1 RES1   0.0000
    72 H14B     5.6504   9.6612   0.8849   H         1 RES1   0.0000
    73 H15B     4.4992   9.0340  -0.0330   H         1 RES1   0.0000
    74 C14B     5.3709  10.9816   3.2692   C.3       1 RES1   0.0000
    75 H16B     6.0922  10.6890   2.6737   H         1 RES1   0.0000
    76 H17B     4.6143  11.3012   2.7339   H         1 RES1   0.0000
    77 H18B     5.6953  11.7078   3.8430   H         1 RES1   0.0000
    78 B1       7.9511   7.2239   2.1894   B         2 RES2  -1.0000
    79 F1       8.9805   7.1627   3.1186   F         2 RES2   0.0000
    80 F2       7.6426   8.5380   1.8939   F         2 RES2   0.0000
    81 F3       8.3456   6.5969   1.0295   F         2 RES2   0.0000
    82 F4       6.8367   6.5802   2.6579   F         2 RES2   0.0000
    83 C15      2.7541   2.7218   4.1069   C.1       3 RES3   0.0000
    84 N7       2.2263   3.7294   4.1409   N.1       3 RES3   0.0000
    85 C16      3.4266   1.4328   4.0778   C.3       3 RES3   0.0000
    86 H19      3.0178   0.8672   3.3899   H         3 RES3   0.0000
    87 H20      3.3392   0.9993   4.9521   H         3 RES3   0.0000
    88 H21      4.3760   1.5634   3.8713   H         3 RES3   0.0000
@<TRIPOS>BOND
     1     1     2    1
     2     2     3    1
     3     3     8    1
     4     4     1    1
     5     5     4    1
     6     6     1    1
     7     7     6    1
     8     8     5    1
     9     9     2    2
    10    10     9    1
    11    11     9    1
    12    12    11    1
    13    13     3    1
    14    14     4    2
    15    15    14    1
    16    16    14    1
    17    17    16    1
    18    18     5    1
    19    19     6    2
    20    20    19    1
    21    21    19    1
    22    22    21    1
    23    23     7    1
    24    24    13    1
    25    25    24    1
    26    26    24    1
    27    27    24    1
    28    28    18    1
    29    29    28    1
    30    30    28    1
    31    31    28    1
    32    32    23    1
    33    33    32    1
    34    34    32    1
    35    35    32    1
    36    36     8    1
    37    37    36    1
    38    38    36    1
    39    39    36    1
    40    40     1    1
    41    41    40    1
    42    42     1    1
    43    43    42    1
    44    44     1    1
    45    45    44    1
    46    46    41    1
    47    47    40    2
    48    48    47    1
    49    49    47    1
    50    50    49    1
    51    51    41    1
    52    52    42    2
    53    53    52    1
    54    54    52    1
    55    55    54    1
    56    56    43    1
    57    57    44    2
    58    58    57    1
    59    59    57    1
    60    60    59    1
    61    61    45    1
    62    62    51    1
    63    63    62    1
    64    64    62    1
    65    65    62    1
    66    66    56    1
    67    67    66    1
    68    68    66    1
    69    69    66    1
    70    70    61    1
    71    71    70    1
    72    72    70    1
    73    73    70    1
    74    74    46    1
    75    75    74    1
    76    76    74    1
    77    77    74    1
    78     7     8    1
    79    11    13    2
    80    16    18    2
    81    21    23    2
    82    43    46    1
    83    45    46    1
    84    49    51    2
    85    54    56    2
    86    59    61    2
    87    78    79    1
    88    80    78    1
    89    81    78    1
    90    82    78    1
    91    83    84    3
    92    85    83    1
    93    86    85    1
    94    87    85    1
    95    88    85    1
@<TRIPOS>SUBSTRUCTURE
     1 RES1        1 GROUP             0 ****  ****    0  
     2 RES2       78 GROUP             0 ****  ****    0  
     3 RES3       83 GROUP             0 ****  ****    0  
@<TRIPOS>CRYSIN
   10.5399   15.0042   12.0644   90.0000  102.0370   90.0000   231     1
