@<TRIPOS>MOLECULE
FULXER
   125   131     3     0     0
SMALL
USER_CHARGES
****
Generated from the CSD

@<TRIPOS>ATOM
     1 C1      15.7120   6.4050   5.7973   C.ar      1 RES1   0.0000
     2 H1      15.1526   5.6665   5.7268   H         1 RES1   0.0000
     3 C2      16.7345   6.3757   6.6201   C.ar      1 RES1   0.0000
     4 H2      16.8842   5.5977   7.1055   H         1 RES1   0.0000
     5 C3      17.6123   7.4429   6.8077   C.ar      1 RES1   0.0000
     6 H3      18.3060   7.3981   7.4240   H         1 RES1   0.0000
     7 C4      17.3972   8.6185   6.0039   C.ar      1 RES1   0.0000
     8 H4      17.9807   9.3415   6.0469   H         1 RES1   0.0000
     9 C5      16.2990   8.6426   5.1708   C.ar      1 RES1   0.0000
    10 H5      16.1062   9.4155   4.6905   H         1 RES1   0.0000
    11 C6      15.4693   7.5221   5.0382   C.ar      1 RES1   0.0000
    12 C7      14.2472   7.6030   4.0605   C.3       1 RES1   0.0000
    13 H6      13.8978   6.6924   3.9538   H         1 RES1   0.0000
    14 C8      13.1783   8.4189   4.8179   C.3       1 RES1   0.0000
    15 H7      13.5036   9.3105   4.9642   H         1 RES1   0.0000
    16 H8      12.9958   8.0023   5.6614   H         1 RES1   0.0000
    17 H9      12.3744   8.4533   4.2964   H         1 RES1   0.0000
    18 C9      14.1611   9.3002   2.3392   C.2       1 RES1   0.0000
    19 H10     13.6568   9.8734   2.8728   H         1 RES1   0.0000
    20 C10     14.5312   9.6031   1.0724   C.2       1 RES1   0.0000
    21 C11     15.4487   9.2434  -0.9278   C.2       1 RES1   0.0000
    22 H11     15.8842   8.8165  -1.6283   H         1 RES1   0.0000
    23 C12     14.9615  10.4741  -0.9846   C.2       1 RES1   0.0000
    24 H12     14.9306  11.0353  -1.7265   H         1 RES1   0.0000
    25 C13     14.0217  12.1093   0.6093   C.3       1 RES1   0.0000
    26 H13     14.5484  12.7617   0.1222   H         1 RES1   0.0000
    27 H14     14.1525  12.2711   1.5578   H         1 RES1   0.0000
    28 C14     12.5603  12.3090   0.2754   C.3       1 RES1   0.0000
    29 H15     12.0267  11.6962   0.8056   H         1 RES1   0.0000
    30 H16     12.4157  12.0939  -0.6593   H         1 RES1   0.0000
    31 C15     12.0956  13.7274   0.5370   C.3       1 RES1   0.0000
    32 H17     12.2660  13.9615   1.4631   H         1 RES1   0.0000
    33 H18     12.5913  14.3419  -0.0275   H         1 RES1   0.0000
    34 C16     10.7444  13.8341   0.2685   C.1       1 RES1   0.0000
    35 Fe1     15.7878   7.1813   1.4252   Fe        1 RES1   2.0000
    36 N1      14.5897   8.0884   2.7592   N.2       1 RES1   0.0000
    37 N2      15.2146   8.6667   0.3477   N.2       1 RES1   0.0000
    38 N3      14.5123  10.7392   0.2771   N.pl3     1 RES1   0.0000
    39 N4       9.5343  13.6774   0.1394   N.1       1 RES1   0.0000
    40 C1G     11.4157   7.1055   2.2015   C.ar      1 RES1   0.0000
    41 H1G     11.4862   6.5461   2.9400   H         1 RES1   0.0000
    42 C2G     10.5929   8.1280   2.2308   C.ar      1 RES1   0.0000
    43 H2G     10.1075   8.2777   3.0088   H         1 RES1   0.0000
    44 C3G     10.4053   9.0058   1.1636   C.ar      1 RES1   0.0000
    45 H3G      9.7890   9.6995   1.2084   H         1 RES1   0.0000
    46 C4G     11.2091   8.7907  -0.0120   C.ar      1 RES1   0.0000
    47 H4G     11.1661   9.3742  -0.7350   H         1 RES1   0.0000
    48 C5G     12.0422   7.6925  -0.0361   C.ar      1 RES1   0.0000
    49 H5G     12.5225   7.4997  -0.8090   H         1 RES1   0.0000
    50 C6G     12.1748   6.8628   1.0844   C.ar      1 RES1   0.0000
    51 C7G     13.1525   5.6407   1.0035   C.3       1 RES1   0.0000
    52 H6G     13.2592   5.2913   1.9141   H         1 RES1   0.0000
    53 C8G     12.3951   4.5718   0.1876   C.3       1 RES1   0.0000
    54 H7G     12.2488   4.8971  -0.7040   H         1 RES1   0.0000
    55 H8G     11.5516   4.3893   0.6042   H         1 RES1   0.0000
    56 H9G     12.9166   3.7679   0.1532   H         1 RES1   0.0000
    57 C9G     14.8738   5.5546  -0.6937   C.2       1 RES1   0.0000
    58 H10G    14.3402   5.0503  -1.2669   H         1 RES1   0.0000
    59 C10G    16.1406   5.9247  -0.9966   C.2       1 RES1   0.0000
    60 C11G    18.1408   6.8422  -0.6369   C.2       1 RES1   0.0000
    61 H11G    18.8413   7.2777  -0.2100   H         1 RES1   0.0000
    62 C12G    18.1976   6.3550  -1.8676   C.2       1 RES1   0.0000
    63 H12G    18.9395   6.3241  -2.4288   H         1 RES1   0.0000
    64 C13G    16.6037   5.4152  -3.5028   C.3       1 RES1   0.0000
    65 H13G    17.0908   5.9419  -4.1552   H         1 RES1   0.0000
    66 H14G    15.6552   5.5460  -3.6646   H         1 RES1   0.0000
    67 C14G    16.9376   3.9538  -3.7025   C.3       1 RES1   0.0000
    68 H15G    16.4074   3.4202  -3.0897   H         1 RES1   0.0000
    69 H16G    17.8723   3.8092  -3.4874   H         1 RES1   0.0000
    70 C15G    16.6760   3.4891  -5.1209   C.3       1 RES1   0.0000
    71 H17G    15.7499   3.6595  -5.3550   H         1 RES1   0.0000
    72 H18G    17.2405   3.9848  -5.7354   H         1 RES1   0.0000
    73 C16G    16.9445   2.1379  -5.2276   C.1       1 RES1   0.0000
    74 N1G     14.4538   5.9832   0.5181   N.2       1 RES1   0.0000
    75 N2G     16.8653   6.6081  -0.0602   N.2       1 RES1   0.0000
    76 N3G     16.9359   5.9058  -2.1327   N.pl3     1 RES1   0.0000
    77 N4G     17.0736   0.9278  -5.0709   N.1       1 RES1   0.0000
    78 C1J     15.0115   2.8092   1.5010   C.ar      1 RES1   0.0000
    79 H1J     14.2730   2.8797   2.0604   H         1 RES1   0.0000
    80 C2J     14.9822   1.9864   0.4785   C.ar      1 RES1   0.0000
    81 H2J     14.2042   1.5010   0.3288   H         1 RES1   0.0000
    82 C3J     16.0494   1.7988  -0.3993   C.ar      1 RES1   0.0000
    83 H3J     16.0046   1.1825  -1.0930   H         1 RES1   0.0000
    84 C4J     17.2250   2.6026  -0.1842   C.ar      1 RES1   0.0000
    85 H4J     17.9480   2.5596  -0.7677   H         1 RES1   0.0000
    86 C5J     17.2491   3.4357   0.9140   C.ar      1 RES1   0.0000
    87 H5J     18.0220   3.9160   1.1068   H         1 RES1   0.0000
    88 C6J     16.1286   3.5683   1.7437   C.ar      1 RES1   0.0000
    89 C7J     16.2095   4.5460   2.9658   C.3       1 RES1   0.0000
    90 H6J     15.2989   4.6527   3.3152   H         1 RES1   0.0000
    91 C8J     17.0254   3.7886   4.0347   C.3       1 RES1   0.0000
    92 H7J     17.9170   3.6423   3.7094   H         1 RES1   0.0000
    93 H8J     16.6088   2.9451   4.2172   H         1 RES1   0.0000
    94 H9J     17.0598   4.3101   4.8386   H         1 RES1   0.0000
    95 C9J     17.9067   6.2673   3.0519   C.2       1 RES1   0.0000
    96 H10J    18.4799   5.7337   3.5562   H         1 RES1   0.0000
    97 C10J    18.2096   7.5341   2.6818   C.2       1 RES1   0.0000
    98 C11J    17.8499   9.5343   1.7643   C.2       1 RES1   0.0000
    99 H11J    17.4230  10.2348   1.3288   H         1 RES1   0.0000
   100 C12J    19.0806   9.5911   2.2515   C.2       1 RES1   0.0000
   101 H12J    19.6418  10.3330   2.2824   H         1 RES1   0.0000
   102 C13J    20.7158   7.9972   3.1913   C.3       1 RES1   0.0000
   103 H13J    21.3682   8.4843   2.6646   H         1 RES1   0.0000
   104 H14J    20.8776   7.0487   3.0605   H         1 RES1   0.0000
   105 C14J    20.9155   8.3311   4.6527   C.3       1 RES1   0.0000
   106 H15J    20.3027   7.8009   5.1863   H         1 RES1   0.0000
   107 H16J    20.7004   9.2658   4.7973   H         1 RES1   0.0000
   108 C15J    22.3339   8.0695   5.1174   C.3       1 RES1   0.0000
   109 H17J    22.5680   7.1434   4.9470   H         1 RES1   0.0000
   110 H18J    22.9484   8.6340   4.6217   H         1 RES1   0.0000
   111 C16J    22.4406   8.3380   6.4686   C.1       1 RES1   0.0000
   112 N1J     16.6949   5.8473   2.6233   N.2       1 RES1   0.0000
   113 N2J     17.2732   8.2588   1.9984   N.2       1 RES1   0.0000
   114 N3J     19.3457   8.3294   2.7007   N.pl3     1 RES1   0.0000
   115 N4J     22.2839   8.4671   7.6787   N.1       1 RES1   0.0000
   116 Cl1      4.9873  12.2257   3.6192   Cl        2 RES2   0.0000
   117 O1       3.7232  12.1438   3.0243   O.3       2 RES2  -1.0000
   118 O2       5.7440  11.4690   2.8625   O.2       2 RES2   0.0000
   119 O1F      5.5822  13.4898   3.5373   O.2       2 RES2   0.0000
   120 O1I      5.0692  11.6308   4.8833   O.2       2 RES2   0.0000
   121 Cl2      4.1229   4.1229   4.1229   Cl        3 RES3   0.0000
   122 O3       4.9126   3.2687   4.9057   O.3       3 RES3  -1.0000
   123 O4       3.3290   3.3290   3.3290   O.2       3 RES3   0.0000
   124 O3D      4.9057   4.9126   3.2687   O.2       3 RES3   0.0000
   125 O3H      3.2687   4.9057   4.9126   O.2       3 RES3   0.0000
@<TRIPOS>BOND
     1     1     2    1
     2     3     1   ar
     3     4     3    1
     4     5     3   ar
     5     6     5    1
     6     7     5   ar
     7     8     7    1
     8     9     7   ar
     9    10     9    1
    10    11     1   ar
    11    12    11    1
    12    13    12    1
    13    14    12    1
    14    15    14    1
    15    16    14    1
    16    17    14    1
    17    18    19    1
    18    20    18    2
    19    21    22    1
    20    23    21    2
    21    24    23    1
    22    25    26    1
    23    27    25    1
    24    28    25    1
    25    29    28    1
    26    30    28    1
    27    31    28    1
    28    32    31    1
    29    33    31    1
    30    34    31    1
    31    35    36    1
    32    36    12    1
    33    37    20    1
    34    38    20    1
    35    39    34    3
    36    40    41    1
    37    42    40   ar
    38    43    42    1
    39    44    42   ar
    40    45    44    1
    41    46    44   ar
    42    47    46    1
    43    48    46   ar
    44    49    48    1
    45    50    40   ar
    46    51    50    1
    47    52    51    1
    48    53    51    1
    49    54    53    1
    50    55    53    1
    51    56    53    1
    52    57    58    1
    53    59    57    2
    54    60    61    1
    55    62    60    2
    56    63    62    1
    57    64    65    1
    58    66    64    1
    59    67    64    1
    60    68    67    1
    61    69    67    1
    62    70    67    1
    63    71    70    1
    64    72    70    1
    65    73    70    1
    66    74    35    1
    67    75    35    1
    68    76    59    1
    69    77    73    3
    70    78    79    1
    71    80    78   ar
    72    81    80    1
    73    82    80   ar
    74    83    82    1
    75    84    82   ar
    76    85    84    1
    77    86    84   ar
    78    87    86    1
    79    88    78   ar
    80    89    88    1
    81    90    89    1
    82    91    89    1
    83    92    91    1
    84    93    91    1
    85    94    91    1
    86    95    96    1
    87    97    95    2
    88    98    99    1
    89   100    98    2
    90   101   100    1
    91   102   103    1
    92   104   102    1
    93   105   102    1
    94   106   105    1
    95   107   105    1
    96   108   105    1
    97   109   108    1
    98   110   108    1
    99   111   108    1
   100   112    35    1
   101   113    35    1
   102   114    97    1
   103   115   111    3
   104     9    11   ar
   105    18    36    1
   106    21    37    1
   107    23    38    1
   108    25    38    1
   109    35    37    1
   110    48    50   ar
   111    51    74    1
   112    57    74    1
   113    59    75    1
   114    60    75    1
   115    62    76    1
   116    64    76    1
   117    86    88   ar
   118    89   112    1
   119    95   112    1
   120    97   113    1
   121    98   113    1
   122   100   114    1
   123   102   114    1
   124   116   117    1
   125   118   116    2
   126   119   116    2
   127   120   116    2
   128   121   122    1
   129   123   121    2
   130   124   121    2
   131   125   121    2
@<TRIPOS>SUBSTRUCTURE
     1 RES1        1 GROUP             0 ****  ****    0  
     2 RES2      116 GROUP             0 ****  ****    0  
     3 RES3      121 GROUP             0 ****  ****    0  
@<TRIPOS>CRYSIN
   17.2130   17.2130   17.2130   90.0000   90.0000   90.0000   198     1
