@<TRIPOS>MOLECULE
FUPHAA
    81    87     3     0     0
SMALL
USER_CHARGES
****
Generated from the CSD

@<TRIPOS>ATOM
     1 Fe1      6.4381   8.6228   1.2592   Fe        1 RES1   0.0000
     2 O1       7.0328   7.2185   2.4652   O.co2     1 RES1  -1.0000
     3 C1       7.1325   5.9389   2.3613   C.2       1 RES1   0.0000
     4 O2       7.6174   5.2509   3.2315   O.co2     1 RES1   0.0000
     5 C2       6.6733   5.2582   1.0846   C.3       1 RES1   0.0000
     6 H1       6.1239   4.4994   1.3353   H         1 RES1   0.0000
     7 H2       7.4591   4.9064   0.6380   H         1 RES1   0.0000
     8 C3       5.8922   6.0830   0.0712   C.3       1 RES1   0.0000
     9 H3       5.6745   5.5255  -0.7048   H         1 RES1   0.0000
    10 C4       4.5963   6.5940   0.7152   C.2       1 RES1   0.0000
    11 O3       4.6058   7.8340   1.0646   O.co2     1 RES1   0.0000
    12 O4       3.6719   5.8116   0.9028   O.co2     1 RES1   0.0000
    13 N1       6.6895   7.2428  -0.3657   N.3       1 RES1   0.0000
    14 H4       7.4643   6.9810  -0.5119   H         1 RES1   0.0000
    15 C5       6.2095   7.9075  -1.6002   C.3       1 RES1   0.0000
    16 H5       5.2406   7.8709  -1.6388   H         1 RES1   0.0000
    17 H6       6.5617   7.4501  -2.3791   H         1 RES1   0.0000
    18 O1A      5.8433  10.0271   2.4652   O.co2     1 RES1   0.0000
    19 C1A      5.7436  11.3067   2.3613   C.2       1 RES1   0.0000
    20 O2A      5.2587  11.9947   3.2315   O.co2     1 RES1   0.0000
    21 C2A      6.2028  11.9874   1.0846   C.3       1 RES1   0.0000
    22 H1A      6.7522  12.7462   1.3353   H         1 RES1   0.0000
    23 H2A      5.4170  12.3392   0.6380   H         1 RES1   0.0000
    24 C3A      6.9839  11.1626   0.0712   C.3       1 RES1   0.0000
    25 H3A      7.2016  11.7201  -0.7048   H         1 RES1   0.0000
    26 C4A      8.2798  10.6516   0.7152   C.2       1 RES1   0.0000
    27 O3A      8.2703   9.4116   1.0646   O.co2     1 RES1   0.0000
    28 O4A      9.2042  11.4340   0.9028   O.co2     1 RES1   0.0000
    29 N1A      6.1866  10.0028  -0.3657   N.3       1 RES1   0.0000
    30 H4A      5.4118  10.2646  -0.5119   H         1 RES1   0.0000
    31 C5A      6.6666   9.3381  -1.6002   C.3       1 RES1   0.0000
    32 H5A      7.6355   9.3747  -1.6388   H         1 RES1   0.0000
    33 H6A      6.3144   9.7955  -2.3791   H         1 RES1   0.0000
    34 P1       6.4381   0.0000   0.4830   P.3       2 RES2   1.0000
    35 C6       5.1055  -0.5272   1.5594   C.ar      2 RES2   0.0000
    36 C7       4.5964   0.3658   2.4919   C.ar      2 RES2   0.0000
    37 H7       4.9019   1.2434   2.5075   H         2 RES2   0.0000
    38 C8       3.6421  -0.0431   3.3933   C.ar      2 RES2   0.0000
    39 H8       3.2886   0.5605   4.0060   H         2 RES2   0.0000
    40 C9       3.2152  -1.3403   3.3844   C.ar      2 RES2   0.0000
    41 H9       2.5765  -1.6211   4.0001   H         2 RES2   0.0000
    42 C10      3.7113  -2.2178   2.4897   C.ar      2 RES2   0.0000
    43 H10      3.4122  -3.0973   2.4971   H         2 RES2   0.0000
    44 C11      4.6587  -1.8287   1.5609   C.ar      2 RES2   0.0000
    45 H11      4.9908  -2.4403   0.9429   H         2 RES2   0.0000
    46 C12      5.9226   1.3324  -0.6009   C.ar      2 RES2   0.0000
    47 C13      6.8305   1.7947  -1.5282   C.ar      2 RES2   0.0000
    48 H12      7.6960   1.4555  -1.5394   H         2 RES2   0.0000
    49 C14      6.4561   2.7612  -2.4415   C.ar      2 RES2   0.0000
    50 H13      7.0741   3.0766  -3.0602   H         2 RES2   0.0000
    51 C15      5.1981   3.2482  -2.4370   C.ar      2 RES2   0.0000
    52 H14      4.9457   3.8923  -3.0594   H         2 RES2   0.0000
    53 C16      4.2866   2.7903  -1.5097   C.ar      2 RES2   0.0000
    54 H15      3.4238   3.1387  -1.5030   H         2 RES2   0.0000
    55 C17      4.6354   1.8261  -0.5942   C.ar      2 RES2   0.0000
    56 H16      4.0122   1.5107   0.0200   H         2 RES2   0.0000
    57 C6A      7.7706   0.5272   1.5594   C.ar      2 RES2   0.0000
    58 C7A      8.2797  -0.3658   2.4919   C.ar      2 RES2   0.0000
    59 H7A      7.9742  -1.2434   2.5075   H         2 RES2   0.0000
    60 C8A      9.2340   0.0431   3.3933   C.ar      2 RES2   0.0000
    61 H8A      9.5875  -0.5605   4.0060   H         2 RES2   0.0000
    62 C9A      9.6609   1.3403   3.3844   C.ar      2 RES2   0.0000
    63 H9A     10.2996   1.6211   4.0001   H         2 RES2   0.0000
    64 C10A     9.1648   2.2178   2.4897   C.ar      2 RES2   0.0000
    65 H10A     9.4639   3.0973   2.4971   H         2 RES2   0.0000
    66 C11A     8.2174   1.8287   1.5609   C.ar      2 RES2   0.0000
    67 H11A     7.8853   2.4403   0.9429   H         2 RES2   0.0000
    68 C12A     6.9535  -1.3324  -0.6009   C.ar      2 RES2   0.0000
    69 C13A     6.0456  -1.7947  -1.5282   C.ar      2 RES2   0.0000
    70 H12A     5.1801  -1.4555  -1.5394   H         2 RES2   0.0000
    71 C14A     6.4200  -2.7612  -2.4415   C.ar      2 RES2   0.0000
    72 H13A     5.8020  -3.0766  -3.0602   H         2 RES2   0.0000
    73 C15A     7.6780  -3.2482  -2.4370   C.ar      2 RES2   0.0000
    74 H14A     7.9304  -3.8923  -3.0594   H         2 RES2   0.0000
    75 C16A     8.5895  -2.7903  -1.5097   C.ar      2 RES2   0.0000
    76 H15A     9.4523  -3.1387  -1.5030   H         2 RES2   0.0000
    77 C17A     8.2407  -1.8261  -0.5942   C.ar      2 RES2   0.0000
    78 H16A     8.8639  -1.5107   0.0200   H         2 RES2   0.0000
    79 O5       2.4763   3.1659   1.6202   O.3       3 RES3   0.0000
    80 H17      2.1632   3.2077   2.3962   H         3 RES3   0.0000
    81 H18      2.9486   3.8113   1.6098   H         3 RES3   0.0000
@<TRIPOS>BOND
     1     1     2    1
     2     2     3    1
     3     3     4    2
     4     5     3    1
     5     6     5    1
     6     7     5    1
     7     8     5    1
     8     9     8    1
     9    10     8    1
    10    11     1    1
    11    12    10    2
    12    13     1    1
    13    14    13    1
    14    15    13    1
    15    16    15    1
    16    17    15    1
    17    18     1    1
    18    19    18    1
    19    20    19    2
    20    21    19    1
    21    22    21    1
    22    23    21    1
    23    24    21    1
    24    25    24    1
    25    26    24    1
    26    27     1    1
    27    28    26    2
    28    29     1    1
    29    30    29    1
    30    31    15    1
    31    32    31    1
    32    33    31    1
    33     8    13    1
    34    10    11    1
    35    24    29    1
    36    26    27    1
    37    29    31    1
    38    34    35    1
    39    35    36   ar
    40    36    37    1
    41    38    36   ar
    42    39    38    1
    43    40    38   ar
    44    41    40    1
    45    42    40   ar
    46    43    42    1
    47    44    35   ar
    48    45    44    1
    49    46    34    1
    50    47    46   ar
    51    48    47    1
    52    49    47   ar
    53    50    49    1
    54    51    49   ar
    55    52    51    1
    56    53    51   ar
    57    54    53    1
    58    55    46   ar
    59    56    55    1
    60    57    34    1
    61    58    57   ar
    62    59    58    1
    63    60    58   ar
    64    61    60    1
    65    62    60   ar
    66    63    62    1
    67    64    62   ar
    68    65    64    1
    69    66    57   ar
    70    67    66    1
    71    68    34    1
    72    69    68   ar
    73    70    69    1
    74    71    69   ar
    75    72    71    1
    76    73    71   ar
    77    74    73    1
    78    75    73   ar
    79    76    75    1
    80    77    68   ar
    81    78    77    1
    82    42    44   ar
    83    53    55   ar
    84    64    66   ar
    85    75    77   ar
    86    79    80    1
    87    81    79    1
@<TRIPOS>SUBSTRUCTURE
     1 RES1        1 GROUP             0 ****  ****    0  
     2 RES2       34 GROUP             0 ****  ****    0  
     3 RES3       79 GROUP             0 ****  ****    0  
@<TRIPOS>CRYSIN
   12.8761   17.2456    7.4186   90.0000   90.0000   90.0000    18     1
