@<TRIPOS>MOLECULE
FURTUI
    89    94     1     0     0
SMALL
NO_CHARGES
****
Generated from the CSD

@<TRIPOS>ATOM
     1 Fe1      6.7286   4.4890  11.3113   Fe        1 RES1   0.0000
     2 O1       5.4089   3.3537  12.3302   O.2       1 RES1   0.0000
     3 O2       8.6214   3.8572  11.6122   O.2       1 RES1   0.0000
     4 O3       1.3067   2.8618  11.8994   O.2       1 RES1   0.0000
     5 O4       1.2423   4.6153  10.5852   O.3       1 RES1   0.0000
     6 O5      12.0329   4.1784   9.1602   O.2       1 RES1   0.0000
     7 O6      10.8134   5.4356   7.7789   O.3       1 RES1   0.0000
     8 N1       5.0582   5.4834  10.5634   N.2       1 RES1   0.0000
     9 N2       6.7545   5.7742  13.1215   N.ar      1 RES1   0.0000
    10 N3       6.0256   8.1079  16.5505   N.pl3     1 RES1   0.0000
    11 N4       6.4925   2.8690   9.6893   N.ar      1 RES1   0.0000
    12 N5       6.0013  -0.1505   6.8331   N.pl3     1 RES1   0.0000
    13 N6       7.6093   5.8205   9.9515   N.2       1 RES1   0.0000
    14 C1       4.1708   3.1887  12.2147   C.2       1 RES1   0.0000
    15 C2       3.3461   3.9758  11.4124   C.2       1 RES1   0.0000
    16 C3       3.8194   5.0841  10.6273   C.2       1 RES1   0.0000
    17 H1       3.1921   5.5528  10.1248   H         1 RES1   0.0000
    18 C4       5.3819   6.6567   9.8095   C.ar      1 RES1   0.0000
    19 C5       4.4671   7.6651   9.4911   C.ar      1 RES1   0.0000
    20 H2       3.5762   7.5769   9.7408   H         1 RES1   0.0000
    21 C6       4.8791   8.7908   8.8075   C.ar      1 RES1   0.0000
    22 H3       4.2615   9.4433   8.5687   H         1 RES1   0.0000
    23 C7       6.2116   8.9485   8.4766   C.ar      1 RES1   0.0000
    24 H4       6.4858   9.7066   8.0130   H         1 RES1   0.0000
    25 C8       7.1436   7.9834   8.8309   C.ar      1 RES1   0.0000
    26 H5       8.0431   8.1079   8.6327   H         1 RES1   0.0000
    27 C9       6.7253   6.8289   9.4880   C.ar      1 RES1   0.0000
    28 C10      8.7547   5.6599   9.3553   C.2       1 RES1   0.0000
    29 H6       8.9195   6.1865   8.6061   H         1 RES1   0.0000
    30 C11      9.7808   4.7484   9.7471   C.2       1 RES1   0.0000
    31 C12      9.6639   3.9310  10.9208   C.2       1 RES1   0.0000
    32 C13      3.6577   2.0501  13.1012   C.3       1 RES1   0.0000
    33 H7       3.3985   1.3079  12.5518   H         1 RES1   0.0000
    34 H8       2.8994   2.3554  13.6053   H         1 RES1   0.0000
    35 H9       4.3516   1.7767  13.7052   H         1 RES1   0.0000
    36 C14      1.8959   3.7487  11.3453   C.2       1 RES1   0.0000
    37 C15     -0.2002   4.4851  10.5009   C.3       1 RES1   0.0000
    38 H10     -0.4997   4.7441   9.6144   H         1 RES1   0.0000
    39 H11     -0.4532   3.5591  10.6461   H         1 RES1   0.0000
    40 C16     -0.8167   5.2938  11.4577   C.3       1 RES1   0.0000
    41 H12     -0.5830   4.9842  12.3348   H         1 RES1   0.0000
    42 H13     -1.7686   5.2519  11.3453   H         1 RES1   0.0000
    43 H14     -0.5206   6.1995  11.3484   H         1 RES1   0.0000
    44 C17     10.8235   3.0687  11.3906   C.3       1 RES1   0.0000
    45 H15     11.5174   3.6300  11.7464   H         1 RES1   0.0000
    46 H16     11.1689   2.5666  10.6492   H         1 RES1   0.0000
    47 H17     10.5195   2.4653  12.0711   H         1 RES1   0.0000
    48 C18     10.9851   4.7209   8.9339   C.2       1 RES1   0.0000
    49 C19     11.9535   5.5601   6.9127   C.3       1 RES1   0.0000
    50 H18     12.2710   4.6818   6.6489   H         1 RES1   0.0000
    51 H19     12.6737   6.0216   7.3716   H         1 RES1   0.0000
    52 C20     11.5304   6.3399   5.7015   C.3       1 RES1   0.0000
    53 H20     10.8486   5.8566   5.2317   H         1 RES1   0.0000
    54 H21     12.2876   6.4686   5.1225   H         1 RES1   0.0000
    55 H22     11.1874   7.1949   5.9747   H         1 RES1   0.0000
    56 C21      6.5927   5.2504  14.3404   C.ar      1 RES1   0.0000
    57 H23      6.6408   4.3245  14.4122   H         1 RES1   0.0000
    58 C22      6.3606   5.9623  15.5032   C.ar      1 RES1   0.0000
    59 H24      6.2656   5.5181  16.3133   H         1 RES1   0.0000
    60 C23      6.2720   7.3555  15.4502   C.ar      1 RES1   0.0000
    61 C24      6.4418   7.9256  14.1766   C.ar      1 RES1   0.0000
    62 H25      6.4016   8.8472  14.0673   H         1 RES1   0.0000
    63 C25      6.6651   7.1096  13.0903   C.ar      1 RES1   0.0000
    64 H26      6.7633   7.5219  12.2630   H         1 RES1   0.0000
    65 C26      5.9397   7.5248  17.8740   C.3       1 RES1   0.0000
    66 H27      5.3915   6.7377  17.8413   H         1 RES1   0.0000
    67 H28      5.5524   8.1600  18.4796   H         1 RES1   0.0000
    68 H29      6.8189   7.2890  18.1768   H         1 RES1   0.0000
    69 C27      5.9679   9.5474  16.4865   C.3       1 RES1   0.0000
    70 H30      6.6548   9.8686  15.8981   H         1 RES1   0.0000
    71 H31      6.1020   9.9120  17.3652   H         1 RES1   0.0000
    72 H32      5.1090   9.8194  16.1556   H         1 RES1   0.0000
    73 C28      6.2393   1.5857  10.0296   C.ar      1 RES1   0.0000
    74 H33      6.1703   1.3802  10.9333   H         1 RES1   0.0000
    75 C29      6.0754   0.5700   9.1259   C.ar      1 RES1   0.0000
    76 H34      5.9274  -0.2980   9.4287   H         1 RES1   0.0000
    77 C30      6.1309   0.8218   7.7820   C.ar      1 RES1   0.0000
    78 C31      6.3631   2.1659   7.4043   C.ar      1 RES1   0.0000
    79 H35      6.4247   2.4060   6.5069   H         1 RES1   0.0000
    80 C32      6.4971   3.1005   8.3907   C.ar      1 RES1   0.0000
    81 H36      6.5991   3.9859   8.1223   H         1 RES1   0.0000
    82 C33      5.7320  -1.5278   7.2389   C.3       1 RES1   0.0000
    83 H37      6.4866  -1.8707   7.7227   H         1 RES1   0.0000
    84 H38      5.5785  -2.0660   6.4601   H         1 RES1   0.0000
    85 H39      4.9545  -1.5495   7.8023   H         1 RES1   0.0000
    86 C34      6.2187   0.1201   5.4378   C.3       1 RES1   0.0000
    87 H40      5.4880   0.6424   5.0959   H         1 RES1   0.0000
    88 H41      6.2731  -0.7075   4.9555   H         1 RES1   0.0000
    89 H42      7.0391   0.6077   5.3301   H         1 RES1   0.0000
@<TRIPOS>BOND
     1     1     2    1
     2     2    14    2
     3     3     1    1
     4     4    36    2
     5     5    36    1
     6     6    48    2
     7     7    48    1
     8     8     1    1
     9     9     1    1
    10    10    60    1
    11    11     1    1
    12    12    77    1
    13    13     1    1
    14    14    15    1
    15    15    16    2
    16    16     8    1
    17    17    16    1
    18    18     8    1
    19    19    18   ar
    20    20    19    1
    21    21    19   ar
    22    22    21    1
    23    23    21   ar
    24    24    23    1
    25    25    23   ar
    26    26    25    1
    27    27    13    1
    28    28    13    1
    29    29    28    1
    30    30    28    2
    31    31     3    2
    32    32    14    1
    33    33    32    1
    34    34    32    1
    35    35    32    1
    36    36    15    1
    37    37     5    1
    38    38    37    1
    39    39    37    1
    40    40    37    1
    41    41    40    1
    42    42    40    1
    43    43    40    1
    44    44    31    1
    45    45    44    1
    46    46    44    1
    47    47    44    1
    48    48    30    1
    49    49     7    1
    50    50    49    1
    51    51    49    1
    52    52    49    1
    53    53    52    1
    54    54    52    1
    55    55    52    1
    56    56     9   ar
    57    57    56    1
    58    58    56   ar
    59    59    58    1
    60    60    58   ar
    61    61    60   ar
    62    62    61    1
    63    63     9   ar
    64    64    63    1
    65    65    10    1
    66    66    65    1
    67    67    65    1
    68    68    65    1
    69    69    10    1
    70    70    69    1
    71    71    69    1
    72    72    69    1
    73    73    11   ar
    74    74    73    1
    75    75    73   ar
    76    76    75    1
    77    77    75   ar
    78    78    77   ar
    79    79    78    1
    80    80    11   ar
    81    81    80    1
    82    82    12    1
    83    83    82    1
    84    84    82    1
    85    85    82    1
    86    86    12    1
    87    87    86    1
    88    88    86    1
    89    89    86    1
    90    18    27   ar
    91    25    27   ar
    92    30    31    1
    93    61    63   ar
    94    78    80   ar
@<TRIPOS>SUBSTRUCTURE
     1 RES1        1 GROUP             0 ****  ****    0  
@<TRIPOS>CRYSIN
   15.2180   14.4680   17.1380   90.0000  114.3960   90.0000    14     1
