@<TRIPOS>MOLECULE
FUSFIL
    75    80     3     0     0
SMALL
USER_CHARGES
****
Generated from the CSD

@<TRIPOS>ATOM
     1 Fe1      6.6442   6.2815   8.7610   Fe        1 RES1   2.0000
     2 N1       5.6308   5.5914  10.2942   N.ar      1 RES1   0.0000
     3 N2       5.3550   7.7376   8.4957   N.ar      1 RES1   0.0000
     4 N3       8.2463   5.1751   9.2979   N.3       1 RES1   0.0000
     5 H1       7.9971   4.3415   9.4826   H         1 RES1   0.0000
     6 H2       8.8402   5.1522   8.6361   H         1 RES1   0.0000
     7 N4       7.5744   7.6672   9.6589   N.2       1 RES1   0.0000
     8 N5       5.6951   4.8869   7.8912   N.2       1 RES1   0.0000
     9 N6       7.4457   6.5751   6.9301   N.3       1 RES1   0.0000
    10 H3       7.0565   7.2706   6.5345   H         1 RES1   0.0000
    11 H4       8.3160   6.7427   7.0007   H         1 RES1   0.0000
    12 C1       4.8691   4.5011   9.9993   C.ar      1 RES1   0.0000
    13 C2       4.8945   4.1331   8.5764   C.2       1 RES1   0.0000
    14 C3       7.0490   8.8501   9.7227   C.2       1 RES1   0.0000
    15 C4       4.0072   3.0587   8.0480   C.ar      1 RES1   0.0000
    16 C5       5.6209   6.0398  11.5724   C.ar      1 RES1   0.0000
    17 H5       6.1086   6.8034  11.7809   H         1 RES1   0.0000
    18 C6       4.1550   3.8091  10.9710   C.ar      1 RES1   0.0000
    19 H6       3.6595   3.0550  10.7471   H         1 RES1   0.0000
    20 C7       5.7538   8.9336   9.0316   C.ar      1 RES1   0.0000
    21 C8       7.6499  10.0028  10.4457   C.ar      1 RES1   0.0000
    22 C9       4.1649   7.6951   7.8708   C.ar      1 RES1   0.0000
    23 H7       3.8729   6.8851   7.5188   H         1 RES1   0.0000
    24 C10      4.1983   4.2667  12.2830   C.ar      1 RES1   0.0000
    25 H8       3.7470   3.8082  12.9547   H         1 RES1   0.0000
    26 C11      8.8553   7.3174  10.2903   C.3       1 RES1   0.0000
    27 H9       8.9498   7.7750  11.1404   H         1 RES1   0.0000
    28 H10      9.5958   7.5733   9.7181   H         1 RES1   0.0000
    29 C12      4.5203   1.8446   7.6153   C.ar      1 RES1   0.0000
    30 H11      5.4379   1.6915   7.6247   H         1 RES1   0.0000
    31 C13      4.9166   5.4096  12.5776   C.ar      1 RES1   0.0000
    32 H12      4.9267   5.7503  13.4433   H         1 RES1   0.0000
    33 C14      3.3609   8.8037   7.7307   C.ar      1 RES1   0.0000
    34 H13      2.5420   8.7344   7.2962   H         1 RES1   0.0000
    35 C15      5.8854   4.7605   6.4357   C.3       1 RES1   0.0000
    36 H14      5.1895   5.2421   5.9611   H         1 RES1   0.0000
    37 H15      5.8503   3.8274   6.1707   H         1 RES1   0.0000
    38 C16      2.6375   3.2743   8.0180   C.ar      1 RES1   0.0000
    39 H16      2.2907   4.0896   8.2994   H         1 RES1   0.0000
    40 C17      8.8393   5.8102  10.4964   C.3       1 RES1   0.0000
    41 H17      9.7439   5.4845  10.6294   H         1 RES1   0.0000
    42 H18      8.3154   5.5892  11.2817   H         1 RES1   0.0000
    43 C18      2.3017   1.0714   7.1455   C.ar      1 RES1   0.0000
    44 H19      1.7281   0.4031   6.8477   H         1 RES1   0.0000
    45 C19      8.8751  10.5180  10.0678   C.ar      1 RES1   0.0000
    46 H20      9.3204  10.1618   9.3331   H         1 RES1   0.0000
    47 C20      1.7844   2.2794   7.5682   C.ar      1 RES1   0.0000
    48 H21      0.8658   2.4252   7.5517   H         1 RES1   0.0000
    49 C21      7.2272   5.3411   6.1236   C.3       1 RES1   0.0000
    50 H22      7.9190   4.6917   6.3261   H         1 RES1   0.0000
    51 H23      7.2791   5.5544   5.1793   H         1 RES1   0.0000
    52 C22      4.9899  10.0851   8.9069   C.ar      1 RES1   0.0000
    53 H24      5.2835  10.8919   9.2660   H         1 RES1   0.0000
    54 C23      3.7689  10.0064   8.2334   C.ar      1 RES1   0.0000
    55 H25      3.2410  10.7642   8.1275   H         1 RES1   0.0000
    56 C24      3.6388   0.8508   7.1620   C.ar      1 RES1   0.0000
    57 H26      3.9753   0.0343   6.8712   H         1 RES1   0.0000
    58 C25      9.4447  11.5693  10.7825   C.ar      1 RES1   0.0000
    59 H27     10.2520  11.9345  10.5011   H         1 RES1   0.0000
    60 C26      8.8351  12.0602  11.8762   C.ar      1 RES1   0.0000
    61 H28      9.2460  12.7305  12.3743   H         1 RES1   0.0000
    62 C27      7.0065  10.5467  11.5372   C.ar      1 RES1   0.0000
    63 H29      6.1699  10.2270  11.7903   H         1 RES1   0.0000
    64 C28      7.6114  11.5773  12.2624   C.ar      1 RES1   0.0000
    65 H30      7.1834  11.9355  13.0054   H         1 RES1   0.0000
    66 Cl1      8.4324   1.5237   8.8929   Cl        2 RES2   0.0000
    67 O1       7.8248   0.3090   8.5148   O.2       2 RES2   0.0000
    68 O2       7.6884   2.2241   9.8865   O.2       2 RES2   0.0000
    69 O3       8.3695   2.3624   7.7378   O.3       2 RES2  -1.0000
    70 O4       9.7169   1.3140   9.2625   O.2       2 RES2   0.0000
    71 Cl2      6.9353   9.4363   4.4051   Cl        3 RES3   0.0000
    72 O5       6.0475   9.4028   5.4760   O.2       3 RES3   0.0000
    73 O6       7.7537  10.5506   4.3822   O.2       3 RES3   0.0000
    74 O7       6.2040   9.5118   3.2013   O.3       3 RES3  -1.0000
    75 O8       7.6243   8.2335   4.2398   O.2       3 RES3   0.0000
@<TRIPOS>BOND
     1     1     2    1
     2     2    12   ar
     3     3     1    1
     4     4     1    1
     5     5     4    1
     6     6     4    1
     7     7     1    1
     8     8     1    1
     9     9     1    1
    10    10     9    1
    11    11     9    1
    12    12    13    1
    13    13     8    2
    14    14     7    2
    15    15    13    1
    16    16     2   ar
    17    17    16    1
    18    18    12   ar
    19    19    18    1
    20    20     3   ar
    21    21    14    1
    22    22     3   ar
    23    23    22    1
    24    24    18   ar
    25    25    24    1
    26    26     7    1
    27    27    26    1
    28    28    26    1
    29    29    15   ar
    30    30    29    1
    31    31    16   ar
    32    32    31    1
    33    33    22   ar
    34    34    33    1
    35    35     8    1
    36    36    35    1
    37    37    35    1
    38    38    15   ar
    39    39    38    1
    40    40     4    1
    41    41    40    1
    42    42    40    1
    43    43    44    1
    44    45    21   ar
    45    46    45    1
    46    47    38   ar
    47    48    47    1
    48    49     9    1
    49    50    49    1
    50    51    49    1
    51    52    20   ar
    52    53    52    1
    53    54    33   ar
    54    55    54    1
    55    56    29   ar
    56    57    56    1
    57    58    45   ar
    58    59    58    1
    59    60    58   ar
    60    61    60    1
    61    62    21   ar
    62    63    62    1
    63    64    60   ar
    64    65    64    1
    65    14    20    1
    66    24    31   ar
    67    26    40    1
    68    35    49    1
    69    43    47   ar
    70    43    56   ar
    71    52    54   ar
    72    62    64   ar
    73    66    67    2
    74    68    66    2
    75    69    66    1
    76    70    66    2
    77    71    72    2
    78    73    71    2
    79    74    71    1
    80    75    71    2
@<TRIPOS>SUBSTRUCTURE
     1 RES1        1 GROUP             0 ****  ****    0  
     2 RES2       66 GROUP             0 ****  ****    0  
     3 RES3       71 GROUP             0 ****  ****    0  
@<TRIPOS>CRYSIN
   11.4312   12.5054   12.8166   67.0530   78.5550   69.1780     2     1
