@<TRIPOS>MOLECULE
FUSFOR
    79    84     3     0     0
SMALL
USER_CHARGES
****
Generated from the CSD

@<TRIPOS>ATOM
     1 Fe1      7.8154  10.1085   3.0724   Fe        1 RES1   2.0000
     2 N1       6.5494  11.5910   2.8240   N.ar      1 RES1   0.0000
     3 N2       8.7684  11.4776   3.9712   N.2       1 RES1   0.0000
     4 N3       6.8114   9.3674   4.5939   N.ar      1 RES1   0.0000
     5 N4       6.8639   8.7421   2.1678   N.2       1 RES1   0.0000
     6 N5       8.6120  10.4390   1.2427   N.3       1 RES1   0.0000
     7 H1       8.2072  11.1302   0.8535   H         1 RES1   0.0000
     8 H2       9.4795  10.6271   1.3168   H         1 RES1   0.0000
     9 N6       9.4164   8.9903   3.5788   N.3       1 RES1   0.0000
    10 C1       6.9865  12.7849   3.3295   C.ar      1 RES1   0.0000
    11 C2       5.2013   6.9072   2.2679   C.ar      1 RES1   0.0000
    12 C3       8.2840  12.6780   4.0103   C.2       1 RES1   0.0000
    13 C4       6.0878   7.9558   2.8346   C.2       1 RES1   0.0000
    14 C5       6.0775   8.2585   4.2642   C.ar      1 RES1   0.0000
    15 C6      10.0577  11.1154   4.5781   C.3       1 RES1   0.0000
    16 H3      10.1715  11.5707   5.4270   H         1 RES1   0.0000
    17 H4      10.7891  11.3644   3.9926   H         1 RES1   0.0000
    18 C7       5.3547  11.5800   2.2021   C.ar      1 RES1   0.0000
    19 H5       5.0317  10.7725   1.8740   H         1 RES1   0.0000
    20 C8       8.9490  13.8415   4.6569   C.ar      1 RES1   0.0000
    21 C9      10.0329   9.6186   4.7827   C.3       1 RES1   0.0000
    22 H6      10.9361   9.2861   4.9061   H         1 RES1   0.0000
    23 H7       9.5158   9.4008   5.5739   H         1 RES1   0.0000
    24 C10      6.8050   9.7610   5.8784   C.ar      1 RES1   0.0000
    25 H8       7.2604  10.5379   6.1112   H         1 RES1   0.0000
    26 C11      5.4017   7.5202   5.2212   C.ar      1 RES1   0.0000
    27 H9       4.9200   6.7618   4.9767   H         1 RES1   0.0000
    28 C12      5.4493   7.9195   6.5368   C.ar      1 RES1   0.0000
    29 H10      5.0148   7.4269   7.1952   H         1 RES1   0.0000
    30 C13      6.2596  13.9565   3.1685   C.ar      1 RES1   0.0000
    31 H11      6.5840  14.7611   3.5047   H         1 RES1   0.0000
    32 C14      7.0456   8.6563   0.7089   C.3       1 RES1   0.0000
    33 H12      6.3673   9.1767   0.2504   H         1 RES1   0.0000
    34 H13      6.9817   7.7348   0.4127   H         1 RES1   0.0000
    35 C15      6.1474   9.0552   6.8648   C.ar      1 RES1   0.0000
    36 H14      6.1769   9.3472   7.7478   H         1 RES1   0.0000
    37 C16      3.8812   7.2169   2.0222   C.ar      1 RES1   0.0000
    38 H15      3.5780   8.0843   2.1668   H         1 RES1   0.0000
    39 C17      8.4238   9.2098   0.4197   C.3       1 RES1   0.0000
    40 H16      9.1015   8.5524   0.6455   H         1 RES1   0.0000
    41 H17      8.5063   9.4243  -0.5220   H         1 RES1   0.0000
    42 C18      2.9987   6.2485   1.5613   C.ar      1 RES1   0.0000
    43 H18      2.1068   6.4624   1.4120   H         1 RES1   0.0000
    44 C19      5.6427   5.6208   2.0339   C.ar      1 RES1   0.0000
    45 H19      6.5322   5.3996   2.1927   H         1 RES1   0.0000
    46 C20      5.0538  13.9175   2.5077   C.ar      1 RES1   0.0000
    47 H20      4.5563  14.6929   2.3831   H         1 RES1   0.0000
    48 C21      3.4490   4.9748   1.3262   C.ar      1 RES1   0.0000
    49 H21      2.8623   4.3270   1.0087   H         1 RES1   0.0000
    50 C22     10.1649  14.2894   4.2160   C.ar      1 RES1   0.0000
    51 H22     10.5670  13.8803   3.4847   H         1 RES1   0.0000
    52 C23      4.5972  12.7026   2.0316   C.ar      1 RES1   0.0000
    53 H23      3.7772  12.6507   1.5966   H         1 RES1   0.0000
    54 C24      8.3534  14.4691   5.7397   C.ar      1 RES1   0.0000
    55 H24      7.5275  14.1778   6.0513   H         1 RES1   0.0000
    56 C25     10.2026  15.9611   5.9114   C.ar      1 RES1   0.0000
    57 H25     10.6228  16.6774   6.3323   H         1 RES1   0.0000
    58 C26      8.9942  15.5350   6.3593   C.ar      1 RES1   0.0000
    59 H26      8.5936  15.9575   7.0847   H         1 RES1   0.0000
    60 C27      4.7595   4.6538   1.5578   C.ar      1 RES1   0.0000
    61 H27      5.0609   3.7880   1.3979   H         1 RES1   0.0000
    62 C28     10.8080  15.3522   4.8497   C.ar      1 RES1   0.0000
    63 H28     11.6405  15.6426   4.5523   H         1 RES1   0.0000
    64 H29      9.8826   8.9672   2.8452   H         1 RES1   0.0000
    65 H30      9.2608   8.1522   3.6799   H         1 RES1   0.0000
    66 P1      10.0261   5.2849   2.7256   P.3       2 RES2  -1.0000
    67 F1       9.2230   6.0607   1.6201   F         2 RES2   0.0000
    68 F2      10.9960   4.6962   1.6330   F         2 RES2   0.0000
    69 F3       8.9773   5.8898   3.8198   F         2 RES2   0.0000
    70 F4      10.9370   6.5627   2.9380   F         2 RES2   0.0000
    71 F5       9.0936   4.0368   2.5254   F         2 RES2   0.0000
    72 F6      10.7872   4.5302   3.8845   F         2 RES2   0.0000
    73 P2       7.5157  13.2858  -1.2904   P.3       3 RES3  -1.0000
    74 F7       6.7835  12.0189  -0.6901   F         3 RES3   0.0000
    75 F8       8.1764  13.4694   0.1481   F         3 RES3   0.0000
    76 F9       8.7906  12.3461  -1.5931   F         3 RES3   0.0000
    77 F10      6.3558  14.1947  -0.8759   F         3 RES3   0.0000
    78 F11      6.8884  13.0564  -2.6735   F         3 RES3   0.0000
    79 F12      8.3484  14.4954  -1.8435   F         3 RES3   0.0000
@<TRIPOS>BOND
     1     1     2    1
     2     2    10   ar
     3     3     1    1
     4     4     1    1
     5     5     1    1
     6     6     1    1
     7     7     6    1
     8     8     6    1
     9     9     1    1
    10    10    12    1
    11    11    13    1
    12    12     3    2
    13    13     5    2
    14    14     4   ar
    15    15     3    1
    16    16    15    1
    17    17    15    1
    18    18     2   ar
    19    19    18    1
    20    20    12    1
    21    21     9    1
    22    22    21    1
    23    23    21    1
    24    24     4   ar
    25    25    24    1
    26    26    14   ar
    27    27    26    1
    28    28    26   ar
    29    29    28    1
    30    30    10   ar
    31    31    30    1
    32    32     5    1
    33    33    32    1
    34    34    32    1
    35    35    24   ar
    36    36    35    1
    37    37    11   ar
    38    38    37    1
    39    39     6    1
    40    40    39    1
    41    41    39    1
    42    42    37   ar
    43    43    42    1
    44    44    11   ar
    45    45    44    1
    46    46    30   ar
    47    47    46    1
    48    48    42   ar
    49    49    48    1
    50    50    20   ar
    51    51    50    1
    52    52    18   ar
    53    53    52    1
    54    54    20   ar
    55    55    54    1
    56    56    57    1
    57    58    54   ar
    58    59    58    1
    59    60    44   ar
    60    61    60    1
    61    62    50   ar
    62    63    62    1
    63    64     9    1
    64    65     9    1
    65    13    14    1
    66    15    21    1
    67    28    35   ar
    68    32    39    1
    69    46    52   ar
    70    48    60   ar
    71    56    58   ar
    72    56    62   ar
    73    66    67    1
    74    68    66    1
    75    69    66    1
    76    70    66    1
    77    71    66    1
    78    72    66    1
    79    73    74    1
    80    75    73    1
    81    76    73    1
    82    77    73    1
    83    78    73    1
    84    79    73    1
@<TRIPOS>SUBSTRUCTURE
     1 RES1        1 GROUP             0 ****  ****    0  
     2 RES2       66 GROUP             0 ****  ****    0  
     3 RES3       73 GROUP             0 ****  ****    0  
@<TRIPOS>CRYSIN
   11.8627   12.6978   12.9813   66.2040   75.1340   70.6450     2     1
