@<TRIPOS>MOLECULE
FUSWUO
    79    86     1     0     0
SMALL
NO_CHARGES
****
Generated from the CSD

@<TRIPOS>ATOM
     1 Fe1      2.2495  12.9106   2.3613   Fe        1 RES1   0.0000
     2 N1       2.6945  14.9968   2.8745   N.ar      1 RES1   0.0000
     3 C1       3.3462  15.8388   2.0616   C.ar      1 RES1   0.0000
     4 H1       3.4995  15.5736   1.1620   H         1 RES1   0.0000
     5 C2       3.8013  17.0663   2.4686   C.ar      1 RES1   0.0000
     6 H2       4.2446  17.6495   1.8639   H         1 RES1   0.0000
     7 C3       3.5950  17.4246   3.7833   C.ar      1 RES1   0.0000
     8 H3       3.9227  18.2584   4.1013   H         1 RES1   0.0000
     9 C4       2.9246  16.5955   4.6285   C.ar      1 RES1   0.0000
    10 H4       2.7767  16.8365   5.5351   H         1 RES1   0.0000
    11 C5       2.4637  15.3857   4.1256   C.ar      1 RES1   0.0000
    12 N2       1.7206  14.4715   4.8933   N.pl3     1 RES1   0.0000
    13 N3       1.5430  13.1957   4.3938   N.2       1 RES1   0.0000
    14 C6       0.8622  12.5418   5.2945   C.2       1 RES1   0.0000
    15 C7       0.5635  13.3564   6.3884   C.2       1 RES1   0.0000
    16 H5       0.0772  13.1058   7.1642   H         1 RES1   0.0000
    17 C8       1.1050  14.5839   6.1271   C.2       1 RES1   0.0000
    18 C9       0.4821  11.1022   5.1072   C.3       1 RES1   0.0000
    19 H6       1.2752  10.5865   4.8540   H         1 RES1   0.0000
    20 H7      -0.1927  11.0315   4.3996   H         1 RES1   0.0000
    21 H8       0.1161  10.7504   5.9455   H         1 RES1   0.0000
    22 C10      1.0379  15.8227   6.9607   C.3       1 RES1   0.0000
    23 H9       1.8992  15.9625   7.4070   H         1 RES1   0.0000
    24 H10      0.3324  15.7247   7.6337   H         1 RES1   0.0000
    25 H11      0.8395  16.5923   6.3872   H         1 RES1   0.0000
    26 S1       4.6986  11.6721   4.2040   S.o2      1 RES1   0.0000
    27 O1       4.0922  12.2076   2.9658   O.3       1 RES1   0.0000
    28 O2       3.7795  10.8452   4.9396   O.2       1 RES1   0.0000
    29 O3       5.9735  11.0765   3.9105   O.2       1 RES1   0.0000
    30 C11      5.0293  13.0876   5.1974   C.ar      1 RES1   0.0000
    31 C12      4.3564  13.3050   6.3930   C.ar      1 RES1   0.0000
    32 H12      3.7182  12.6720   6.7017   H         1 RES1   0.0000
    33 C13      4.6152  14.4490   7.1388   C.ar      1 RES1   0.0000
    34 H13      4.1545  14.5968   7.9563   H         1 RES1   0.0000
    35 C14      5.5477  15.3755   6.6890   C.ar      1 RES1   0.0000
    36 H14      5.7252  16.1569   7.1989   H         1 RES1   0.0000
    37 C15      6.2216  15.1591   5.4923   C.ar      1 RES1   0.0000
    38 H15      6.8597  15.7922   5.1847   H         1 RES1   0.0000
    39 C16      5.9628  14.0152   4.7465   C.ar      1 RES1   0.0000
    40 H16      6.4226  13.8657   3.9290   H         1 RES1   0.0000
    41 N4       0.1821  13.4014   1.7367   N.ar      1 RES1   0.0000
    42 C17     -0.2992  14.6594   1.6639   C.ar      1 RES1   0.0000
    43 H17      0.2832  15.3760   1.8836   H         1 RES1   0.0000
    44 C18     -1.5758  14.9535   1.2939   C.ar      1 RES1   0.0000
    45 H18     -1.8766  15.8532   1.2441   H         1 RES1   0.0000
    46 C19     -2.4109  13.9139   0.9944   C.ar      1 RES1   0.0000
    47 H19     -3.3057  14.0859   0.7284   H         1 RES1   0.0000
    48 C20     -1.9600  12.6270   1.0765   C.ar      1 RES1   0.0000
    49 H20     -2.5413  11.8991   0.8915   H         1 RES1   0.0000
    50 C21     -0.6287  12.4020   1.4384   C.ar      1 RES1   0.0000
    51 N5      -0.0495  11.1328   1.5066   N.pl3     1 RES1   0.0000
    52 N6       1.3185  11.0653   1.7101   N.2       1 RES1   0.0000
    53 C22      1.6437   9.7944   1.6211   C.2       1 RES1   0.0000
    54 C23      0.5027   9.0376   1.3725   C.2       1 RES1   0.0000
    55 H21      0.4739   8.0929   1.2719   H         1 RES1   0.0000
    56 C24     -0.5528   9.8699   1.2973   C.2       1 RES1   0.0000
    57 C25      3.0697   9.3541   1.7252   C.3       1 RES1   0.0000
    58 H22      3.6334   9.9422   1.1817   H         1 RES1   0.0000
    59 H23      3.1514   8.4319   1.4026   H         1 RES1   0.0000
    60 H24      3.3577   9.3991   2.6606   H         1 RES1   0.0000
    61 C26     -1.9970   9.5325   1.0534   C.3       1 RES1   0.0000
    62 H25     -2.1029   8.5588   1.0129   H         1 RES1   0.0000
    63 H26     -2.2862   9.9277   0.2047   H         1 RES1   0.0000
    64 H27     -2.5435   9.8908   1.7841   H         1 RES1   0.0000
    65 S2       3.2028  12.8696  -0.9346   S.o2      1 RES1   0.0000
    66 O4       2.9579  13.3387   0.4070   O.3       1 RES1   0.0000
    67 O5       3.6652  13.9123  -1.7564   O.2       1 RES1   0.0000
    68 O6       4.0219  11.7031  -0.9135   O.2       1 RES1   0.0000
    69 C27      1.6348  12.3667  -1.5506   C.ar      1 RES1   0.0000
    70 C28      0.6190  13.3130  -1.6130   C.ar      1 RES1   0.0000
    71 H28      0.7815  14.2031  -1.3239   H         1 RES1   0.0000
    72 C29     -0.6347  12.9563  -2.0975   C.ar      1 RES1   0.0000
    73 H29     -1.3287  13.6038  -2.1391   H         1 RES1   0.0000
    74 C30     -0.8717  11.6549  -2.5195   C.ar      1 RES1   0.0000
    75 H30     -1.7282  11.4107  -2.8502   H         1 RES1   0.0000
    76 C31      0.1441  10.7070  -2.4571   C.ar      1 RES1   0.0000
    77 H31     -0.0185   9.8169  -2.7461   H         1 RES1   0.0000
    78 C32      1.3969  11.0635  -1.9726   C.ar      1 RES1   0.0000
    79 H32      2.0917  10.4162  -1.9310   H         1 RES1   0.0000
@<TRIPOS>BOND
     1     1     2    1
     2     2     3   ar
     3     3     4    1
     4     5     3   ar
     5     6     5    1
     6     7     5   ar
     7     8     7    1
     8     9     7   ar
     9    10     9    1
    10    11     2   ar
    11    12    11    1
    12    13     1    1
    13    14    13    2
    14    15    14    1
    15    16    15    1
    16    17    12    1
    17    18    14    1
    18    19    18    1
    19    20    18    1
    20    21    18    1
    21    22    17    1
    22    23    22    1
    23    24    22    1
    24    25    22    1
    25    26    27    1
    26    27     1    1
    27    28    26    2
    28    29    26    2
    29    30    26    1
    30    31    30   ar
    31    32    31    1
    32    33    31   ar
    33    34    33    1
    34    35    33   ar
    35    36    35    1
    36    37    35   ar
    37    38    37    1
    38    39    30   ar
    39    40    39    1
    40    41     1    1
    41    42    41   ar
    42    43    42    1
    43    44    42   ar
    44    45    44    1
    45    46    44   ar
    46    47    46    1
    47    48    46   ar
    48    49    48    1
    49    50    41   ar
    50    51    50    1
    51    52     1    1
    52    53    52    2
    53    54    53    1
    54    55    54    1
    55    56    51    1
    56    57    53    1
    57    58    57    1
    58    59    57    1
    59    60    57    1
    60    61    56    1
    61    62    61    1
    62    63    61    1
    63    64    61    1
    64    65    66    1
    65    66     1    1
    66    67    65    2
    67    68    65    2
    68    69    65    1
    69    70    69   ar
    70    71    70    1
    71    72    70   ar
    72    73    72    1
    73    74    72   ar
    74    75    74    1
    75    76    74   ar
    76    77    76    1
    77    78    69   ar
    78    79    78    1
    79     9    11   ar
    80    12    13    1
    81    15    17    2
    82    37    39   ar
    83    48    50   ar
    84    51    52    1
    85    54    56    2
    86    76    78   ar
@<TRIPOS>SUBSTRUCTURE
     1 RES1        1 GROUP             0 ****  ****    0  
@<TRIPOS>CRYSIN
    8.7022   16.0669   11.6137   90.0000   95.3729   90.0000     4     1
