@<TRIPOS>MOLECULE
FUTVOI
    96   105     1     0     0
SMALL
USER_CHARGES
****
Generated from the CSD

@<TRIPOS>ATOM
     1 Fe1      7.1462   3.3451   7.7794   Fe        1 RES1   1.0000
     2 B1       7.3411   3.1372  10.9320   B         1 RES1  -1.0000
     3 H1       7.2975   3.1569  12.0316   H         1 RES1   0.0000
     4 S1       6.6537   4.6500   5.4226   S.o       1 RES1   0.0000
     5 O1       7.9756   4.6834   6.2070   O.2       1 RES1   0.0000
     6 O2       5.6150   4.0731   6.3987   O.3       1 RES1   0.0000
     7 N1       5.9413   2.1015   9.0986   N.2       1 RES1   0.0000
     8 N2       6.1763   2.2575  10.4472   N.pl3     1 RES1   0.0000
     9 N3       6.9700   4.9567   9.2380   N.2       1 RES1   0.0000
    10 N4       7.1036   4.6048  10.5488   N.pl3     1 RES1   0.0000
    11 N5       8.8386   2.6268   8.9607   N.2       1 RES1   0.0000
    12 N6       8.6598   2.6144  10.3136   N.pl3     1 RES1   0.0000
    13 N7       7.3639   1.7483   6.2448   N.3       1 RES1   0.0000
    14 H2       7.9313   1.1129   6.5654   H         1 RES1   0.0000
    15 H3       6.5534   1.3539   6.1191   H         1 RES1   0.0000
    16 C1       2.9020   2.7579   7.4714   C.3       1 RES1   0.0000
    17 H4       3.5625   3.4766   7.5572   H         1 RES1   0.0000
    18 H5       2.5282   2.5501   8.3527   H         1 RES1   0.0000
    19 H6       2.1824   3.0460   6.8709   H         1 RES1   0.0000
    20 C2       3.5591   1.5437   6.9111   C.ar      1 RES1   0.0000
    21 C3       3.2866   1.1443   5.5959   C.ar      1 RES1   0.0000
    22 H7       2.6661   1.6508   5.0848   H         1 RES1   0.0000
    23 C4       3.8775   0.0487   5.0182   C.ar      1 RES1   0.0000
    24 C5       3.6283  -0.3082   3.5637   C.3       1 RES1   0.0000
    25 H8       4.0642   0.3530   2.9858   H         1 RES1   0.0000
    26 H9       2.6639  -0.3089   3.3882   H         1 RES1   0.0000
    27 H10      3.9950  -1.1972   3.3773   H         1 RES1   0.0000
    28 C6       4.7169  -0.7637   5.8093   C.ar      1 RES1   0.0000
    29 H11      5.0937  -1.5546   5.4412   H         1 RES1   0.0000
    30 C7       5.0002  -0.4081   7.1317   C.ar      1 RES1   0.0000
    31 C8       5.9280  -1.2803   7.9490   C.3       1 RES1   0.0000
    32 H12      6.2205  -2.0428   7.4066   H         1 RES1   0.0000
    33 H13      5.4553  -1.6064   8.7427   H         1 RES1   0.0000
    34 H14      6.7088  -0.7570   8.2248   H         1 RES1   0.0000
    35 C9       4.4545   0.7799   7.6572   C.ar      1 RES1   0.0000
    36 C10      4.9140   1.2292   8.9898   C.2       1 RES1   0.0000
    37 C11      4.4772   0.8411  10.2759   C.2       1 RES1   0.0000
    38 H15      3.7633   0.2554  10.4949   H         1 RES1   0.0000
    39 C12      5.3139   1.4975  11.1367   C.2       1 RES1   0.0000
    40 H16      5.2895   1.4243  12.0830   H         1 RES1   0.0000
    41 C13      4.0144   6.4217   8.3264   C.3       1 RES1   0.0000
    42 H17      3.1526   6.5681   7.8824   H         1 RES1   0.0000
    43 H18      4.0011   6.8427   9.2112   H         1 RES1   0.0000
    44 H19      4.1717   5.4596   8.4245   H         1 RES1   0.0000
    45 C14      5.1136   7.0269   7.4990   C.ar      1 RES1   0.0000
    46 C15      4.8494   7.5660   6.2506   C.ar      1 RES1   0.0000
    47 H20      3.9542   7.5887   5.9343   H         1 RES1   0.0000
    48 C16      5.8634   8.0714   5.4522   C.ar      1 RES1   0.0000
    49 C17      5.5874   8.4732   4.0195   C.3       1 RES1   0.0000
    50 H21      6.2258   9.1662   3.7472   H         1 RES1   0.0000
    51 H22      4.6756   8.8235   3.9485   H         1 RES1   0.0000
    52 H23      5.6852   7.6923   3.4365   H         1 RES1   0.0000
    53 C18      7.1371   8.1413   5.9516   C.ar      1 RES1   0.0000
    54 H24      7.8229   8.5491   5.4351   H         1 RES1   0.0000
    55 C19      7.4434   7.6147   7.2275   C.ar      1 RES1   0.0000
    56 C20      8.8747   7.6546   7.7341   C.3       1 RES1   0.0000
    57 H25      9.2479   6.7477   7.7315   H         1 RES1   0.0000
    58 H26      8.8893   8.0106   8.6468   H         1 RES1   0.0000
    59 H27      9.4120   8.2297   7.1502   H         1 RES1   0.0000
    60 C21      6.4455   7.0194   7.9722   C.ar      1 RES1   0.0000
    61 C22      6.7417   6.2882   9.2293   C.2       1 RES1   0.0000
    62 C23      6.7392   6.7811  10.5386   C.2       1 RES1   0.0000
    63 H28      6.6055   7.6792  10.8197   H         1 RES1   0.0000
    64 C24      6.9746   5.6767  11.3341   C.2       1 RES1   0.0000
    65 H29      7.0346   5.6791  12.2821   H         1 RES1   0.0000
    66 C25     11.1837   4.4538   7.3974   C.3       1 RES1   0.0000
    67 H30     11.4646   5.1404   6.7568   H         1 RES1   0.0000
    68 H31     11.8451   4.3880   8.1170   H         1 RES1   0.0000
    69 H32     10.3126   4.6970   7.7752   H         1 RES1   0.0000
    70 C26     11.0720   3.1235   6.6919   C.ar      1 RES1   0.0000
    71 C27     11.5024   3.0224   5.3535   C.ar      1 RES1   0.0000
    72 H33     11.8651   3.7860   4.9200   H         1 RES1   0.0000
    73 C28     11.4024   1.8232   4.6582   C.ar      1 RES1   0.0000
    74 C29     11.7749   1.7371   3.1950   C.3       1 RES1   0.0000
    75 H34     11.7708   0.7984   2.9114   H         1 RES1   0.0000
    76 H35     12.6711   2.1127   3.0633   H         1 RES1   0.0000
    77 H36     11.1275   2.2422   2.6611   H         1 RES1   0.0000
    78 C30     10.9500   0.7038   5.3332   C.ar      1 RES1   0.0000
    79 H37     10.9124  -0.1271   4.8739   H         1 RES1   0.0000
    80 C31     10.5458   0.7550   6.6657   C.ar      1 RES1   0.0000
    81 C32     10.0911  -0.4979   7.3611   C.3       1 RES1   0.0000
    82 H38     10.0500  -1.2339   6.7161   H         1 RES1   0.0000
    83 H39      9.2008  -0.3521   7.7468   H         1 RES1   0.0000
    84 H40     10.7225  -0.7227   8.0754   H         1 RES1   0.0000
    85 C33     10.5715   1.9904   7.3248   C.ar      1 RES1   0.0000
    86 C34     10.0514   2.1027   8.7227   C.2       1 RES1   0.0000
    87 C35     10.6612   1.7408   9.9347   C.2       1 RES1   0.0000
    88 H41     11.5124   1.3385  10.0568   H         1 RES1   0.0000
    89 C36      9.7529   2.0990  10.9059   C.2       1 RES1   0.0000
    90 H42      9.8771   1.9990  11.8425   H         1 RES1   0.0000
    91 C37      7.8714   2.2163   4.9311   C.3       1 RES1   0.0000
    92 H43      7.9834   1.4422   4.3253   H         1 RES1   0.0000
    93 H44      8.7571   2.6422   5.0526   H         1 RES1   0.0000
    94 C38      6.9326   3.1934   4.3200   C.3       1 RES1   0.0000
    95 H45      6.0665   2.7475   4.1408   H         1 RES1   0.0000
    96 H46      7.3001   3.5034   3.4540   H         1 RES1   0.0000
@<TRIPOS>BOND
     1     1     5    1
     2     2     3    1
     3     4     5    2
     4     6     1    1
     5     7     1    1
     6     8     2    1
     7     9     1    1
     8    10     2    1
     9    11     1    1
    10    12     2    1
    11    13     1    1
    12    14    13    1
    13    15    13    1
    14    16    17    1
    15    18    16    1
    16    19    16    1
    17    20    16    1
    18    21    20   ar
    19    22    21    1
    20    23    21   ar
    21    24    23    1
    22    25    24    1
    23    26    24    1
    24    27    24    1
    25    28    23   ar
    26    29    28    1
    27    30    28   ar
    28    31    30    1
    29    32    31    1
    30    33    31    1
    31    34    31    1
    32    35    20   ar
    33    36     7    2
    34    37    36    1
    35    38    37    1
    36    39     8    1
    37    40    39    1
    38    41    42    1
    39    43    41    1
    40    44    41    1
    41    45    41    1
    42    46    45   ar
    43    47    46    1
    44    48    46   ar
    45    49    48    1
    46    50    49    1
    47    51    49    1
    48    52    49    1
    49    53    48   ar
    50    54    53    1
    51    55    53   ar
    52    56    55    1
    53    57    56    1
    54    58    56    1
    55    59    56    1
    56    60    45   ar
    57    61     9    2
    58    62    61    1
    59    63    62    1
    60    64    10    1
    61    65    64    1
    62    66    67    1
    63    68    66    1
    64    69    66    1
    65    70    66    1
    66    71    70   ar
    67    72    71    1
    68    73    71   ar
    69    74    73    1
    70    75    74    1
    71    76    74    1
    72    77    74    1
    73    78    73   ar
    74    79    78    1
    75    80    78   ar
    76    81    80    1
    77    82    81    1
    78    83    81    1
    79    84    81    1
    80    85    70   ar
    81    86    11    2
    82    87    86    1
    83    88    87    1
    84    89    12    1
    85    90    89    1
    86    91    13    1
    87    92    91    1
    88    93    91    1
    89    94     4    1
    90    95    94    1
    91    96    94    1
    92     4     6    1
    93     7     8    1
    94     9    10    1
    95    11    12    1
    96    30    35   ar
    97    35    36    1
    98    37    39    2
    99    55    60   ar
   100    60    61    1
   101    62    64    2
   102    80    85   ar
   103    85    86    1
   104    87    89    2
   105    91    94    1
@<TRIPOS>SUBSTRUCTURE
     1 RES1        1 GROUP             0 ****  ****    0  
@<TRIPOS>CRYSIN
   19.8113   12.4790   15.6828   90.0000  112.2410   90.0000     9     1
