@<TRIPOS>MOLECULE
FUXTUN
    99   112     1     0     0
SMALL
NO_CHARGES
****
Generated from the CSD

@<TRIPOS>ATOM
     1 Fe1      0.0000   0.0000   0.0000   Fe        1 RES1   0.0000
     2 N1       1.7443   0.9793  -0.0463   N.2       1 RES1   0.0000
     3 N2       0.5434  -0.8275   1.7402   N.2       1 RES1   0.0000
     4 N3      -0.7938   1.6326   0.9236   N.ar      1 RES1   0.0000
     5 C1       3.7708   1.9354   0.5583   C.2       1 RES1   0.0000
     6 C2       3.3869   2.5257  -0.6045   C.2       1 RES1   0.0000
     7 C3       1.8238  -1.6204   3.5115   C.2       1 RES1   0.0000
     8 C4       0.6639  -2.3303   3.5082   C.2       1 RES1   0.0000
     9 C5       1.3842   2.3368  -2.0808   C.2       1 RES1   0.0000
    10 C6       2.7712   0.1983   2.0720   C.2       1 RES1   0.0000
    11 C7       2.7508   0.9689   0.9005   C.2       1 RES1   0.0000
    12 C8       2.1171   1.9369  -0.9663   C.2       1 RES1   0.0000
    13 C9       1.7390  -0.6833   2.4176   C.2       1 RES1   0.0000
    14 C10     -0.1297  -1.8252   2.4146   C.2       1 RES1   0.0000
    15 C11      1.9536   3.4044  -2.9517   C.ar      1 RES1   0.0000
    16 C12      2.4782   3.1050  -4.2130   C.ar      1 RES1   0.0000
    17 C13      2.9835   4.1195  -5.0335   C.ar      1 RES1   0.0000
    18 C14      2.9671   5.4435  -4.5932   C.ar      1 RES1   0.0000
    19 C15      2.4679   5.7460  -3.3323   C.ar      1 RES1   0.0000
    20 C16      1.9627   4.7322  -2.5195   C.ar      1 RES1   0.0000
    21 C17      3.8905   0.4019   3.0315   C.ar      1 RES1   0.0000
    22 C18      5.2287   0.2422   2.6582   C.ar      1 RES1   0.0000
    23 C19      6.2575   0.5702   3.5377   C.ar      1 RES1   0.0000
    24 C20      5.9636   1.0708   4.8062   C.ar      1 RES1   0.0000
    25 C21      4.6328   1.2002   5.2039   C.ar      1 RES1   0.0000
    26 C22      3.6079   0.8580   4.3288   C.ar      1 RES1   0.0000
    27 C23     -1.9340   2.2001   0.4829   C.ar      1 RES1   0.0000
    28 C24     -2.4029   3.4231   0.9484   C.ar      1 RES1   0.0000
    29 C25     -1.6870   4.0974   1.9339   C.ar      1 RES1   0.0000
    30 C26     -0.5342   3.4969   2.4233   C.ar      1 RES1   0.0000
    31 C27     -0.1237   2.2769   1.9000   C.ar      1 RES1   0.0000
    32 H1       4.5739   2.0968   1.1035   H         1 RES1   0.0000
    33 H2       3.8300   3.2371  -1.1472   H         1 RES1   0.0000
    34 H3       2.6271  -1.7222   4.0862   H         1 RES1   0.0000
    35 H4       0.3842  -3.0542   4.0862   H         1 RES1   0.0000
    36 H5       2.4990   2.1611  -4.5232   H         1 RES1   0.0000
    37 H6       3.3443   3.8809  -5.9217   H         1 RES1   0.0000
    38 H7       3.3156   6.2287  -5.2225   H         1 RES1   0.0000
    39 H8       2.4157   6.6769  -3.0046   H         1 RES1   0.0000
    40 H9       1.5844   4.9452  -1.6279   H         1 RES1   0.0000
    41 H10      5.4423  -0.1081   1.7700   H         1 RES1   0.0000
    42 H11      7.2212   0.4289   3.2122   H         1 RES1   0.0000
    43 H12      6.6802   1.3436   5.4956   H         1 RES1   0.0000
    44 H13      4.4099   1.5362   6.0856   H         1 RES1   0.0000
    45 H14      2.6341   0.9677   4.6216   H         1 RES1   0.0000
    46 H15     -2.4325   1.6953  -0.2513   H         1 RES1   0.0000
    47 H16     -3.2143   3.8201   0.5244   H         1 RES1   0.0000
    48 H17     -2.0096   4.9794   2.2835   H         1 RES1   0.0000
    49 H18      0.0071   3.9251   3.1029   H         1 RES1   0.0000
    50 H19      0.7195   1.8313   2.2398   H         1 RES1   0.0000
    51 N1A     -1.7443  -0.9793   0.0463   N.2       1 RES1   0.0000
    52 N2A     -0.5434   0.8275  -1.7402   N.2       1 RES1   0.0000
    53 N3A      0.7938  -1.6326  -0.9236   N.ar      1 RES1   0.0000
    54 C10A     0.1297   1.8252  -2.4146   C.2       1 RES1   0.0000
    55 C5A     -1.3842  -2.3368   2.0808   C.2       1 RES1   0.0000
    56 C7A     -2.7508  -0.9689  -0.9005   C.2       1 RES1   0.0000
    57 C8A     -2.1171  -1.9369   0.9663   C.2       1 RES1   0.0000
    58 C9A     -1.7390   0.6833  -2.4176   C.2       1 RES1   0.0000
    59 C23A     1.9340  -2.2001  -0.4829   C.ar      1 RES1   0.0000
    60 C27A     0.1237  -2.2769  -1.9000   C.ar      1 RES1   0.0000
    61 C4A     -0.6639   2.3303  -3.5082   C.2       1 RES1   0.0000
    62 C11A    -1.9536  -3.4044   2.9517   C.ar      1 RES1   0.0000
    63 C1A     -3.7708  -1.9354  -0.5583   C.2       1 RES1   0.0000
    64 C6A     -2.7712  -0.1983  -2.0720   C.2       1 RES1   0.0000
    65 C2A     -3.3869  -2.5257   0.6045   C.2       1 RES1   0.0000
    66 C3A     -1.8238   1.6204  -3.5115   C.2       1 RES1   0.0000
    67 C24A     2.4029  -3.4231  -0.9484   C.ar      1 RES1   0.0000
    68 H15A     2.4325  -1.6953   0.2513   H         1 RES1   0.0000
    69 C26A     0.5342  -3.4969  -2.4233   C.ar      1 RES1   0.0000
    70 H19A    -0.7195  -1.8313  -2.2398   H         1 RES1   0.0000
    71 H4A     -0.3842   3.0542  -4.0862   H         1 RES1   0.0000
    72 C12A    -2.4782  -3.1050   4.2130   C.ar      1 RES1   0.0000
    73 C16A    -1.9627  -4.7322   2.5195   C.ar      1 RES1   0.0000
    74 H1A     -4.5739  -2.0968  -1.1035   H         1 RES1   0.0000
    75 C17A    -3.8905  -0.4019  -3.0315   C.ar      1 RES1   0.0000
    76 H2A     -3.8300  -3.2371   1.1472   H         1 RES1   0.0000
    77 H3A     -2.6271   1.7222  -4.0862   H         1 RES1   0.0000
    78 C25A     1.6870  -4.0974  -1.9339   C.ar      1 RES1   0.0000
    79 H16A     3.2143  -3.8201  -0.5244   H         1 RES1   0.0000
    80 H18A    -0.0071  -3.9251  -3.1029   H         1 RES1   0.0000
    81 C13A    -2.9835  -4.1195   5.0335   C.ar      1 RES1   0.0000
    82 H5A     -2.4990  -2.1611   4.5232   H         1 RES1   0.0000
    83 C15A    -2.4679  -5.7460   3.3323   C.ar      1 RES1   0.0000
    84 H9A     -1.5844  -4.9452   1.6279   H         1 RES1   0.0000
    85 C18A    -5.2287  -0.2422  -2.6582   C.ar      1 RES1   0.0000
    86 C22A    -3.6079  -0.8580  -4.3288   C.ar      1 RES1   0.0000
    87 H17A     2.0096  -4.9794  -2.2835   H         1 RES1   0.0000
    88 C14A    -2.9671  -5.4435   4.5932   C.ar      1 RES1   0.0000
    89 H6A     -3.3443  -3.8809   5.9217   H         1 RES1   0.0000
    90 H8A     -2.4157  -6.6769   3.0046   H         1 RES1   0.0000
    91 C19A    -6.2575  -0.5702  -3.5377   C.ar      1 RES1   0.0000
    92 H10A    -5.4423   0.1081  -1.7700   H         1 RES1   0.0000
    93 C21A    -4.6328  -1.2002  -5.2039   C.ar      1 RES1   0.0000
    94 H14A    -2.6341  -0.9677  -4.6216   H         1 RES1   0.0000
    95 H7A     -3.3156  -6.2287   5.2225   H         1 RES1   0.0000
    96 C20A    -5.9636  -1.0708  -4.8062   C.ar      1 RES1   0.0000
    97 H11A    -7.2212  -0.4289  -3.2122   H         1 RES1   0.0000
    98 H13A    -4.4099  -1.5362  -6.0856   H         1 RES1   0.0000
    99 H12A    -6.6802  -1.3436  -5.4956   H         1 RES1   0.0000
@<TRIPOS>BOND
     1     1     2    1
     2     2    11    1
     3     3     1    1
     4     4     1    1
     5     5     6    2
     6     6    12    1
     7     7     8    1
     8     8    14    2
     9     9    12    1
    10    10    11    2
    11    11     5    1
    12    12     2    2
    13    13     3    1
    14    14     3    1
    15    15     9    1
    16    16    15   ar
    17    17    16   ar
    18    18    17   ar
    19    19    18   ar
    20    20    15   ar
    21    21    10    1
    22    22    21   ar
    23    23    22   ar
    24    24    23   ar
    25    25    24   ar
    26    26    21   ar
    27    27     4   ar
    28    28    27   ar
    29    29    28   ar
    30    30    29   ar
    31    31     4   ar
    32    32     5    1
    33    33     6    1
    34    34     7    1
    35    35     8    1
    36    36    16    1
    37    37    17    1
    38    38    18    1
    39    39    19    1
    40    40    20    1
    41    41    22    1
    42    42    23    1
    43    43    24    1
    44    44    25    1
    45    45    26    1
    46    46    27    1
    47    47    28    1
    48    48    29    1
    49    49    30    1
    50    50    31    1
    51    51     1    1
    52    52     1    1
    53    53     1    1
    54    54     9    2
    55    55    14    1
    56    56    51    2
    57    57    51    1
    58    58    52    1
    59    59    53   ar
    60    60    53   ar
    61    61    54    1
    62    62    55    1
    63    63    56    1
    64    64    56    1
    65    65    57    1
    66    66    58    1
    67    67    59   ar
    68    68    59    1
    69    69    60   ar
    70    70    60    1
    71    71    61    1
    72    72    62   ar
    73    73    62   ar
    74    74    63    1
    75    75    64    1
    76    76    65    1
    77    77    66    1
    78    78    67   ar
    79    79    67    1
    80    80    69    1
    81    81    72   ar
    82    82    72    1
    83    83    73   ar
    84    84    73    1
    85    85    75   ar
    86    86    75   ar
    87    87    78    1
    88    88    81   ar
    89    89    81    1
    90    90    83    1
    91    91    85   ar
    92    92    85    1
    93    93    86   ar
    94    94    86    1
    95    95    88    1
    96    96    91   ar
    97    97    91    1
    98    98    93    1
    99    99    96    1
   100     7    13    2
   101    10    13    1
   102    19    20   ar
   103    25    26   ar
   104    30    31   ar
   105    52    54    1
   106    55    57    2
   107    58    64    2
   108    61    66    2
   109    63    65    2
   110    69    78   ar
   111    83    88   ar
   112    93    96   ar
@<TRIPOS>SUBSTRUCTURE
     1 RES1        1 GROUP             0 ****  ****    0  
@<TRIPOS>CRYSIN
    9.4230   10.5600   11.9980  101.7000  104.9600  111.9500     2     1
