@<TRIPOS>MOLECULE
GABJOK
   112   122     4     0     0
SMALL
USER_CHARGES
****
Generated from the CSD

@<TRIPOS>ATOM
     1 Fe1      9.6709  15.7026   1.3874   Fe        1 RES1   2.0000
     2 N1       8.5755  14.7132  -0.0756   N.3       1 RES1   0.0000
     3 H1       9.0647  14.0277  -0.3807   H         1 RES1   0.0000
     4 N2       6.2457  14.9058  -0.1636   N.3       1 RES1   0.0000
     5 H2       5.4565  14.4993  -0.0926   H         1 RES1   0.0000
     6 N3       8.1981  15.2460   2.4717   N.ar      1 RES1   0.0000
     7 N4      10.2379  16.5970   3.0417   N.ar      1 RES1   0.0000
     8 C1       9.6878  14.1765  -2.8763   C.ar      1 RES1   0.0000
     9 H3       9.6048  13.4011  -2.3331   H         1 RES1   0.0000
    10 C2      10.4493  14.1268  -4.0416   C.ar      1 RES1   0.0000
    11 H4      10.8810  13.3163  -4.2880   H         1 RES1   0.0000
    12 C3      10.5799  15.2442  -4.8429   C.ar      1 RES1   0.0000
    13 H5      11.0923  15.2011  -5.6411   H         1 RES1   0.0000
    14 C4       9.9645  16.4208  -4.4773   C.ar      1 RES1   0.0000
    15 H6      10.0597  17.1929  -5.0211   H         1 RES1   0.0000
    16 C5       9.2064  16.4816  -3.3165   C.ar      1 RES1   0.0000
    17 H7       8.7891  17.2985  -3.0688   H         1 RES1   0.0000
    18 C6       9.0514  15.3493  -2.5034   C.ar      1 RES1   0.0000
    19 C7       8.1516  15.4706  -1.3062   C.3       1 RES1   0.0000
    20 H8       8.1195  16.4384  -1.0598   H         1 RES1   0.0000
    21 C8       6.7061  15.0190  -1.5472   C.3       1 RES1   0.0000
    22 H9       6.6851  14.1284  -2.0012   H         1 RES1   0.0000
    23 C9       5.9468  16.0432  -2.3488   C.ar      1 RES1   0.0000
    24 C10      5.5772  17.2601  -1.7687   C.ar      1 RES1   0.0000
    25 H10      5.7033  17.4008  -0.8386   H         1 RES1   0.0000
    26 C11      5.0271  18.2640  -2.5515   C.ar      1 RES1   0.0000
    27 H11      4.7836  19.0953  -2.1582   H         1 RES1   0.0000
    28 C12      4.8301  18.0530  -3.9143   C.ar      1 RES1   0.0000
    29 H12      4.4715  18.7484  -4.4527   H         1 RES1   0.0000
    30 C13      5.1510  16.8556  -4.4771   C.ar      1 RES1   0.0000
    31 H13      4.9861  16.7038  -5.3993   H         1 RES1   0.0000
    32 C14      5.7199  15.8517  -3.6961   C.ar      1 RES1   0.0000
    33 H14      5.9557  15.0236  -4.0977   H         1 RES1   0.0000
    34 C15      7.2938  14.1821   0.5312   C.3       1 RES1   0.0000
    35 H15      7.2097  13.2012   0.3524   H         1 RES1   0.0000
    36 C16      7.2274  14.4465   2.0126   C.ar      1 RES1   0.0000
    37 C17      6.2501  13.9387   2.8481   C.ar      1 RES1   0.0000
    38 H16      5.5816  13.3515   2.5157   H         1 RES1   0.0000
    39 C18      6.2711  14.3107   4.1890   C.ar      1 RES1   0.0000
    40 H17      5.6137  13.9718   4.7845   H         1 RES1   0.0000
    41 C19      7.2429  15.1680   4.6528   C.ar      1 RES1   0.0000
    42 H18      7.2518  15.4393   5.5639   H         1 RES1   0.0000
    43 C20      8.2080  15.6286   3.7741   C.ar      1 RES1   0.0000
    44 C21      9.3558  16.4939   4.0768   C.ar      1 RES1   0.0000
    45 C22      9.5572  17.1448   5.2840   C.ar      1 RES1   0.0000
    46 H19      8.9252  17.0619   5.9883   H         1 RES1   0.0000
    47 C23     10.6928  17.9155   5.4484   C.ar      1 RES1   0.0000
    48 H20     10.8566  18.3599   6.2713   H         1 RES1   0.0000
    49 C24     11.5893  18.0346   4.4012   C.ar      1 RES1   0.0000
    50 H21     12.3707  18.5677   4.4912   H         1 RES1   0.0000
    51 C25     11.3259  17.3603   3.2156   C.ar      1 RES1   0.0000
    52 H22     11.9424  17.4439   2.4977   H         1 RES1   0.0000
    53 N5      10.7149  13.9638   1.7816   N.3       1 RES1   0.0000
    54 H23     10.2379  13.3227   1.4251   H         1 RES1   0.0000
    55 N6      13.0337  14.0574   2.0185   N.3       1 RES1   0.0000
    56 H24     13.8018  13.7639   1.7312   H         1 RES1   0.0000
    57 N7      11.1278  16.0389   0.2328   N.ar      1 RES1   0.0000
    58 N8       9.1278  17.4674   0.7501   N.ar      1 RES1   0.0000
    59 C26      9.6801  11.5748   3.3864   C.ar      1 RES1   0.0000
    60 H25      9.9147  11.3405   2.4951   H         1 RES1   0.0000
    61 C27      8.8433  10.7426   4.1180   C.ar      1 RES1   0.0000
    62 H26      8.5035   9.9497   3.7221   H         1 RES1   0.0000
    63 C28      8.5002  11.0623   5.4216   C.ar      1 RES1   0.0000
    64 H27      7.9269  10.4900   5.9189   H         1 RES1   0.0000
    65 C29      8.9983  12.2181   5.9914   C.ar      1 RES1   0.0000
    66 H28      8.7614  12.4483   6.8809   H         1 RES1   0.0000
    67 C30      9.8461  13.0447   5.2619   C.ar      1 RES1   0.0000
    68 H29     10.2036  13.8247   5.6693   H         1 RES1   0.0000
    69 C31     10.1770  12.7434   3.9431   C.ar      1 RES1   0.0000
    70 C32     11.1045  13.6707   3.2100   C.3       1 RES1   0.0000
    71 H30     11.1090  14.5409   3.7041   H         1 RES1   0.0000
    72 C33     12.5677  13.1955   3.1027   C.3       1 RES1   0.0000
    73 H31     12.5965  12.2373   2.8167   H         1 RES1   0.0000
    74 C34     13.3137  13.3701   4.3948   C.ar      1 RES1   0.0000
    75 C35     13.6181  12.2756   5.1819   C.ar      1 RES1   0.0000
    76 H32     13.3945  11.4012   4.8848   H         1 RES1   0.0000
    77 C36     14.2534  12.4499   6.4135   C.ar      1 RES1   0.0000
    78 H33     14.4637  11.6938   6.9504   H         1 RES1   0.0000
    79 C37     14.5732  13.7160   6.8523   C.ar      1 RES1   0.0000
    80 H34     14.9960  13.8343   7.6963   H         1 RES1   0.0000
    81 C38     14.2799  14.8174   6.0629   C.ar      1 RES1   0.0000
    82 H35     14.5090  15.6887   6.3639   H         1 RES1   0.0000
    83 C39     13.6524  14.6516   4.8364   C.ar      1 RES1   0.0000
    84 H36     13.4532  15.4089   4.2983   H         1 RES1   0.0000
    85 C40     12.0010  13.9510   1.0047   C.3       1 RES1   0.0000
    86 H37     12.0940  13.0861   0.5093   H         1 RES1   0.0000
    87 C41     12.0752  15.1079   0.0414   C.ar      1 RES1   0.0000
    88 C42     13.0204  15.2454  -0.9469   C.ar      1 RES1   0.0000
    89 H38     13.6823  14.5760  -1.0752   H         1 RES1   0.0000
    90 C43     12.9960  16.3831  -1.7618   C.ar      1 RES1   0.0000
    91 H39     13.6480  16.5007  -2.4437   H         1 RES1   0.0000
    92 C44     12.0110  17.3363  -1.5642   C.ar      1 RES1   0.0000
    93 H40     11.9711  18.1089  -2.1170   H         1 RES1   0.0000
    94 C45     11.0813  17.1495  -0.5474   C.ar      1 RES1   0.0000
    95 C46      9.9479  18.0009  -0.1924   C.ar      1 RES1   0.0000
    96 C47      9.6911  19.2459  -0.7673   C.ar      1 RES1   0.0000
    97 H41     10.2689  19.6004  -1.4328   H         1 RES1   0.0000
    98 C48      8.5777  19.9561  -0.3480   C.ar      1 RES1   0.0000
    99 H42      8.3785  20.8058  -0.7254   H         1 RES1   0.0000
   100 C49      7.7675  19.4177   0.6163   C.ar      1 RES1   0.0000
   101 H43      7.0027  19.8962   0.9157   H         1 RES1   0.0000
   102 C50      8.0653  18.1698   1.1557   C.ar      1 RES1   0.0000
   103 H44      7.4997  17.8084   1.8289   H         1 RES1   0.0000
   104 Cl1     15.1920  12.3591   0.2333   Cl        2 RES2  -1.0000
   105 P1      16.1257  18.7883   4.1051   P.3       3 RES3  -1.0000
   106 F1      16.0862  19.4781   5.5420   F         3 RES3   0.0000
   107 F2      16.9484  20.0436   3.5464   F         3 RES3   0.0000
   108 F3      16.1825  18.1655   2.6428   F         3 RES3   0.0000
   109 F4      15.2960  17.5662   4.6649   F         3 RES3   0.0000
   110 F5      14.7658  19.5239   3.7175   F         3 RES3   0.0000
   111 F6      17.4919  18.0942   4.4941   F         3 RES3   0.0000
   112 O1      14.0497  16.8221   1.6463   O.3       4 RES4   0.0000
@<TRIPOS>BOND
     1     1     2    1
     2     2     3    1
     3     4     5    1
     4     6     1    1
     5     7     1    1
     6     8     9    1
     7    10     8   ar
     8    11    10    1
     9    12    10   ar
    10    13    12    1
    11    14    12   ar
    12    15    14    1
    13    16    14   ar
    14    17    16    1
    15    18     8   ar
    16    19     2    1
    17    20    19    1
    18    21     4    1
    19    22    21    1
    20    23    21    1
    21    24    23   ar
    22    25    24    1
    23    26    24   ar
    24    27    26    1
    25    28    26   ar
    26    29    28    1
    27    30    28   ar
    28    31    30    1
    29    32    23   ar
    30    33    32    1
    31    34     2    1
    32    35    34    1
    33    36     6   ar
    34    37    36   ar
    35    38    37    1
    36    39    37   ar
    37    40    39    1
    38    41    39   ar
    39    42    41    1
    40    43     6   ar
    41    44     7   ar
    42    45    44   ar
    43    46    45    1
    44    47    45   ar
    45    48    47    1
    46    49    47   ar
    47    50    49    1
    48    51     7   ar
    49    52    51    1
    50    53     1    1
    51    54    53    1
    52    55    56    1
    53    57     1    1
    54    58     1    1
    55    59    60    1
    56    61    59   ar
    57    62    61    1
    58    63    61   ar
    59    64    63    1
    60    65    63   ar
    61    66    65    1
    62    67    65   ar
    63    68    67    1
    64    69    59   ar
    65    70    53    1
    66    71    70    1
    67    72    55    1
    68    73    72    1
    69    74    72    1
    70    75    74   ar
    71    76    75    1
    72    77    75   ar
    73    78    77    1
    74    79    77   ar
    75    80    79    1
    76    81    79   ar
    77    82    81    1
    78    83    74   ar
    79    84    83    1
    80    85    53    1
    81    86    85    1
    82    87    57   ar
    83    88    87   ar
    84    89    88    1
    85    90    88   ar
    86    91    90    1
    87    92    90   ar
    88    93    92    1
    89    94    57   ar
    90    95    58   ar
    91    96    95   ar
    92    97    96    1
    93    98    96   ar
    94    99    98    1
    95   100    98   ar
    96   101   100    1
    97   102    58   ar
    98   103   102    1
    99     4    34    1
   100    16    18   ar
   101    18    19    1
   102    19    21    1
   103    30    32   ar
   104    34    36    1
   105    41    43   ar
   106    43    44    1
   107    49    51   ar
   108    55    85    1
   109    67    69   ar
   110    69    70    1
   111    70    72    1
   112    81    83   ar
   113    85    87    1
   114    92    94   ar
   115    94    95    1
   116   100   102   ar
   117   105   106    1
   118   107   105    1
   119   108   105    1
   120   109   105    1
   121   110   105    1
   122   111   105    1
@<TRIPOS>SUBSTRUCTURE
     1 RES1        1 GROUP             0 ****  ****    0  
     2 RES2      104 GROUP             0 ****  ****    0  
     3 RES3      105 GROUP             0 ****  ****    0  
     4 RES4      112 GROUP             0 ****  ****    0  
@<TRIPOS>CRYSIN
   11.0680   15.9860   25.7230   90.0000   90.0000   90.0000    19     1
