@<TRIPOS>MOLECULE
GABYEP
    86    96     2     0     0
SMALL
USER_CHARGES
****
Generated from the CSD

@<TRIPOS>ATOM
     1 Fe1     -0.0426   3.2804   8.1062   Fe        1 RES1  -1.0000
     2 C1      -3.0297   3.0354   7.3299   C.2       1 RES1   0.0000
     3 H1      -3.3729   2.7443   8.1675   H         1 RES1   0.0000
     4 C2      -1.7041   2.5104   6.9906   C.2       1 RES1   0.0000
     5 H2      -1.5069   1.6553   7.3576   H         1 RES1   0.0000
     6 C3      -0.6765   3.0719   6.2069   C.2       1 RES1   0.0000
     7 H3      -0.2041   2.5287   5.5869   H         1 RES1   0.0000
     8 C4      -0.3434   4.4435   6.3390   C.2       1 RES1   0.0000
     9 H4       0.5691   4.6920   6.4260   H         1 RES1   0.0000
    10 C5      -1.4406   5.5556   6.3426   C.2       1 RES1   0.0000
    11 H5      -1.4424   6.2986   6.9344   H         1 RES1   0.0000
    12 C6      -2.5018   5.3083   5.2892   C.2       1 RES1   0.0000
    13 H6      -2.3936   5.7383   4.4486   H         1 RES1   0.0000
    14 C7      -3.5267   4.5665   5.4434   C.2       1 RES1   0.0000
    15 H7      -4.1273   4.4788   4.7113   H         1 RES1   0.0000
    16 C8      -3.8303   3.8588   6.6496   C.2       1 RES1   0.0000
    17 H8      -4.7015   3.9891   7.0073   H         1 RES1   0.0000
    18 C9       1.7146   3.3143   7.9878   C.1       1 RES1   0.0000
    19 C10     -0.1531   1.8283   9.0894   C.1       1 RES1   0.0000
    20 C11     -0.6203   4.4946   9.2423   C.1       1 RES1   0.0000
    21 O1       2.8806   3.3204   7.9459   O.2       1 RES1   0.0000
    22 O2      -0.2972   0.8587   9.7215   O.2       1 RES1   0.0000
    23 O3      -0.9565   5.2900  10.0260   O.2       1 RES1   0.0000
    24 K1       5.4931   3.0850   1.8561   K         2 RES2   1.0000
    25 N1       2.8376   3.0931   3.1520   N.3       2 RES2   0.0000
    26 N2       8.1298   3.1459   0.5166   N.3       2 RES2   0.0000
    27 O4       3.3072   1.7491   0.5689   O.3       2 RES2   0.0000
    28 O5       5.6655   2.2941  -0.8447   O.3       2 RES2   0.0000
    29 O6       5.1998   1.8367   4.3343   O.3       2 RES2   0.0000
    30 O7       7.5133   1.3605   2.8197   O.3       2 RES2   0.0000
    31 O8       4.2218   5.6005   2.5074   O.3       2 RES2   0.0000
    32 O9       6.9103   5.5178   1.7233   O.3       2 RES2   0.0000
    33 C12      2.0099   2.0342   2.5602   C.3       2 RES2   0.0000
    34 H9       1.0810   2.1389   2.8847   H         2 RES2   0.0000
    35 H10      2.3413   1.1572   2.8774   H         2 RES2   0.0000
    36 C13      1.9954   2.0293   1.0515   C.3       2 RES2   0.0000
    37 H11      1.3636   1.3423   0.7248   H         2 RES2   0.0000
    38 H12      1.6963   2.9112   0.7151   H         2 RES2   0.0000
    39 C14      3.3436   1.7881  -0.8491   C.3       2 RES2   0.0000
    40 H13      3.1393   2.7041  -1.1626   H         2 RES2   0.0000
    41 H14      2.6577   1.1754  -1.2161   H         2 RES2   0.0000
    42 C15      4.6904   1.3813  -1.3324   C.3       2 RES2   0.0000
    43 H15      4.8987   0.4665  -1.0143   H         2 RES2   0.0000
    44 H16      4.7037   1.3740  -2.3228   H         2 RES2   0.0000
    45 C16      6.9644   1.9927  -1.3769   C.3       2 RES2   0.0000
    46 H17      6.9225   1.9538  -2.3642   H         2 RES2   0.0000
    47 H18      7.2690   1.1121  -1.0434   H         2 RES2   0.0000
    48 C17      7.9266   3.0610  -0.9500   C.3       2 RES2   0.0000
    49 H19      8.8016   2.8917  -1.3815   H         2 RES2   0.0000
    50 H20      7.5968   3.9356  -1.2769   H         2 RES2   0.0000
    51 C18      3.0392   2.8186   4.5885   C.3       2 RES2   0.0000
    52 H21      2.1549   2.6822   5.0105   H         2 RES2   0.0000
    53 H22      3.4516   3.6152   5.0080   H         2 RES2   0.0000
    54 C19      3.8971   1.6261   4.8798   C.3       2 RES2   0.0000
    55 H23      3.9610   1.4897   5.8593   H         2 RES2   0.0000
    56 H24      3.4923   0.8161   4.4802   H         2 RES2   0.0000
    57 C20      6.0612   0.7430   4.6189   C.3       2 RES2   0.0000
    58 H25      5.7549  -0.0597   4.1251   H         2 RES2   0.0000
    59 H26      6.0328   0.5396   5.5869   H         2 RES2   0.0000
    60 C21      7.4535   1.0743   4.2183   C.3       2 RES2   0.0000
    61 H27      7.7685   1.8600   4.7307   H         2 RES2   0.0000
    62 H28      8.0492   0.3118   4.4267   H         2 RES2   0.0000
    63 C22      8.8372   1.7698   2.4675   C.3       2 RES2   0.0000
    64 H29      9.4861   1.0695   2.7339   H         2 RES2   0.0000
    65 H30      9.0687   2.6042   2.9479   H         2 RES2   0.0000
    66 C23      8.9152   1.9964   0.9858   C.3       2 RES2   0.0000
    67 H31      9.8631   2.1353   0.7345   H         2 RES2   0.0000
    68 H32      8.5978   1.1827   0.5205   H         2 RES2   0.0000
    69 C24      2.2039   4.4057   2.9700   C.3       2 RES2   0.0000
    70 H33      1.3801   4.4350   3.5195   H         2 RES2   0.0000
    71 H34      1.9335   4.4946   2.0212   H         2 RES2   0.0000
    72 C25      3.0604   5.5848   3.3332   C.3       2 RES2   0.0000
    73 H35      2.5480   6.4228   3.2057   H         2 RES2   0.0000
    74 H36      3.3263   5.5251   4.2856   H         2 RES2   0.0000
    75 C26      5.1503   6.6104   2.8958   C.3       2 RES2   0.0000
    76 H37      5.5662   6.3680   3.7603   H         2 RES2   0.0000
    77 H38      4.6786   7.4728   3.0087   H         2 RES2   0.0000
    78 C27      6.2019   6.7444   1.8488   C.3       2 RES2   0.0000
    79 H39      5.7839   6.9795   0.9826   H         2 RES2   0.0000
    80 H40      6.8302   7.4691   2.0966   H         2 RES2   0.0000
    81 C28      7.9514   5.6250   0.7608   C.3       2 RES2   0.0000
    82 H41      8.4894   6.4374   0.9364   H         2 RES2   0.0000
    83 H42      7.5636   5.6993  -0.1484   H         2 RES2   0.0000
    84 C29      8.8295   4.4009   0.8447   C.3       2 RES2   0.0000
    85 H43      9.5933   4.5129   0.2238   H         2 RES2   0.0000
    86 H44      9.1942   4.3326   1.7634   H         2 RES2   0.0000
@<TRIPOS>BOND
     1     1     4   un
     2     2     3    1
     3     4     2    1
     4     5     4    1
     5     6     1   un
     6     7     6    1
     7     8     1   un
     8     9     8    1
     9    10     8    2
    10    11    10    1
    11    12    10    1
    12    13    12    1
    13    14    12    2
    14    15    14    1
    15    16     2    2
    16    17    16    1
    17    18     1    1
    18    19     1    1
    19    20     1    1
    20    21    18    3
    21    22    19    3
    22    23    20    3
    23     4     6    2
    24     6     8    1
    25    14    16    1
    26    24    25    1
    27    25    33    1
    28    26    24    1
    29    27    24    1
    30    28    24    1
    31    29    24    1
    32    30    24    1
    33    31    24    1
    34    32    24    1
    35    33    34    1
    36    35    33    1
    37    36    27    1
    38    37    36    1
    39    38    36    1
    40    39    27    1
    41    40    39    1
    42    41    39    1
    43    42    28    1
    44    43    42    1
    45    44    42    1
    46    45    28    1
    47    46    45    1
    48    47    45    1
    49    48    26    1
    50    49    48    1
    51    50    48    1
    52    51    25    1
    53    52    51    1
    54    53    51    1
    55    54    29    1
    56    55    54    1
    57    56    54    1
    58    57    29    1
    59    58    57    1
    60    59    57    1
    61    60    30    1
    62    61    60    1
    63    62    60    1
    64    63    30    1
    65    64    63    1
    66    65    63    1
    67    66    26    1
    68    67    66    1
    69    68    66    1
    70    69    25    1
    71    70    69    1
    72    71    69    1
    73    72    31    1
    74    73    72    1
    75    74    72    1
    76    75    31    1
    77    76    75    1
    78    77    75    1
    79    78    32    1
    80    79    78    1
    81    80    78    1
    82    81    32    1
    83    82    81    1
    84    83    81    1
    85    84    26    1
    86    85    84    1
    87    86    84    1
    88    33    36    1
    89    39    42    1
    90    45    48    1
    91    51    54    1
    92    57    60    1
    93    63    66    1
    94    69    72    1
    95    75    78    1
    96    81    84    1
@<TRIPOS>SUBSTRUCTURE
     1 RES1        1 GROUP             0 ****  ****    0  
     2 RES2       24 GROUP             0 ****  ****    0  
@<TRIPOS>CRYSIN
   10.7868   12.1806   24.3535   90.0000   92.8870   90.0000    14     1
