@<TRIPOS>MOLECULE
GACLOL
    86    92     1     0     0
SMALL
NO_CHARGES
****
Generated from the CSD

@<TRIPOS>ATOM
     1 Fe1      4.8346   5.5086   1.0075   Fe        1 RES1   0.0000
     2 P1       3.8692   4.2634   2.5783   P.3       1 RES1   0.0000
     3 P2       6.0687   6.6957  -0.4784   P.3       1 RES1   0.0000
     4 S1       6.4945   2.8210   1.2561   S.2       1 RES1   0.0000
     5 S2       6.6650   5.5225   2.3365   S.3       1 RES1   0.0000
     6 Cl1      3.9871   7.5750   1.6977   Cl        1 RES1   0.0000
     7 O1       2.3955   5.5135  -0.5050   O.2       1 RES1   0.0000
     8 O2       4.9908   3.4324  -0.6525   O.2       1 RES1   0.0000
     9 C1       3.3723   5.5000   0.0634   C.1       1 RES1   0.0000
    10 C2       5.4133   3.8896   0.4210   C.3       1 RES1   0.0000
    11 C3       5.4050   2.1524  -1.1309   C.3       1 RES1   0.0000
    12 C4       5.2669   3.4835   3.4589   C.3       1 RES1   0.0000
    13 C5       6.5808   3.7675   2.7618   C.3       1 RES1   0.0000
    14 C6       7.8491   3.2510   3.4949   C.3       1 RES1   0.0000
    15 C7       7.9546   3.9667   4.7330   C.3       1 RES1   0.0000
    16 C8       7.7388   1.7459   3.7881   C.3       1 RES1   0.0000
    17 C9       9.1192   3.5265   2.7095   C.3       1 RES1   0.0000
    18 C10      2.8241   2.8943   2.0192   C.ar      1 RES1   0.0000
    19 C11      3.2715   1.5720   2.0810   C.ar      1 RES1   0.0000
    20 C12      2.4777   0.5512   1.6094   C.ar      1 RES1   0.0000
    21 C13      1.2402   0.8522   1.0744   C.ar      1 RES1   0.0000
    22 C14      0.7925   2.1731   1.0118   C.ar      1 RES1   0.0000
    23 C15      1.5864   3.1942   1.4842   C.ar      1 RES1   0.0000
    24 C16      2.9105   5.0464   3.8473   C.ar      1 RES1   0.0000
    25 C17      3.5877   6.0010   4.5418   C.ar      1 RES1   0.0000
    26 C18      2.9660   6.5839   5.5741   C.ar      1 RES1   0.0000
    27 C19      1.6654   6.2122   5.9119   C.ar      1 RES1   0.0000
    28 C20      0.9883   5.2576   5.2174   C.ar      1 RES1   0.0000
    29 C21      1.6118   4.6746   4.1851   C.ar      1 RES1   0.0000
    30 C22      7.2234   8.0158   0.0240   C.ar      1 RES1   0.0000
    31 C23      8.1492   8.5192  -0.8523   C.ar      1 RES1   0.0000
    32 C24      9.0321   9.5290  -0.5127   C.ar      1 RES1   0.0000
    33 C25      8.9874  10.0360   0.7022   C.ar      1 RES1   0.0000
    34 C26      8.0617   9.5325   1.5785   C.ar      1 RES1   0.0000
    35 C27      7.1788   8.5231   1.2398   C.ar      1 RES1   0.0000
    36 C28      5.0058   7.5843  -1.6283   C.ar      1 RES1   0.0000
    37 C29      4.2911   6.8455  -2.5003   C.ar      1 RES1   0.0000
    38 C30      3.3922   7.4858  -3.3139   C.ar      1 RES1   0.0000
    39 C31      3.2083   8.8667  -3.2565   C.ar      1 RES1   0.0000
    40 C32      3.9231   9.6056  -2.3845   C.ar      1 RES1   0.0000
    41 C33      4.8218   8.9642  -1.5708   C.ar      1 RES1   0.0000
    42 C34      7.2436   5.6735  -1.4130   C.ar      1 RES1   0.0000
    43 C35      8.2478   5.0278  -0.7220   C.ar      1 RES1   0.0000
    44 C36      9.1404   4.1782  -1.3247   C.ar      1 RES1   0.0000
    45 C37      9.0326   3.9745  -2.6177   C.ar      1 RES1   0.0000
    46 C38      8.0283   4.6191  -3.3088   C.ar      1 RES1   0.0000
    47 C39      7.1339   5.4688  -2.7060   C.ar      1 RES1   0.0000
    48 H1       4.9721   2.0270  -2.0527   H         1 RES1   0.0000
    49 H2       5.1146   1.3239  -0.5196   H         1 RES1   0.0000
    50 H3       6.4814   2.1811  -1.2141   H         1 RES1   0.0000
    51 H4       5.1114   2.4168   3.5377   H         1 RES1   0.0000
    52 H5       5.3114   3.8980   4.3900   H         1 RES1   0.0000
    53 H6       7.8859   5.0295   4.5409   H         1 RES1   0.0000
    54 H7       8.8540   3.7549   5.2603   H         1 RES1   0.0000
    55 H8       7.0952   3.6412   5.2766   H         1 RES1   0.0000
    56 H9       7.6366   1.1469   2.9581   H         1 RES1   0.0000
    57 H10      6.8693   1.6144   4.3840   H         1 RES1   0.0000
    58 H11      8.6216   1.4356   4.3008   H         1 RES1   0.0000
    59 H12      8.9892   2.9138   1.8915   H         1 RES1   0.0000
    60 H13     10.0112   3.2178   3.2068   H         1 RES1   0.0000
    61 H14      9.2125   4.5621   2.4137   H         1 RES1   0.0000
    62 H15      4.2311   1.3401   2.4951   H         1 RES1   0.0000
    63 H16      2.8237  -0.4715   1.6574   H         1 RES1   0.0000
    64 H17      0.6247   0.0617   0.7091   H         1 RES1   0.0000
    65 H18     -0.1669   2.4061   0.5976   H         1 RES1   0.0000
    66 H19      1.2404   4.2166   1.4353   H         1 RES1   0.0000
    67 H20      4.5939   6.2890   4.2803   H         1 RES1   0.0000
    68 H21      3.4897   7.3235   6.1117   H         1 RES1   0.0000
    69 H22      1.1829   6.6638   6.7111   H         1 RES1   0.0000
    70 H23     -0.0180   4.9695   5.4789   H         1 RES1   0.0000
    71 H24      1.0882   3.9361   3.6475   H         1 RES1   0.0000
    72 H25      8.1829   8.1265  -1.7937   H         1 RES1   0.0000
    73 H26      9.7490   9.9181  -1.1918   H         1 RES1   0.0000
    74 H27      9.6724  10.8179   0.9646   H         1 RES1   0.0000
    75 H28      8.0298   9.9252   2.5200   H         1 RES1   0.0000
    76 H29      6.4824   8.2301   2.1753   H         1 RES1   0.0000
    77 H30      4.4328   5.7763  -2.5448   H         1 RES1   0.0000
    78 H31      2.8395   6.9139  -3.9887   H         1 RES1   0.0000
    79 H32      2.5136   9.3619  -3.8867   H         1 RES1   0.0000
    80 H33      3.7814  10.6747  -2.3399   H         1 RES1   0.0000
    81 H34      5.3747   9.5371  -0.8960   H         1 RES1   0.0000
    82 H35      8.3327   5.1860   0.2787   H         1 RES1   0.0000
    83 H36      9.9187   3.6783  -0.7897   H         1 RES1   0.0000
    84 H37      9.7241   3.3162  -3.0842   H         1 RES1   0.0000
    85 H38      7.9436   4.4620  -4.3094   H         1 RES1   0.0000
    86 H39      6.3575   5.9686  -3.2411   H         1 RES1   0.0000
@<TRIPOS>BOND
     1     1     2    1
     2     2    12    1
     3     3     1    1
     4     4    10   un
     5     5     1    1
     6     6     1    1
     7     7     9    3
     8     8    10   un
     9     9     1    1
    10    10     1    1
    11    11     8    1
    12    12    13    1
    13    13     4    1
    14    14    13    1
    15    15    14    1
    16    16    14    1
    17    17    14    1
    18    18     2    1
    19    19    18   ar
    20    20    19   ar
    21    21    20   ar
    22    22    21   ar
    23    23    18   ar
    24    24     2    1
    25    25    24   ar
    26    26    25   ar
    27    27    26   ar
    28    28    27   ar
    29    29    24   ar
    30    30     3    1
    31    31    30   ar
    32    32    31   ar
    33    33    32   ar
    34    34    33   ar
    35    35    30   ar
    36    36     3    1
    37    37    36   ar
    38    38    37   ar
    39    39    38   ar
    40    40    39   ar
    41    41    36   ar
    42    42     3    1
    43    43    42   ar
    44    44    43   ar
    45    45    44   ar
    46    46    45   ar
    47    47    42   ar
    48    48    11    1
    49    49    11    1
    50    50    11    1
    51    51    12    1
    52    52    12    1
    53    53    15    1
    54    54    15    1
    55    55    15    1
    56    56    16    1
    57    57    16    1
    58    58    16    1
    59    59    17    1
    60    60    17    1
    61    61    17    1
    62    62    19    1
    63    63    20    1
    64    64    21    1
    65    65    22    1
    66    66    23    1
    67    67    25    1
    68    68    26    1
    69    69    27    1
    70    70    28    1
    71    71    29    1
    72    72    31    1
    73    73    32    1
    74    74    33    1
    75    75    34    1
    76    76    35    1
    77    77    37    1
    78    78    38    1
    79    79    39    1
    80    80    40    1
    81    81    41    1
    82    82    43    1
    83    83    44    1
    84    84    45    1
    85    85    46    1
    86    86    47    1
    87     5    13    1
    88    22    23   ar
    89    28    29   ar
    90    34    35   ar
    91    40    41   ar
    92    46    47   ar
@<TRIPOS>SUBSTRUCTURE
     1 RES1        1 GROUP             0 ****  ****    0  
@<TRIPOS>CRYSIN
   18.9690   10.7790    9.1830   69.1000   85.7300   82.8700     2     1
