@<TRIPOS>MOLECULE
GACLIF
    92    97     2     0     0
SMALL
USER_CHARGES
****
Generated from the CSD

@<TRIPOS>ATOM
     1 Fe1      5.5805   0.9667   3.1180   Fe        1 RES1   1.0000
     2 S1       7.3047  -0.1237   1.7875   S.2       1 RES1   0.0000
     3 S2       4.5170   2.4743   1.7733   S.2       1 RES1   0.0000
     4 P1       6.9484   2.7176   3.4459   P.3       1 RES1   0.0000
     5 P2       3.9583  -0.5368   2.5166   P.3       1 RES1   0.0000
     6 C1       4.9835   0.9415   4.7597   C.1       1 RES1   0.0000
     7 C2       6.8334  -0.2831   3.3504   C.2       1 RES1   0.0000
     8 C3       8.3347  -2.0256   4.0563   C.3       1 RES1   0.0000
     9 C4       7.0159   3.4725   1.7591   C.3       1 RES1   0.0000
    10 C5       5.6421   3.5563   1.2467   C.2       1 RES1   0.0000
    11 C6       5.2945   4.6300   0.2813   C.3       1 RES1   0.0000
    12 C7       6.3181   4.6446  -0.8428   C.3       1 RES1   0.0000
    13 C8       5.3451   5.9699   1.0570   C.3       1 RES1   0.0000
    14 C9       3.9393   4.4224  -0.4065   C.3       1 RES1   0.0000
    15 O1       4.6615   0.8828   5.8360   O.2       1 RES1   0.0000
    16 O2       7.2239  -1.0736   4.3235   O.3       1 RES1   0.0000
    17 C10      8.6891   2.4324   3.9105   C.ar      1 RES1   0.0000
    18 C11      9.7549   3.0174   3.2277   C.ar      1 RES1   0.0000
    19 C12     11.0643   2.7763   3.6420   C.ar      1 RES1   0.0000
    20 C13     11.3079   1.9522   4.7390   C.ar      1 RES1   0.0000
    21 C14     10.2419   1.3672   5.4230   C.ar      1 RES1   0.0000
    22 C15      8.9327   1.6083   5.0075   C.ar      1 RES1   0.0000
    23 C16      6.3972   4.1141   4.4732   C.ar      1 RES1   0.0000
    24 C17      5.1450   4.1267   5.0875   C.ar      1 RES1   0.0000
    25 C18      4.7533   5.2255   5.8515   C.ar      1 RES1   0.0000
    26 C19      5.6153   6.3138   6.0012   C.ar      1 RES1   0.0000
    27 C20      6.8675   6.3012   5.3869   C.ar      1 RES1   0.0000
    28 C21      7.2593   5.2024   4.6229   C.ar      1 RES1   0.0000
    29 C22      2.3743  -0.4089   3.3787   C.ar      1 RES1   0.0000
    30 C23      1.9543   0.8115   3.9105   C.ar      1 RES1   0.0000
    31 C24      0.7086   0.9080   4.5312   C.ar      1 RES1   0.0000
    32 C25     -0.1156  -0.2139   4.6203   C.ar      1 RES1   0.0000
    33 C26      0.3045  -1.4322   4.0886   C.ar      1 RES1   0.0000
    34 C27      1.5502  -1.5307   3.4678   C.ar      1 RES1   0.0000
    35 C28      3.4576  -0.3921   0.7524   C.ar      1 RES1   0.0000
    36 C29      2.1275  -0.1258   0.4259   C.ar      1 RES1   0.0000
    37 C30      1.7804   0.1782  -0.8905   C.ar      1 RES1   0.0000
    38 C31      2.7619   0.2181  -1.8804   C.ar      1 RES1   0.0000
    39 C32      4.0920  -0.0482  -1.5539   C.ar      1 RES1   0.0000
    40 C33      4.4406  -0.3523  -0.2375   C.ar      1 RES1   0.0000
    41 C34      4.4380  -2.2605   2.8070   C.ar      1 RES1   0.0000
    42 C35      4.6981  -3.1810   1.7913   C.ar      1 RES1   0.0000
    43 C36      5.1426  -4.4643   2.1101   C.ar      1 RES1   0.0000
    44 C37      5.3301  -4.8271   3.4433   C.ar      1 RES1   0.0000
    45 C38      5.0715  -3.9044   4.4590   C.ar      1 RES1   0.0000
    46 C39      4.6255  -2.6232   4.1402   C.ar      1 RES1   0.0000
    47 H1       8.4275  -2.7386   4.6784   H         1 RES1   0.0000
    48 H2       9.1746  -1.5999   3.9363   H         1 RES1   0.0000
    49 H3       8.0335  -2.3695   3.2239   H         1 RES1   0.0000
    50 H4       7.5451   2.9336   1.1835   H         1 RES1   0.0000
    51 H5       7.3906   4.3448   1.8107   H         1 RES1   0.0000
    52 H6       7.1685   4.8396  -0.4672   H         1 RES1   0.0000
    53 H7       6.1514   5.2339  -1.5693   H         1 RES1   0.0000
    54 H8       6.3075   3.7472  -1.1538   H         1 RES1   0.0000
    55 H9       5.1064   6.7331   0.5433   H         1 RES1   0.0000
    56 H10      6.1268   6.1607   1.5616   H         1 RES1   0.0000
    57 H11      4.6324   5.7518   1.6468   H         1 RES1   0.0000
    58 H12      3.3301   4.5503   0.3110   H         1 RES1   0.0000
    59 H13      3.7471   3.6004  -0.8428   H         1 RES1   0.0000
    60 H14      3.8550   5.1374  -1.0247   H         1 RES1   0.0000
    61 H15      9.5888   3.5794   2.4792   H         1 RES1   0.0000
    62 H16     11.7914   3.1747   3.1761   H         1 RES1   0.0000
    63 H17     12.2011   1.7866   5.0217   H         1 RES1   0.0000
    64 H18     10.4082   0.8052   6.1703   H         1 RES1   0.0000
    65 H19      8.2056   1.2099   5.4734   H         1 RES1   0.0000
    66 H20      4.5595   3.3865   4.9855   H         1 RES1   0.0000
    67 H21      3.9003   5.2339   6.2697   H         1 RES1   0.0000
    68 H22      5.3478   7.0624   6.5213   H         1 RES1   0.0000
    69 H23      7.4530   7.0414   5.4888   H         1 RES1   0.0000
    70 H24      8.1123   5.1940   4.2047   H         1 RES1   0.0000
    71 H25      2.5166   1.5748   3.8498   H         1 RES1   0.0000
    72 H26      0.4233   1.7383   4.8926   H         1 RES1   0.0000
    73 H27     -0.9646  -0.1468   5.0423   H         1 RES1   0.0000
    74 H28     -0.2576  -2.1955   4.1479   H         1 RES1   0.0000
    75 H29      1.8356  -2.3611   3.1051   H         1 RES1   0.0000
    76 H30      1.4587  -0.1531   1.0996   H         1 RES1   0.0000
    77 H31      0.8741   0.3586  -1.1125   H         1 RES1   0.0000
    78 H32      2.5262   0.4257  -2.7773   H         1 RES1   0.0000
    79 H33      4.7608  -0.0210  -2.2275   H         1 RES1   0.0000
    80 H34      5.3454  -0.5326  -0.0155   H         1 RES1   0.0000
    81 H35      4.5708  -2.9336   0.8828   H         1 RES1   0.0000
    82 H36      5.3808  -5.0913   1.4184   H         1 RES1   0.0000
    83 H37      5.6333  -5.6994   3.6601   H         1 RES1   0.0000
    84 H38      5.1988  -4.1519   5.3675   H         1 RES1   0.0000
    85 H39      4.4497  -1.9962   4.8319   H         1 RES1   0.0000
    86 P3       1.2208   3.4746   7.8003   P.3       2 RES2  -1.0000
    87 F1       2.2235   3.2481   6.6194   F         2 RES2   0.0000
    88 F2       1.2904   1.9774   8.1139   F         2 RES2   0.0000
    89 F3       1.1114   5.0179   7.4247   F         2 RES2   0.0000
    90 F4       0.1766   3.7681   8.9476   F         2 RES2   0.0000
    91 F5       0.0228   3.2334   6.8078   F         2 RES2   0.0000
    92 F6       2.3860   3.7912   8.7437   F         2 RES2   0.0000
@<TRIPOS>BOND
     1     1     2    1
     2     2     7    2
     3     3     1    1
     4     4     1    1
     5     5     1    1
     6     6     1    1
     7     7     1    1
     8     8    16    1
     9     9     4    1
    10    10     3    2
    11    11    10    1
    12    12    11    1
    13    13    11    1
    14    14    11    1
    15    15     6    3
    16    16     7    1
    17    17     4    1
    18    18    17   ar
    19    19    18   ar
    20    20    19   ar
    21    21    20   ar
    22    22    17   ar
    23    23     4    1
    24    24    23   ar
    25    25    24   ar
    26    26    25   ar
    27    27    26   ar
    28    28    23   ar
    29    29     5    1
    30    30    29   ar
    31    31    30   ar
    32    32    31   ar
    33    33    32   ar
    34    34    29   ar
    35    35     5    1
    36    36    35   ar
    37    37    36   ar
    38    38    37   ar
    39    39    38   ar
    40    40    35   ar
    41    41     5    1
    42    42    41   ar
    43    43    42   ar
    44    44    43   ar
    45    45    44   ar
    46    46    41   ar
    47    47     8    1
    48    48     8    1
    49    49     8    1
    50    50     9    1
    51    51     9    1
    52    52    12    1
    53    53    12    1
    54    54    12    1
    55    55    13    1
    56    56    13    1
    57    57    13    1
    58    58    14    1
    59    59    14    1
    60    60    14    1
    61    61    18    1
    62    62    19    1
    63    63    20    1
    64    64    21    1
    65    65    22    1
    66    66    24    1
    67    67    25    1
    68    68    26    1
    69    69    27    1
    70    70    28    1
    71    71    30    1
    72    72    31    1
    73    73    32    1
    74    74    33    1
    75    75    34    1
    76    76    36    1
    77    77    37    1
    78    78    38    1
    79    79    39    1
    80    80    40    1
    81    81    42    1
    82    82    43    1
    83    83    44    1
    84    84    45    1
    85    85    46    1
    86     9    10    1
    87    21    22   ar
    88    27    28   ar
    89    33    34   ar
    90    39    40   ar
    91    45    46   ar
    92    86    87    1
    93    88    86    1
    94    89    86    1
    95    90    86    1
    96    91    86    1
    97    92    86    1
@<TRIPOS>SUBSTRUCTURE
     1 RES1        1 GROUP             0 ****  ****    0  
     2 RES2       86 GROUP             0 ****  ****    0  
@<TRIPOS>CRYSIN
   15.2130   20.9690   13.0830   90.0000   99.4400   90.0000   231     1
