@<TRIPOS>MOLECULE
GAFYUJ
    87    96     1     0     0
SMALL
NO_CHARGES
****
Generated from the CSD

@<TRIPOS>ATOM
     1 Fe1      5.5118   4.7783   8.6177   Fe        1 RES1   0.0000
     2 S1       8.7936   1.9396   7.8684   S.3       1 RES1   0.0000
     3 S2       2.2989   1.9881   9.7074   S.3       1 RES1   0.0000
     4 N1       4.7045   4.9055  10.2771   N.2       1 RES1   0.0000
     5 O1       1.0250   9.8768   9.7569   O.3       1 RES1   0.0000
     6 N2       3.7303   4.0447  10.7014   N.2       1 RES1   0.0000
     7 N3       6.9327   3.3991   8.9223   N.2       1 RES1   0.0000
     8 N4       4.4681   6.1010   7.6524   N.2       1 RES1   0.0000
     9 N5       6.0096   6.7264  10.5396   N.2       1 RES1   0.0000
    10 N6       4.1748   3.2983   8.5121   N.2       1 RES1   0.0000
    11 N7       7.3117   3.7917   6.6261   N.2       1 RES1   0.0000
    12 C1       2.7049   1.5707   8.0768   C.ar      1 RES1   0.0000
    13 N8       6.3005   4.6836   6.9405   N.2       1 RES1   0.0000
    14 N9       4.8645   6.3422   6.4187   N.2       1 RES1   0.0000
    15 N10      6.4674   6.2714   9.3875   N.2       1 RES1   0.0000
    16 O2       9.6003   9.7334   6.4202   O.3       1 RES1   0.0000
    17 C2       8.3952   1.7091   9.5353   C.ar      1 RES1   0.0000
    18 C3       4.1961   2.1924   6.3181   C.ar      1 RES1   0.0000
    19 H1       4.8894   2.7152   5.9833   H         1 RES1   0.0000
    20 C4       7.3872   2.5703   9.9439   C.ar      1 RES1   0.0000
    21 C5       3.5589   7.0495   8.1491   C.ar      1 RES1   0.0000
    22 C6       3.5200   3.2337   9.6484   C.2       1 RES1   0.0000
    23 C7       8.9399   0.8128  10.4578   C.ar      1 RES1   0.0000
    24 H2       9.6213   0.2329  10.2017   H         1 RES1   0.0000
    25 C8       2.1531   0.5712   7.3051   C.ar      1 RES1   0.0000
    26 H3       1.4933   0.0132   7.6446   H         1 RES1   0.0000
    27 C9       5.0442   5.9204  11.0676   C.2       1 RES1   0.0000
    28 C10      2.5273   6.6497   8.9789   C.ar      1 RES1   0.0000
    29 H4       2.4123   5.7468   9.1722   H         1 RES1   0.0000
    30 C11      1.8012   8.9080   9.2602   C.ar      1 RES1   0.0000
    31 C12      9.1708   7.4823   7.2045   C.ar      1 RES1   0.0000
    32 H5       9.8807   7.1286   6.7189   H         1 RES1   0.0000
    33 C13      1.6779   7.5680   9.5164   C.ar      1 RES1   0.0000
    34 H6       0.9936   7.2758  10.0744   H         1 RES1   0.0000
    35 C14      4.4595   6.2477  12.4098   C.3       1 RES1   0.0000
    36 H7       3.6394   5.7271  12.5356   H         1 RES1   0.0000
    37 C15      3.7433   2.3769   7.5911   C.ar      1 RES1   0.0000
    38 C16      8.9317   8.8136   7.1668   C.ar      1 RES1   0.0000
    39 C17      7.4837   1.6476  12.1238   C.ar      1 RES1   0.0000
    40 H8       7.1822   1.6212  13.0024   H         1 RES1   0.0000
    41 C18      4.1238   7.7239  12.5041   C.3       1 RES1   0.0000
    42 H9       3.4972   7.9546  11.8142   H         1 RES1   0.0000
    43 H10      4.9247   8.2424  12.3941   H         1 RES1   0.0000
    44 H11      3.7383   7.9107  13.3623   H         1 RES1   0.0000
    45 C19      7.3286   7.1594   8.7086   C.ar      1 RES1   0.0000
    46 C20      5.8619   5.5162   5.9865   C.2       1 RES1   0.0000
    47 C21      7.1251   8.5346   8.7259   C.ar      1 RES1   0.0000
    48 H12      6.4590   8.8992   9.2618   H         1 RES1   0.0000
    49 C22      3.6910   8.4094   7.8646   C.ar      1 RES1   0.0000
    50 H13      4.3720   8.6971   7.3019   H         1 RES1   0.0000
    51 C23      8.3665   6.6409   7.9605   C.ar      1 RES1   0.0000
    52 H14      8.5289   5.7249   7.9652   H         1 RES1   0.0000
    53 C24      6.9303   2.5483  11.2547   C.ar      1 RES1   0.0000
    54 H15      6.2613   3.1304  11.5360   H         1 RES1   0.0000
    55 C25      7.5709   3.1700   7.7734   C.2       1 RES1   0.0000
    56 C26      2.8296   9.3166   8.4052   C.ar      1 RES1   0.0000
    57 H16      2.9264  10.2195   8.2025   H         1 RES1   0.0000
    58 C27      3.6097   1.2148   5.5291   C.ar      1 RES1   0.0000
    59 H17      3.9004   1.0940   4.6537   H         1 RES1   0.0000
    60 C28      8.4671   0.7908  11.7325   C.ar      1 RES1   0.0000
    61 H18      8.8197   0.1845  12.3438   H         1 RES1   0.0000
    62 C29      7.9024   9.3452   7.9573   C.ar      1 RES1   0.0000
    63 H19      7.7498  10.2634   7.9558   H         1 RES1   0.0000
    64 C30      2.6093   0.4306   6.0242   C.ar      1 RES1   0.0000
    65 H20      2.2276  -0.2175   5.4757   H         1 RES1   0.0000
    66 C31     10.6332   9.2419   5.5763   C.3       1 RES1   0.0000
    67 H21     11.0364   9.9735   5.1032   H         1 RES1   0.0000
    68 H22     10.2619   8.6180   4.9460   H         1 RES1   0.0000
    69 H23     11.2981   8.7982   6.1091   H         1 RES1   0.0000
    70 C32      6.3146   5.6128   4.5751   C.3       1 RES1   0.0000
    71 H24      7.0598   4.9867   4.4557   H         1 RES1   0.0000
    72 C33      5.2304   5.2262   3.6085   C.3       1 RES1   0.0000
    73 H25      4.9249   4.3387   3.8097   H         1 RES1   0.0000
    74 H26      5.5751   5.2525   2.7143   H         1 RES1   0.0000
    75 H27      4.4971   5.8413   3.6871   H         1 RES1   0.0000
    76 C34      0.0564   9.5495  10.7533   C.3       1 RES1   0.0000
    77 H28     -0.4192  10.3447  11.0095   H         1 RES1   0.0000
    78 H29      0.4988   9.1804  11.5203   H         1 RES1   0.0000
    79 H30     -0.5631   8.9080  10.3997   H         1 RES1   0.0000
    80 C35      5.4406   5.8896  13.5037   C.3       1 RES1   0.0000
    81 H31      5.6557   4.9560  13.4471   H         1 RES1   0.0000
    82 H32      5.0480   6.0763  14.3603   H         1 RES1   0.0000
    83 H33      6.2417   6.4081  13.3984   H         1 RES1   0.0000
    84 C36      6.8206   6.9946   4.2608   C.3       1 RES1   0.0000
    85 H34      7.5321   7.2187   4.8643   H         1 RES1   0.0000
    86 H35      6.1049   7.6273   4.3582   H         1 RES1   0.0000
    87 H36      7.1468   7.0166   3.3586   H         1 RES1   0.0000
@<TRIPOS>BOND
     1     1     4    1
     2     2    17    1
     3     3    12    1
     4     4     6    1
     5     5    30    1
     6     6    22    2
     7     7     1    1
     8     8     1    1
     9     9    15    2
    10    10     1    1
    11    11    13    1
    12    12    25   ar
    13    13     1    1
    14    14     8    2
    15    15     1    1
    16    16    38    1
    17    17    20   ar
    18    18    19    1
    19    20     7    1
    20    21     8    1
    21    22     3    1
    22    23    17   ar
    23    24    23    1
    24    25    26    1
    25    27     4    2
    26    28    21   ar
    27    29    28    1
    28    30    33   ar
    29    31    32    1
    30    33    28   ar
    31    34    33    1
    32    35    27    1
    33    36    35    1
    34    37    10    1
    35    38    31   ar
    36    39    40    1
    37    41    35    1
    38    42    41    1
    39    43    41    1
    40    44    41    1
    41    45    15    1
    42    46    13    2
    43    47    45   ar
    44    48    47    1
    45    49    21   ar
    46    50    49    1
    47    51    31   ar
    48    52    51    1
    49    53    20   ar
    50    54    53    1
    51    55     2    1
    52    56    30   ar
    53    57    56    1
    54    58    18   ar
    55    59    58    1
    56    60    23   ar
    57    61    60    1
    58    62    38   ar
    59    63    62    1
    60    64    25   ar
    61    65    64    1
    62    66    16    1
    63    67    66    1
    64    68    66    1
    65    69    66    1
    66    70    46    1
    67    71    70    1
    68    72    70    1
    69    73    72    1
    70    74    72    1
    71    75    72    1
    72    76     5    1
    73    77    76    1
    74    78    76    1
    75    79    76    1
    76    80    35    1
    77    81    80    1
    78    82    80    1
    79    83    80    1
    80    84    70    1
    81    85    84    1
    82    86    84    1
    83    87    84    1
    84     7    55    1
    85     9    27    1
    86    10    22    1
    87    11    55    2
    88    12    37   ar
    89    14    46    1
    90    18    37   ar
    91    39    53   ar
    92    39    60   ar
    93    45    51   ar
    94    47    62   ar
    95    49    56   ar
    96    58    64   ar
@<TRIPOS>SUBSTRUCTURE
     1 RES1        1 GROUP             0 ****  ****    0  
@<TRIPOS>CRYSIN
   10.3951   21.9680   15.9281   90.0000   99.3470   90.0000   231     1
