@<TRIPOS>MOLECULE
GAKBEB
   104   109     3     0     0
SMALL
NO_CHARGES
****
Generated from the CSD

@<TRIPOS>ATOM
     1 Fe1      6.0371   3.4848   9.4398   Fe        1 RES1   0.0000
     2 P1       6.0371   3.4848   6.0382   P.3       1 RES1   0.0000
     3 S1       6.0371   3.4848   4.1098   S.2       1 RES1   0.0000
     4 N1       5.5421   4.9131   6.7045   N.pl3     1 RES1   0.0000
     5 N2       5.9761   5.1399   8.0979   N.2       1 RES1   0.0000
     6 N3       8.4680   8.3707  13.1175   N.pl3     1 RES1   0.0000
     7 O1       7.1726   4.6506  10.4940   O.3       1 RES1   0.0000
     8 C1       4.2799   5.4892   6.4066   C.3       1 RES1   0.0000
     9 H1       3.5869   5.0500   6.9416   H         1 RES1   0.0000
    10 H2       4.0831   5.3700   5.4552   H         1 RES1   0.0000
    11 H3       4.2998   6.4458   6.6180   H         1 RES1   0.0000
    12 C2       6.2085   6.3475   8.4023   C.2       1 RES1   0.0000
    13 H4       6.0365   6.9989   7.7328   H         1 RES1   0.0000
    14 C3       6.7047   6.8222   9.6515   C.ar      1 RES1   0.0000
    15 C4       7.2215   5.9293  10.6157   C.ar      1 RES1   0.0000
    16 C5       7.8185   6.4782  11.7913   C.ar      1 RES1   0.0000
    17 H5       8.1825   5.8959  12.4480   H         1 RES1   0.0000
    18 C6       7.8758   7.8761  11.9900   C.ar      1 RES1   0.0000
    19 C7       7.3657   8.7262  11.0033   C.ar      1 RES1   0.0000
    20 H6       7.4080   9.6693  11.1155   H         1 RES1   0.0000
    21 C8       6.8146   8.1961   9.8950   C.ar      1 RES1   0.0000
    22 H7       6.4796   8.7931   9.2383   H         1 RES1   0.0000
    23 C9       9.1272   7.5071  14.1330   C.3       1 RES1   0.0000
    24 H8       9.5630   6.7417  13.6781   H         1 RES1   0.0000
    25 H9       9.8292   8.0246  14.5974   H         1 RES1   0.0000
    26 C10      8.1734   6.9843  15.1292   C.3       1 RES1   0.0000
    27 H10      7.7267   7.7413  15.5809   H         1 RES1   0.0000
    28 H11      8.6437   6.4458  15.7923   H         1 RES1   0.0000
    29 H12      7.4925   6.4385  14.6807   H         1 RES1   0.0000
    30 C11      8.4088   9.7968  13.4571   C.3       1 RES1   0.0000
    31 H13      8.3509   9.9056  14.4373   H         1 RES1   0.0000
    32 H14      7.5873  10.1973  13.0599   H         1 RES1   0.0000
    33 C12      9.6584  10.5392  12.9221   C.3       1 RES1   0.0000
    34 H15     10.4576  10.1649  13.3289   H         1 RES1   0.0000
    35 H16      9.5866  11.4958  13.1495   H         1 RES1   0.0000
    36 H17      9.7007  10.4430  11.9483   H         1 RES1   0.0000
    37 N1A      5.0471   2.3431   6.7045   N.pl3     1 RES1   0.0000
    38 N1B      7.5203   3.1994   6.7045   N.pl3     1 RES1   0.0000
    39 N2A      4.6336   2.6055   8.0979   N.2       1 RES1   0.0000
    40 N2B      7.4997   2.7101   8.0979   N.2       1 RES1   0.0000
    41 N3A      0.5898   3.1482  13.1175   N.pl3     1 RES1   0.0000
    42 N3B      9.0517  -1.0633  13.1175   N.pl3     1 RES1   0.0000
    43 O1B      6.4778   1.9186  10.4940   O.3       1 RES1   0.0000
    44 O1A      4.4592   3.8863  10.4940   O.3       1 RES1   0.0000
    45 C1B      8.6503   4.0045   6.4066   C.3       1 RES1   0.0000
    46 C1A      5.1793   0.9619   6.4066   C.3       1 RES1   0.0000
    47 H1B      8.6165   4.8242   6.9416   H         1 RES1   0.0000
    48 H1A      5.9061   0.5813   6.9416   H         1 RES1   0.0000
    49 H2B      8.6455   4.2345   5.4552   H         1 RES1   0.0000
    50 H2A      5.3809   0.8511   5.4552   H         1 RES1   0.0000
    51 H3B      9.4689   3.5089   6.6180   H         1 RES1   0.0000
    52 H3A      4.3408   0.5008   6.6180   H         1 RES1   0.0000
    53 C2B      8.4294   1.9050   8.4023   C.2       1 RES1   0.0000
    54 C2A      3.4716   2.2030   8.4023   C.2       1 RES1   0.0000
    55 H4B      9.0795   1.7283   7.7328   H         1 RES1   0.0000
    56 H4A      2.9935   1.7283   7.7328   H         1 RES1   0.0000
    57 C3B      8.5924   1.2379   9.6515   C.ar      1 RES1   0.0000
    58 C3A      2.8124   2.3954   9.6515   C.ar      1 RES1   0.0000
    59 C4B      7.5607   1.2369  10.6157   C.ar      1 RES1   0.0000
    60 C4A      3.3273   3.2893  10.6157   C.ar      1 RES1   0.0000
    61 C5A      2.5534   3.5319  11.7913   C.ar      1 RES1   0.0000
    62 C5B      7.7376   0.4454  11.7913   C.ar      1 RES1   0.0000
    63 H5A      2.8758   4.1383  12.4480   H         1 RES1   0.0000
    64 H5B      7.0512   0.4214  12.4480   H         1 RES1   0.0000
    65 C6A      1.3141   2.8826  11.9900   C.ar      1 RES1   0.0000
    66 C6B      8.9195  -0.3032  11.9900   C.ar      1 RES1   0.0000
    67 C7A      0.8330   2.0158  11.0033   C.ar      1 RES1   0.0000
    68 C7B      9.9107  -0.2865  11.0033   C.ar      1 RES1   0.0000
    69 H6A     -0.0048   1.5809  11.1155   H         1 RES1   0.0000
    70 H6B     10.7063  -0.7946  11.1155   H         1 RES1   0.0000
    71 C8A      1.5677   1.8036   9.8950   C.ar      1 RES1   0.0000
    72 C8B      9.7272   0.4559   9.8950   C.ar      1 RES1   0.0000
    73 H7A      1.2182   1.2149   9.2383   H         1 RES1   0.0000
    74 H7B     10.4118   0.4475   9.2383   H         1 RES1   0.0000
    75 C9A      1.0081   4.1508  14.1330   C.3       1 RES1   0.0000
    76 C9B      7.9742  -1.2024  14.1330   C.3       1 RES1   0.0000
    77 H8A      1.4530   4.9110  13.6781   H         1 RES1   0.0000
    78 H8B      7.0935  -1.1972  13.6781   H         1 RES1   0.0000
    79 H9A      0.2089   4.5001  14.5974   H         1 RES1   0.0000
    80 H9B      8.0714  -2.0691  14.5974   H         1 RES1   0.0000
    81 C10A     1.9377   3.5862  15.1292   C.3       1 RES1   0.0000
    82 C10B     7.9984  -0.1150  15.1292   C.3       1 RES1   0.0000
    83 H10A     1.5055   2.8209  15.5809   H         1 RES1   0.0000
    84 H10B     8.8773  -0.1066  15.5809   H         1 RES1   0.0000
    85 H11A     2.1689   4.2627  15.7923   H         1 RES1   0.0000
    86 H11B     7.2969  -0.2530  15.7923   H         1 RES1   0.0000
    87 H12A     2.7508   3.2694  14.6807   H         1 RES1   0.0000
    88 H12B     7.8662   0.7476  14.6807   H         1 RES1   0.0000
    89 C11A    -0.6157   2.3839  13.4571   C.3       1 RES1   0.0000
    90 C11B    10.3164  -1.7252  13.4571   C.3       1 RES1   0.0000
    91 H13A    -0.6809   2.2793  14.4373   H         1 RES1   0.0000
    92 H13B    10.4395  -1.7293  14.4373   H         1 RES1   0.0000
    93 H14A    -0.5517   1.4721  13.0599   H         1 RES1   0.0000
    94 H14B    11.0740  -1.2139  13.0599   H         1 RES1   0.0000
    95 C12A    -1.8834   3.0948  12.9221   C.3       1 RES1   0.0000
    96 C12B    10.3345  -3.1785  12.9221   C.3       1 RES1   0.0000
    97 H15A    -1.9588   3.9741  13.3289   H         1 RES1   0.0000
    98 H15B     9.6107  -3.6835  13.3289   H         1 RES1   0.0000
    99 H16A    -2.6760   2.5543  13.1495   H         1 RES1   0.0000
   100 H16B    11.1989  -3.5946  13.1495   H         1 RES1   0.0000
   101 H17A    -1.8212   3.1795  11.9483   H         1 RES1   0.0000
   102 H17B    10.2301  -3.1670  11.9483   H         1 RES1   0.0000
   103 O2       6.0371   3.4848  13.3578   O.3       2 RES2   0.0000
   104 O3       0.0000   0.0000   9.7893   O.3       3 RES3   0.0000
@<TRIPOS>BOND
     1     1     5    1
     2     2     3    2
     3     4     2    1
     4     5     4    1
     5     6    18    1
     6     7     1    1
     7     8     4    1
     8     9     8    1
     9    10     8    1
    10    11     8    1
    11    12     5    2
    12    13    12    1
    13    14    12    1
    14    15     7    1
    15    16    15   ar
    16    17    16    1
    17    18    16   ar
    18    19    18   ar
    19    20    19    1
    20    21    14   ar
    21    22    21    1
    22    23     6    1
    23    24    23    1
    24    25    23    1
    25    26    23    1
    26    27    26    1
    27    28    26    1
    28    29    26    1
    29    30     6    1
    30    31    30    1
    31    32    30    1
    32    33    30    1
    33    34    33    1
    34    35    33    1
    35    36    33    1
    36    37     2    1
    37    38     2    1
    38    39     1    1
    39    40     1    1
    40    41    65    1
    41    42    66    1
    42    43     1    1
    43    44     1    1
    44    45    38    1
    45    46    37    1
    46    47    45    1
    47    48    46    1
    48    49    45    1
    49    50    46    1
    50    51    45    1
    51    52    46    1
    52    53    40    2
    53    54    39    2
    54    55    53    1
    55    56    54    1
    56    57    53    1
    57    58    54    1
    58    59    43    1
    59    60    44    1
    60    61    60   ar
    61    62    59   ar
    62    63    61    1
    63    64    62    1
    64    65    61   ar
    65    66    62   ar
    66    67    65   ar
    67    68    66   ar
    68    69    67    1
    69    70    68    1
    70    71    58   ar
    71    72    57   ar
    72    73    71    1
    73    74    72    1
    74    75    41    1
    75    76    42    1
    76    77    75    1
    77    78    76    1
    78    79    75    1
    79    80    76    1
    80    81    75    1
    81    82    76    1
    82    83    81    1
    83    84    82    1
    84    85    81    1
    85    86    82    1
    86    87    81    1
    87    88    82    1
    88    89    41    1
    89    90    42    1
    90    91    89    1
    91    92    90    1
    92    93    89    1
    93    94    90    1
    94    95    89    1
    95    96    90    1
    96    97    95    1
    97    98    96    1
    98    99    95    1
    99   100    96    1
   100   101    95    1
   101   102    96    1
   102    14    15   ar
   103    19    21   ar
   104    37    39    1
   105    38    40    1
   106    57    59   ar
   107    58    60   ar
   108    67    71   ar
   109    68    72   ar
@<TRIPOS>SUBSTRUCTURE
     1 RES1        1 GROUP             0 ****  ****    0  
     2 RES2      103 GROUP             0 ****  ****    0  
     3 RES3      104 GROUP             0 ****  ****    0  
@<TRIPOS>CRYSIN
   12.0730   12.0730   32.0330   90.0000   90.0000  120.0000   165     1
