@<TRIPOS>MOLECULE
GAKTUI
   153   162     3     0     0
SMALL
USER_CHARGES
****
Generated from the CSD

@<TRIPOS>ATOM
     1 Fe1      0.0000   9.4283   9.4283   Fe        1 RES1   3.0000
     2 N1       0.6006  10.7877   7.9758   N.2       1 RES1   0.0000
     3 H1      -0.0075  11.2046   7.6068   H         1 RES1   0.0000
     4 S1       2.0167  11.4697   7.7961   S.2       1 RES1   0.0000
     5 C1       2.3222  11.6871   6.0486   C.ar      1 RES1   0.0000
     6 C2       1.2926  11.9804   5.1656   C.ar      1 RES1   0.0000
     7 H2       0.4054  12.1116   5.4797   H         1 RES1   0.0000
     8 C3       1.5858  12.0777   3.8130   C.ar      1 RES1   0.0000
     9 H3       0.8957  12.2719   3.1905   H         1 RES1   0.0000
    10 C4       2.8849  11.8910   3.3733   C.ar      1 RES1   0.0000
    11 H4       3.0755  11.9551   2.4438   H         1 RES1   0.0000
    12 C5       3.9071  11.6151   4.2514   C.ar      1 RES1   0.0000
    13 H5       4.7971  11.5082   3.9354   H         1 RES1   0.0000
    14 C6       3.6212  11.4957   5.6104   C.ar      1 RES1   0.0000
    15 H6       4.3106  11.2857   6.2283   H         1 RES1   0.0000
    16 C7       1.9262  13.1887   8.3103   C.ar      1 RES1   0.0000
    17 C8       3.0602  13.9839   8.1862   C.ar      1 RES1   0.0000
    18 H7       3.8486  13.6371   7.7859   H         1 RES1   0.0000
    19 C9       3.0269  15.2831   8.6514   C.ar      1 RES1   0.0000
    20 H8       3.7977  15.8320   8.5741   H         1 RES1   0.0000
    21 C10      1.8813  15.7858   9.2269   C.ar      1 RES1   0.0000
    22 H9       1.8611  16.6824   9.5377   H         1 RES1   0.0000
    23 C11      0.7620  14.9884   9.3517   C.ar      1 RES1   0.0000
    24 H10     -0.0245  15.3398   9.7545   H         1 RES1   0.0000
    25 C12      0.7746  13.6773   8.8952   C.ar      1 RES1   0.0000
    26 H11      0.0057  13.1261   8.9833   H         1 RES1   0.0000
    27 N1F      1.4525  10.0289  10.7877   N.2       1 RES1   0.0000
    28 H1F      1.8215   9.4208  11.2046   H         1 RES1   0.0000
    29 S1F      1.6322  11.4450  11.4697   S.2       1 RES1   0.0000
    30 C1F      3.3797  11.7505  11.6871   C.ar      1 RES1   0.0000
    31 C2F      4.2627  10.7209  11.9804   C.ar      1 RES1   0.0000
    32 H2F      3.9486   9.8337  12.1116   H         1 RES1   0.0000
    33 C3F      5.6153  11.0141  12.0777   C.ar      1 RES1   0.0000
    34 H3F      6.2378  10.3240  12.2719   H         1 RES1   0.0000
    35 C4F      6.0550  12.3132  11.8910   C.ar      1 RES1   0.0000
    36 H4F      6.9845  12.5038  11.9551   H         1 RES1   0.0000
    37 C5F      5.1769  13.3354  11.6151   C.ar      1 RES1   0.0000
    38 H5F      5.4929  14.2254  11.5082   H         1 RES1   0.0000
    39 C6F      3.8179  13.0495  11.4957   C.ar      1 RES1   0.0000
    40 H6F      3.2000  13.7389  11.2857   H         1 RES1   0.0000
    41 C7F      1.1180  11.3545  13.1887   C.ar      1 RES1   0.0000
    42 C8F      1.2421  12.4885  13.9839   C.ar      1 RES1   0.0000
    43 H7F      1.6424  13.2769  13.6371   H         1 RES1   0.0000
    44 C9F      0.7769  12.4552  15.2831   C.ar      1 RES1   0.0000
    45 H8F      0.8542  13.2260  15.8320   H         1 RES1   0.0000
    46 C10F     0.2014  11.3096  15.7858   C.ar      1 RES1   0.0000
    47 H9F     -0.1094  11.2894  16.6824   H         1 RES1   0.0000
    48 C11F     0.0766  10.1903  14.9884   C.ar      1 RES1   0.0000
    49 H10F    -0.3262   9.4038  15.3398   H         1 RES1   0.0000
    50 C12F     0.5331  10.2029  13.6773   C.ar      1 RES1   0.0000
    51 H11F     0.4450   9.4340  13.1261   H         1 RES1   0.0000
    52 N1K      1.3594   7.9758   8.8277   N.2       1 RES1   0.0000
    53 H1K      1.7763   7.6068   9.4358   H         1 RES1   0.0000
    54 S1K      2.0414   7.7961   7.4116   S.2       1 RES1   0.0000
    55 C1K      2.2588   6.0486   7.1061   C.ar      1 RES1   0.0000
    56 C2K      2.5521   5.1656   8.1357   C.ar      1 RES1   0.0000
    57 H2K      2.6833   5.4797   9.0229   H         1 RES1   0.0000
    58 C3K      2.6494   3.8130   7.8425   C.ar      1 RES1   0.0000
    59 H3K      2.8436   3.1905   8.5326   H         1 RES1   0.0000
    60 C4K      2.4627   3.3733   6.5434   C.ar      1 RES1   0.0000
    61 H4K      2.5268   2.4438   6.3528   H         1 RES1   0.0000
    62 C5K      2.1868   4.2514   5.5212   C.ar      1 RES1   0.0000
    63 H5K      2.0799   3.9354   4.6312   H         1 RES1   0.0000
    64 C6K      2.0674   5.6104   5.8071   C.ar      1 RES1   0.0000
    65 H6K      1.8574   6.2283   5.1177   H         1 RES1   0.0000
    66 C7K      3.7604   8.3103   7.5021   C.ar      1 RES1   0.0000
    67 C8K      4.5556   8.1862   6.3681   C.ar      1 RES1   0.0000
    68 H7K      4.2088   7.7859   5.5797   H         1 RES1   0.0000
    69 C9K      5.8548   8.6514   6.4014   C.ar      1 RES1   0.0000
    70 H8K      6.4037   8.5741   5.6306   H         1 RES1   0.0000
    71 C10K     6.3575   9.2269   7.5470   C.ar      1 RES1   0.0000
    72 H9K      7.2541   9.5377   7.5672   H         1 RES1   0.0000
    73 C11K     5.5601   9.3517   8.6663   C.ar      1 RES1   0.0000
    74 H10K     5.9115   9.7545   9.4528   H         1 RES1   0.0000
    75 C12K     4.2490   8.8952   8.6537   C.ar      1 RES1   0.0000
    76 H11K     3.6978   8.9833   9.4226   H         1 RES1   0.0000
    77 N1L     -0.6006   8.0689  10.8808   N.2       1 RES1   0.0000
    78 H1L      0.0075   7.6520  11.2498   H         1 RES1   0.0000
    79 S1L     -2.0167   7.3869  11.0605   S.2       1 RES1   0.0000
    80 C1L     -2.3222   7.1695  12.8080   C.ar      1 RES1   0.0000
    81 C2L     -1.2926   6.8762  13.6910   C.ar      1 RES1   0.0000
    82 H2L     -0.4054   6.7450  13.3769   H         1 RES1   0.0000
    83 C3L     -1.5858   6.7789  15.0436   C.ar      1 RES1   0.0000
    84 H3L     -0.8957   6.5847  15.6661   H         1 RES1   0.0000
    85 C4L     -2.8849   6.9656  15.4833   C.ar      1 RES1   0.0000
    86 H4L     -3.0755   6.9015  16.4128   H         1 RES1   0.0000
    87 C5L     -3.9071   7.2415  14.6052   C.ar      1 RES1   0.0000
    88 H5L     -4.7971   7.3484  14.9212   H         1 RES1   0.0000
    89 C6L     -3.6212   7.3609  13.2462   C.ar      1 RES1   0.0000
    90 H6L     -4.3106   7.5709  12.6283   H         1 RES1   0.0000
    91 C7L     -1.9262   5.6679  10.5463   C.ar      1 RES1   0.0000
    92 C8L     -3.0602   4.8727  10.6704   C.ar      1 RES1   0.0000
    93 H7L     -3.8486   5.2195  11.0707   H         1 RES1   0.0000
    94 C9L     -3.0269   3.5735  10.2052   C.ar      1 RES1   0.0000
    95 H8L     -3.7977   3.0246  10.2825   H         1 RES1   0.0000
    96 C10L    -1.8813   3.0708   9.6297   C.ar      1 RES1   0.0000
    97 H9L     -1.8611   2.1742   9.3189   H         1 RES1   0.0000
    98 C11L    -0.7620   3.8682   9.5049   C.ar      1 RES1   0.0000
    99 H10L     0.0245   3.5168   9.1021   H         1 RES1   0.0000
   100 C12L    -0.7746   5.1793   9.9614   C.ar      1 RES1   0.0000
   101 H11L    -0.0057   5.7305   9.8733   H         1 RES1   0.0000
   102 N1R     -1.4525   8.8277   8.0689   N.2       1 RES1   0.0000
   103 H1R     -1.8215   9.4358   7.6520   H         1 RES1   0.0000
   104 S1R     -1.6322   7.4116   7.3869   S.2       1 RES1   0.0000
   105 C1R     -3.3797   7.1061   7.1695   C.ar      1 RES1   0.0000
   106 C2R     -4.2627   8.1357   6.8762   C.ar      1 RES1   0.0000
   107 H2R     -3.9486   9.0229   6.7450   H         1 RES1   0.0000
   108 C3R     -5.6153   7.8425   6.7789   C.ar      1 RES1   0.0000
   109 H3R     -6.2378   8.5326   6.5847   H         1 RES1   0.0000
   110 C4R     -6.0550   6.5434   6.9656   C.ar      1 RES1   0.0000
   111 H4R     -6.9845   6.3528   6.9015   H         1 RES1   0.0000
   112 C5R     -5.1769   5.5212   7.2415   C.ar      1 RES1   0.0000
   113 H5R     -5.4929   4.6312   7.3484   H         1 RES1   0.0000
   114 C6R     -3.8179   5.8071   7.3609   C.ar      1 RES1   0.0000
   115 H6R     -3.2000   5.1177   7.5709   H         1 RES1   0.0000
   116 C7R     -1.1180   7.5021   5.6679   C.ar      1 RES1   0.0000
   117 C8R     -1.2421   6.3681   4.8727   C.ar      1 RES1   0.0000
   118 H7R     -1.6424   5.5797   5.2195   H         1 RES1   0.0000
   119 C9R     -0.7769   6.4014   3.5735   C.ar      1 RES1   0.0000
   120 H8R     -0.8542   5.6306   3.0246   H         1 RES1   0.0000
   121 C10R    -0.2014   7.5470   3.0708   C.ar      1 RES1   0.0000
   122 H9R      0.1094   7.5672   2.1742   H         1 RES1   0.0000
   123 C11R    -0.0766   8.6663   3.8682   C.ar      1 RES1   0.0000
   124 H10R     0.3262   9.4528   3.5168   H         1 RES1   0.0000
   125 C12R    -0.5331   8.6537   5.1793   C.ar      1 RES1   0.0000
   126 H11R    -0.4450   9.4226   5.7305   H         1 RES1   0.0000
   127 N1W     -1.3594  10.8808  10.0289   N.2       1 RES1   0.0000
   128 H1W     -1.7763  11.2498   9.4208   H         1 RES1   0.0000
   129 S1W     -2.0414  11.0605  11.4450   S.2       1 RES1   0.0000
   130 C1W     -2.2588  12.8080  11.7505   C.ar      1 RES1   0.0000
   131 C2W     -2.5521  13.6910  10.7209   C.ar      1 RES1   0.0000
   132 H2W     -2.6833  13.3769   9.8337   H         1 RES1   0.0000
   133 C3W     -2.6494  15.0436  11.0141   C.ar      1 RES1   0.0000
   134 H3W     -2.8436  15.6661  10.3240   H         1 RES1   0.0000
   135 C4W     -2.4627  15.4833  12.3132   C.ar      1 RES1   0.0000
   136 H4W     -2.5268  16.4128  12.5038   H         1 RES1   0.0000
   137 C5W     -2.1868  14.6052  13.3354   C.ar      1 RES1   0.0000
   138 H5W     -2.0799  14.9212  14.2254   H         1 RES1   0.0000
   139 C6W     -2.0674  13.2462  13.0495   C.ar      1 RES1   0.0000
   140 H6W     -1.8574  12.6283  13.7389   H         1 RES1   0.0000
   141 C7W     -3.7604  10.5463  11.3545   C.ar      1 RES1   0.0000
   142 C8W     -4.5556  10.6704  12.4885   C.ar      1 RES1   0.0000
   143 H7W     -4.2088  11.0707  13.2769   H         1 RES1   0.0000
   144 C9W     -5.8548  10.2052  12.4552   C.ar      1 RES1   0.0000
   145 H8W     -6.4037  10.2825  13.2260   H         1 RES1   0.0000
   146 C10W    -6.3575   9.6297  11.3096   C.ar      1 RES1   0.0000
   147 H9W     -7.2541   9.3189  11.2894   H         1 RES1   0.0000
   148 C11W    -5.5601   9.5049  10.1903   C.ar      1 RES1   0.0000
   149 H10W    -5.9115   9.1021   9.4038   H         1 RES1   0.0000
   150 C12W    -4.2490   9.9614  10.2029   C.ar      1 RES1   0.0000
   151 H11W    -3.6978   9.8733   9.4340   H         1 RES1   0.0000
   152 Cl1     -2.3720  11.8003   7.0563   Cl        2 RES2  -1.0000
   153 Cl2      0.0000   9.4283   0.0000   Cl        3 RES3  -1.0000
@<TRIPOS>BOND
     1     1     2    1
     2     2     3    1
     3     4     2    2
     4     5     4    1
     5     6     5   ar
     6     7     6    1
     7     8     6   ar
     8     9     8    1
     9    10     8   ar
    10    11    10    1
    11    12    10   ar
    12    13    12    1
    13    14     5   ar
    14    15    14    1
    15    16     4    1
    16    17    16   ar
    17    18    17    1
    18    19    17   ar
    19    20    19    1
    20    21    19   ar
    21    22    21    1
    22    23    21   ar
    23    24    23    1
    24    25    16   ar
    25    26    25    1
    26    27     1    1
    27    28    27    1
    28    29    27    2
    29    30    29    1
    30    31    30   ar
    31    32    31    1
    32    33    31   ar
    33    34    33    1
    34    35    33   ar
    35    36    35    1
    36    37    35   ar
    37    38    37    1
    38    39    30   ar
    39    40    39    1
    40    41    29    1
    41    42    41   ar
    42    43    42    1
    43    44    42   ar
    44    45    44    1
    45    46    44   ar
    46    47    46    1
    47    48    46   ar
    48    49    48    1
    49    50    41   ar
    50    51    50    1
    51    52     1    1
    52    53    52    1
    53    54    52    2
    54    55    54    1
    55    56    55   ar
    56    57    56    1
    57    58    56   ar
    58    59    58    1
    59    60    58   ar
    60    61    60    1
    61    62    60   ar
    62    63    62    1
    63    64    55   ar
    64    65    64    1
    65    66    54    1
    66    67    66   ar
    67    68    67    1
    68    69    67   ar
    69    70    69    1
    70    71    69   ar
    71    72    71    1
    72    73    71   ar
    73    74    73    1
    74    75    66   ar
    75    76    75    1
    76    77     1    1
    77    78    77    1
    78    79    77    2
    79    80    79    1
    80    81    80   ar
    81    82    81    1
    82    83    81   ar
    83    84    83    1
    84    85    83   ar
    85    86    85    1
    86    87    85   ar
    87    88    87    1
    88    89    80   ar
    89    90    89    1
    90    91    79    1
    91    92    91   ar
    92    93    92    1
    93    94    92   ar
    94    95    94    1
    95    96    94   ar
    96    97    96    1
    97    98    96   ar
    98    99    98    1
    99   100    91   ar
   100   101   100    1
   101   102     1    1
   102   103   102    1
   103   104   102    2
   104   105   104    1
   105   106   105   ar
   106   107   106    1
   107   108   106   ar
   108   109   108    1
   109   110   108   ar
   110   111   110    1
   111   112   110   ar
   112   113   112    1
   113   114   105   ar
   114   115   114    1
   115   116   104    1
   116   117   116   ar
   117   118   117    1
   118   119   117   ar
   119   120   119    1
   120   121   119   ar
   121   122   121    1
   122   123   121   ar
   123   124   123    1
   124   125   116   ar
   125   126   125    1
   126   127     1    1
   127   128   127    1
   128   129   127    2
   129   130   129    1
   130   131   130   ar
   131   132   131    1
   132   133   131   ar
   133   134   133    1
   134   135   133   ar
   135   136   135    1
   136   137   135   ar
   137   138   137    1
   138   139   130   ar
   139   140   139    1
   140   141   129    1
   141   142   141   ar
   142   143   142    1
   143   144   142   ar
   144   145   144    1
   145   146   144   ar
   146   147   146    1
   147   148   146   ar
   148   149   148    1
   149   150   141   ar
   150   151   150    1
   151    12    14   ar
   152    23    25   ar
   153    37    39   ar
   154    48    50   ar
   155    62    64   ar
   156    73    75   ar
   157    87    89   ar
   158    98   100   ar
   159   112   114   ar
   160   123   125   ar
   161   137   139   ar
   162   148   150   ar
@<TRIPOS>SUBSTRUCTURE
     1 RES1        1 GROUP             0 ****  ****    0  
     2 RES2      152 GROUP             0 ****  ****    0  
     3 RES3      153 GROUP             0 ****  ****    0  
@<TRIPOS>CRYSIN
   18.8566   18.8566   18.8566   90.0000   90.0000   90.0000   205     1
