@<TRIPOS>MOLECULE
GAMYOK01
    95   100     1     0     0
SMALL
NO_CHARGES
****
Generated from the CSD

@<TRIPOS>ATOM
     1 Fe1     -0.7913   1.3235   3.0917   Fe        1 RES1   0.0000
     2 P1      -3.0214   1.3364   2.8634   P.3       1 RES1   0.0000
     3 P2       0.2893   3.3044   2.9447   P.3       1 RES1   0.0000
     4 P3      -0.0355  -0.4068   4.3294   P.3       1 RES1   0.0000
     5 Si1     -1.3091   2.1192   5.1290   Si        1 RES1   0.0000
     6 C1      -3.1029   1.6877   5.5745   C.ar      1 RES1   0.0000
     7 C2      -3.8722   1.2094   4.4924   C.ar      1 RES1   0.0000
     8 C3      -3.9646   2.8249   2.1621   C.3       1 RES1   0.0000
     9 H1      -3.4721   3.0148   1.3637   H         1 RES1   0.0000
    10 C4       2.1105   3.4320   3.4321   C.3       1 RES1   0.0000
    11 H2       2.5324   2.8151   2.8927   H         1 RES1   0.0000
    12 C5      -3.7930   0.0002   1.7990   C.3       1 RES1   0.0000
    13 H3      -4.7743   0.0831   1.8728   H         1 RES1   0.0000
    14 C6      -1.1306   4.0107   5.1772   C.ar      1 RES1   0.0000
    15 C7       0.1650   1.8795   7.6908   C.ar      1 RES1   0.0000
    16 H4      -0.2266   2.7004   7.9889   H         1 RES1   0.0000
    17 C8      -0.1727   1.3507   6.4391   C.ar      1 RES1   0.0000
    18 C9      -3.6692   1.6848   6.8541   C.ar      1 RES1   0.0000
    19 H5      -3.1541   1.9832   7.6238   H         1 RES1   0.0000
    20 C10     -5.1654   0.7249   4.7059   C.ar      1 RES1   0.0000
    21 H6      -5.6935   0.3514   3.9453   H         1 RES1   0.0000
    22 C11     -0.4447   4.5572   4.0740   C.ar      1 RES1   0.0000
    23 C12      0.3435   4.1558   1.2813   C.3       1 RES1   0.0000
    24 H7       0.7222   5.0348   1.4062   H         1 RES1   0.0000
    25 C13     -4.9601   1.2007   7.0623   C.ar      1 RES1   0.0000
    26 H8      -5.2908   1.2228   7.9250   H         1 RES1   0.0000
    27 C14     -1.6562   6.2627   5.9185   C.ar      1 RES1   0.0000
    28 H9      -2.0967   6.8179   6.5335   H         1 RES1   0.0000
    29 C15      1.4977  -1.1929   3.6083   C.3       1 RES1   0.0000
    30 H10      1.8989  -1.7813   4.3153   H         1 RES1   0.0000
    31 C16     -0.3681   5.9469   3.9067   C.ar      1 RES1   0.0000
    32 H11      0.0485   6.3418   3.1530   H         1 RES1   0.0000
    33 C17     -1.7279   4.8822   6.0953   C.ar      1 RES1   0.0000
    34 H12     -2.2371   4.5235   6.8364   H         1 RES1   0.0000
    35 C18      2.7666   4.7912   3.1489   C.3       1 RES1   0.0000
    36 H13      2.3746   5.4919   3.6490   H         1 RES1   0.0000
    37 H14      2.7446   5.0872   2.1724   H         1 RES1   0.0000
    38 H15      3.7184   4.7608   3.4297   H         1 RES1   0.0000
    39 C19      1.4537  -0.4250   6.7999   C.ar      1 RES1   0.0000
    40 H16      1.9087  -1.2181   6.5155   H         1 RES1   0.0000
    41 C20      1.1544  -2.0321   2.3721   C.3       1 RES1   0.0000
    42 H17      0.8342  -1.4867   1.6567   H         1 RES1   0.0000
    43 H18      0.4870  -2.7043   2.5604   H         1 RES1   0.0000
    44 H19      1.9424  -2.5206   2.0463   H         1 RES1   0.0000
    45 C21      1.1405   1.2776   8.4843   C.ar      1 RES1   0.0000
    46 H20      1.3980   1.6180   9.2740   H         1 RES1   0.0000
    47 C22      0.4869   0.1856   5.9944   C.ar      1 RES1   0.0000
    48 C23     -1.0005  -1.9580   4.8061   C.3       1 RES1   0.0000
    49 H21     -1.3171  -2.3076   3.9437   H         1 RES1   0.0000
    50 C24     -1.0583   4.3073   0.6944   C.3       1 RES1   0.0000
    51 H22     -0.9835   4.7516  -0.1621   H         1 RES1   0.0000
    52 H23     -1.6336   4.8568   1.3047   H         1 RES1   0.0000
    53 H24     -1.4789   3.4322   0.5746   H         1 RES1   0.0000
    54 C25     -3.4010   0.2153   0.3315   C.3       1 RES1   0.0000
    55 H25     -2.4286   0.1723   0.2259   H         1 RES1   0.0000
    56 H26     -3.6884   1.0723  -0.0246   H         1 RES1   0.0000
    57 H27     -3.8474  -0.4596  -0.2505   H         1 RES1   0.0000
    58 C26     -5.4382   2.5923   1.8052   C.3       1 RES1   0.0000
    59 H28     -5.9800   2.2745   2.5686   H         1 RES1   0.0000
    60 H29     -5.5801   1.8992   1.1116   H         1 RES1   0.0000
    61 H30     -5.8665   3.4018   1.4930   H         1 RES1   0.0000
    62 C27      2.5482  -0.1466   3.2427   C.3       1 RES1   0.0000
    63 H31      3.3334  -0.5956   2.8289   H         1 RES1   0.0000
    64 H32      2.8321   0.4052   4.0043   H         1 RES1   0.0000
    65 H33      2.2165   0.4596   2.5800   H         1 RES1   0.0000
    66 C28      1.7800   0.1230   8.0385   C.ar      1 RES1   0.0000
    67 H34      2.4671  -0.2735   8.5668   H         1 RES1   0.0000
    68 C29     -0.9779   6.7947   4.8251   C.ar      1 RES1   0.0000
    69 H35     -0.9617   7.7276   4.6787   H         1 RES1   0.0000
    70 C30     -3.4009  -1.4098   2.2356   C.3       1 RES1   0.0000
    71 H36     -3.8954  -2.0814   1.6845   H         1 RES1   0.0000
    72 H37     -3.6659  -1.5703   3.1857   H         1 RES1   0.0000
    73 H38     -2.4396  -1.5319   2.1658   H         1 RES1   0.0000
    74 C31     -3.8798   4.0267   3.1040   C.3       1 RES1   0.0000
    75 H39     -4.2495   4.7903   2.6553   H         1 RES1   0.0000
    76 H40     -2.9725   4.2521   3.3544   H         1 RES1   0.0000
    77 H41     -4.3452   3.8654   3.8962   H         1 RES1   0.0000
    78 C32     -2.1832  -1.6261   5.7135   C.3       1 RES1   0.0000
    79 H42     -2.7300  -2.4521   5.8443   H         1 RES1   0.0000
    80 H43     -2.7424  -0.9536   5.3712   H         1 RES1   0.0000
    81 H44     -1.8885  -1.3290   6.5957   H         1 RES1   0.0000
    82 C33      2.3361   3.0875   4.9030   C.3       1 RES1   0.0000
    83 H45      3.3115   3.0707   5.1158   H         1 RES1   0.0000
    84 H46      1.9461   2.2279   5.1830   H         1 RES1   0.0000
    85 H47      1.9320   3.7754   5.4351   H         1 RES1   0.0000
    86 C34     -0.1821  -3.0790   5.4644   C.3       1 RES1   0.0000
    87 H48      0.1841  -2.7674   6.2814   H         1 RES1   0.0000
    88 H49      0.5760  -3.3596   4.9341   H         1 RES1   0.0000
    89 H50     -0.8208  -3.8726   5.6479   H         1 RES1   0.0000
    90 C35      1.2451   3.3858   0.3158   C.3       1 RES1   0.0000
    91 H51      0.9366   2.4383   0.2554   H         1 RES1   0.0000
    92 H52      2.1314   3.4120   0.5844   H         1 RES1   0.0000
    93 H53      1.2125   3.8003  -0.5337   H         1 RES1   0.0000
    94 C36     -5.7060   0.7163   5.9912   C.ar      1 RES1   0.0000
    95 H54     -6.5555   0.4180   6.1194   H         1 RES1   0.0000
@<TRIPOS>BOND
     1     1     2    1
     2     2     7    1
     3     3     1    1
     4     4     1    1
     5     5     1    1
     6     6     5    1
     7     7     6   ar
     8     8     2    1
     9     9     8    1
    10    10     3    1
    11    11    10    1
    12    12     2    1
    13    13    12    1
    14    14     5    1
    15    15    16    1
    16    17     5    1
    17    18     6   ar
    18    19    18    1
    19    20     7   ar
    20    21    20    1
    21    22     3    1
    22    23     3    1
    23    24    23    1
    24    25    18   ar
    25    26    25    1
    26    27    28    1
    27    29     4    1
    28    30    29    1
    29    31    22   ar
    30    32    31    1
    31    33    14   ar
    32    34    33    1
    33    35    10    1
    34    36    35    1
    35    37    35    1
    36    38    35    1
    37    39    40    1
    38    41    29    1
    39    42    41    1
    40    43    41    1
    41    44    41    1
    42    45    15   ar
    43    46    45    1
    44    47     4    1
    45    48     4    1
    46    49    48    1
    47    50    23    1
    48    51    50    1
    49    52    50    1
    50    53    50    1
    51    54    12    1
    52    55    54    1
    53    56    54    1
    54    57    54    1
    55    58     8    1
    56    59    58    1
    57    60    58    1
    58    61    58    1
    59    62    29    1
    60    63    62    1
    61    64    62    1
    62    65    62    1
    63    66    39   ar
    64    67    66    1
    65    68    27   ar
    66    69    68    1
    67    70    12    1
    68    71    70    1
    69    72    70    1
    70    73    70    1
    71    74     8    1
    72    75    74    1
    73    76    74    1
    74    77    74    1
    75    78    48    1
    76    79    78    1
    77    80    78    1
    78    81    78    1
    79    82    10    1
    80    83    82    1
    81    84    82    1
    82    85    82    1
    83    86    48    1
    84    87    86    1
    85    88    86    1
    86    89    86    1
    87    90    23    1
    88    91    90    1
    89    92    90    1
    90    93    90    1
    91    94    20   ar
    92    95    94    1
    93    14    22   ar
    94    15    17   ar
    95    17    47   ar
    96    25    94   ar
    97    27    33   ar
    98    31    68   ar
    99    39    47   ar
   100    45    66   ar
@<TRIPOS>SUBSTRUCTURE
     1 RES1        1 GROUP             0 ****  ****    0  
@<TRIPOS>CRYSIN
   11.0008   11.2664   16.8497   92.5270  100.4650  119.1640     2     1
