@<TRIPOS>MOLECULE
GAMYOK
    95   100     1     0     0
SMALL
NO_CHARGES
****
Generated from the CSD

@<TRIPOS>ATOM
     1 Fe1     13.3546   9.7539  11.2812   Fe        1 RES1   0.0000
     2 Si1     13.8694   8.9576  13.3261   Si        1 RES1   0.0000
     3 P1      12.2595   7.7779  11.1454   P.3       1 RES1   0.0000
     4 P2      12.5883  11.4787  12.5251   P.3       1 RES1   0.0000
     5 P3      15.5879   9.7408  11.0610   P.3       1 RES1   0.0000
     6 C1      13.6948   7.0705  13.3711   C.ar      1 RES1   0.0000
     7 C2      14.2975   6.1890  14.2769   C.ar      1 RES1   0.0000
     8 H1      14.7631   6.5372  15.0271   H         1 RES1   0.0000
     9 C3      14.2264   4.8182  14.0967   C.ar      1 RES1   0.0000
    10 H2      14.6476   4.2377  14.7192   H         1 RES1   0.0000
    11 C4      13.5425   4.2875  13.0091   C.ar      1 RES1   0.0000
    12 H3      13.4950   3.3455  12.8912   H         1 RES1   0.0000
    13 C5      12.9310   5.1301  12.1000   C.ar      1 RES1   0.0000
    14 H4      12.4593   4.7675  11.3580   H         1 RES1   0.0000
    15 C6      13.0066   6.5163  12.2720   C.ar      1 RES1   0.0000
    16 C7      10.4413   7.6445  11.6332   C.3       1 RES1   0.0000
    17 H5       9.9434   8.3259  11.0975   H         1 RES1   0.0000
    18 C8      10.2180   7.9826  13.1074   C.3       1 RES1   0.0000
    19 H6       9.2555   8.0282  13.2892   H         1 RES1   0.0000
    20 H7      10.6310   8.8481  13.3105   H         1 RES1   0.0000
    21 H8      10.6237   7.2872  13.6676   H         1 RES1   0.0000
    22 C9       9.7839   6.2823  11.3547   C.3       1 RES1   0.0000
    23 H9      10.2331   5.5885  11.8805   H         1 RES1   0.0000
    24 H10      9.8620   6.0710  10.3997   H         1 RES1   0.0000
    25 H11      8.8368   6.3195  11.6037   H         1 RES1   0.0000
    26 C10     12.2049   6.9372   9.4710   C.3       1 RES1   0.0000
    27 H12     11.8248   6.0205   9.5955   H         1 RES1   0.0000
    28 C11     13.6062   6.7964   8.8862   C.3       1 RES1   0.0000
    29 H13     13.5575   6.3173   8.0328   H         1 RES1   0.0000
    30 H14     14.1724   6.2958   9.5103   H         1 RES1   0.0000
    31 H15     13.9901   7.6862   8.7404   H         1 RES1   0.0000
    32 C12     11.2938   7.7089   8.5160   C.3       1 RES1   0.0000
    33 H16     11.6079   8.6341   8.4407   H         1 RES1   0.0000
    34 H17     10.3766   7.7028   8.8617   H         1 RES1   0.0000
    35 H18     11.3120   7.2843   7.6331   H         1 RES1   0.0000
    36 C13     15.6646   9.3865  13.7741   C.ar      1 RES1   0.0000
    37 C14     16.2223   9.3878  15.0533   C.ar      1 RES1   0.0000
    38 H19     15.7181   9.0545  15.7872   H         1 RES1   0.0000
    39 C15     17.5163   9.8743  15.2679   C.ar      1 RES1   0.0000
    40 H20     17.8869   9.8735  16.1426   H         1 RES1   0.0000
    41 C16     18.2556  10.3573  14.2016   C.ar      1 RES1   0.0000
    42 H21     19.1321  10.6958  14.3490   H         1 RES1   0.0000
    43 C17     17.7255  10.3521  12.9223   C.ar      1 RES1   0.0000
    44 H22     18.2407  10.6785  12.1950   H         1 RES1   0.0000
    45 C18     16.4356   9.8671  12.6979   C.ar      1 RES1   0.0000
    46 C19     16.5268   8.2543  10.3604   C.3       1 RES1   0.0000
    47 H23     16.0670   7.9941   9.5103   H         1 RES1   0.0000
    48 C20     16.4386   7.0454  11.3007   C.3       1 RES1   0.0000
    49 H24     16.8035   6.2547  10.8535   H         1 RES1   0.0000
    50 H25     15.5011   6.8831  11.5382   H         1 RES1   0.0000
    51 H26     16.9539   7.2263  12.1147   H         1 RES1   0.0000
    52 C21     18.0088   8.4862  10.0115   C.3       1 RES1   0.0000
    53 H27     18.4952   8.7565  10.8191   H         1 RES1   0.0000
    54 H28     18.0782   9.1925   9.3367   H         1 RES1   0.0000
    55 H29     18.3955   7.6578   9.6594   H         1 RES1   0.0000
    56 C22     16.3567  11.0759   9.9919   C.3       1 RES1   0.0000
    57 H30     17.3504  11.0038  10.0738   H         1 RES1   0.0000
    58 C23     15.9458  12.4853  10.4309   C.3       1 RES1   0.0000
    59 H31     16.3750  13.1470   9.8494   H         1 RES1   0.0000
    60 H32     16.2282  12.6343  11.3580   H         1 RES1   0.0000
    61 H33     14.9725  12.5769  10.3670   H         1 RES1   0.0000
    62 C24     14.7327  12.6990  13.9116   C.3       1 RES1   0.0000
    63 H34     15.2663  13.5058  14.0656   H         1 RES1   0.0000
    64 H35     15.2892  12.0148  13.4858   H         1 RES1   0.0000
    65 H36     14.3981  12.3610  14.7683   H         1 RES1   0.0000
    66 C25     15.9846  10.8534   8.5209   C.3       1 RES1   0.0000
    67 H37     15.0109  10.8959   8.4194   H         1 RES1   0.0000
    68 H38     16.3049   9.9728   8.2327   H         1 RES1   0.0000
    69 H39     16.4013  11.5481   7.9689   H         1 RES1   0.0000
    70 C26     12.7319   9.7210  14.6340   C.ar      1 RES1   0.0000
    71 C27     12.3929   9.1975  15.8855   C.ar      1 RES1   0.0000
    72 H40     12.8352   8.4167  16.1967   H         1 RES1   0.0000
    73 C28     11.4259   9.7911  16.6832   C.ar      1 RES1   0.0000
    74 H41     11.2064   9.4168  17.5284   H         1 RES1   0.0000
    75 C29     10.7783  10.9387  16.2360   C.ar      1 RES1   0.0000
    76 H42     10.1100  11.3468  16.7733   H         1 RES1   0.0000
    77 C30     11.1086  11.4891  14.9993   C.ar      1 RES1   0.0000
    78 H43     10.6771  12.2823  14.7044   H         1 RES1   0.0000
    79 C31     12.0671  10.8842  14.1917   C.ar      1 RES1   0.0000
    80 C32     13.5508  13.0347  13.0009   C.3       1 RES1   0.0000
    81 H44     13.9296  13.4161  12.1573   H         1 RES1   0.0000
    82 C33     12.7304  14.1489  13.6709   C.3       1 RES1   0.0000
    83 H45     12.3504  13.8152  14.5112   H         1 RES1   0.0000
    84 H46     12.0060  14.4262  13.0730   H         1 RES1   0.0000
    85 H47     13.3123  14.9157  13.8592   H         1 RES1   0.0000
    86 C34     11.0528  12.2667  11.8035   C.3       1 RES1   0.0000
    87 H48     10.6575  12.8708  12.4964   H         1 RES1   0.0000
    88 C35     10.0051  11.2198  11.4317   C.3       1 RES1   0.0000
    89 H49      9.2234  11.6651  11.0435   H         1 RES1   0.0000
    90 H50      9.7356  10.7281  12.2360   H         1 RES1   0.0000
    91 H51     10.3848  10.5962  10.7781   H         1 RES1   0.0000
    92 C36     11.3966  13.1133  10.5668   C.3       1 RES1   0.0000
    93 H52     11.7180  12.5290   9.8494   H         1 RES1   0.0000
    94 H53     12.0965  13.7599  10.7994   H         1 RES1   0.0000
    95 H54     10.5966  13.5925  10.2654   H         1 RES1   0.0000
@<TRIPOS>BOND
     1     1     2    1
     2     2     6    1
     3     3     1    1
     4     4     1    1
     5     5     1    1
     6     6     7   ar
     7     7     8    1
     8     9     7   ar
     9    10     9    1
    10    11     9   ar
    11    12    11    1
    12    13    11   ar
    13    14    13    1
    14    15     3    1
    15    16     3    1
    16    17    16    1
    17    18    16    1
    18    19    18    1
    19    20    18    1
    20    21    18    1
    21    22    16    1
    22    23    22    1
    23    24    22    1
    24    25    22    1
    25    26     3    1
    26    27    26    1
    27    28    26    1
    28    29    28    1
    29    30    28    1
    30    31    28    1
    31    32    26    1
    32    33    32    1
    33    34    32    1
    34    35    32    1
    35    36     2    1
    36    37    36   ar
    37    38    37    1
    38    39    37   ar
    39    40    39    1
    40    41    39   ar
    41    42    41    1
    42    43    41   ar
    43    44    43    1
    44    45     5    1
    45    46     5    1
    46    47    46    1
    47    48    46    1
    48    49    48    1
    49    50    48    1
    50    51    48    1
    51    52    46    1
    52    53    52    1
    53    54    52    1
    54    55    52    1
    55    56     5    1
    56    57    56    1
    57    58    56    1
    58    59    58    1
    59    60    58    1
    60    61    58    1
    61    62    63    1
    62    64    62    1
    63    65    62    1
    64    66    56    1
    65    67    66    1
    66    68    66    1
    67    69    66    1
    68    70     2    1
    69    71    70   ar
    70    72    71    1
    71    73    71   ar
    72    74    73    1
    73    75    73   ar
    74    76    75    1
    75    77    75   ar
    76    78    77    1
    77    79     4    1
    78    80     4    1
    79    81    80    1
    80    82    80    1
    81    83    82    1
    82    84    82    1
    83    85    82    1
    84    86     4    1
    85    87    86    1
    86    88    86    1
    87    89    88    1
    88    90    88    1
    89    91    88    1
    90    92    86    1
    91    93    92    1
    92    94    92    1
    93    95    92    1
    94     6    15   ar
    95    13    15   ar
    96    36    45   ar
    97    43    45   ar
    98    62    80    1
    99    70    79   ar
   100    77    79   ar
@<TRIPOS>SUBSTRUCTURE
     1 RES1        1 GROUP             0 ****  ****    0  
@<TRIPOS>CRYSIN
   11.0028   11.2698   16.8580   77.3180   79.4200   60.8210     2     1
