@<TRIPOS>MOLECULE
GAMZAX
    98   103     1     0     0
SMALL
NO_CHARGES
****
Generated from the CSD

@<TRIPOS>ATOM
     1 Fe1      3.6061   9.5293   3.6489   Fe        1 RES1   0.0000
     2 P1       2.7019  10.7979   1.9990   P.3       1 RES1   0.0000
     3 P2       5.4588  10.5956   4.2988   P.3       1 RES1   0.0000
     4 P3       2.8022   7.4164   3.5550   P.3       1 RES1   0.0000
     5 Si1      4.8778   8.7938   1.9602   Si        1 RES1   0.0000
     6 C1       5.4123  12.4686   4.5599   C.3       1 RES1   0.0000
     7 H1       5.4814  12.8742   3.6480   H         1 RES1   0.0000
     8 N1       2.5568  10.0767   5.0426   N.1       1 RES1   0.0000
     9 C2       2.2525   6.6972   5.1949   C.3       1 RES1   0.0000
    10 H2       2.1872   5.7083   5.0638   H         1 RES1   0.0000
    11 C3       6.5660   9.6354   1.9484   C.ar      1 RES1   0.0000
    12 C4       6.8540  10.3955   3.0946   C.ar      1 RES1   0.0000
    13 C5       2.9260   9.9794   0.3610   C.ar      1 RES1   0.0000
    14 C6       2.1099  10.1564  -0.7588   C.ar      1 RES1   0.0000
    15 H3       1.3591  10.7354  -0.7129   H         1 RES1   0.0000
    16 C7       5.1126   6.9191   2.1449   C.ar      1 RES1   0.0000
    17 C8       6.1031   6.1243   1.5577   C.ar      1 RES1   0.0000
    18 H4       6.7311   6.5212   0.9633   H         1 RES1   0.0000
    19 C9       4.3234   8.4868  -0.9191   C.ar      1 RES1   0.0000
    20 H5       5.0855   7.9248  -0.9850   H         1 RES1   0.0000
    21 C10      8.1151  10.9921   3.2301   C.ar      1 RES1   0.0000
    22 H6       8.3422  11.4460   4.0337   H         1 RES1   0.0000
    23 N2       1.9375  10.3956   5.8938   N.1       1 RES1   0.0000
    24 C11      4.7689  12.4375   0.9468   C.3       1 RES1   0.0000
    25 H7       4.7050  12.0307   0.0568   H         1 RES1   0.0000
    26 H8       5.3503  11.8907   1.5160   H         1 RES1   0.0000
    27 H9       5.1443  13.3389   0.8682   H         1 RES1   0.0000
    28 C12      5.2941   4.1838   2.7219   C.ar      1 RES1   0.0000
    29 H10      5.3691   3.2612   2.9334   H         1 RES1   0.0000
    30 C13      6.1843   4.7598   1.8304   C.ar      1 RES1   0.0000
    31 H11      6.8459   4.2271   1.4075   H         1 RES1   0.0000
    32 C14      4.1805   6.3128   3.0092   C.ar      1 RES1   0.0000
    33 C15      1.4070   6.6942   2.4695   C.3       1 RES1   0.0000
    34 H12      0.6076   7.2777   2.6079   H         1 RES1   0.0000
    35 C16      6.8506   8.5902   5.7034   C.3       1 RES1   0.0000
    36 H13      7.2967   8.3212   6.5330   H         1 RES1   0.0000
    37 H14      7.4920   8.5601   4.9636   H         1 RES1   0.0000
    38 H15      6.1107   7.9765   5.5179   H         1 RES1   0.0000
    39 C17      6.3109  10.0116   5.8527   C.3       1 RES1   0.0000
    40 H16      7.0994  10.6095   5.9954   H         1 RES1   0.0000
    41 C18      3.2460   6.9181   6.3339   C.3       1 RES1   0.0000
    42 H17      3.2960   7.8742   6.5431   H         1 RES1   0.0000
    43 H18      4.1315   6.5965   6.0622   H         1 RES1   0.0000
    44 H19      2.9470   6.4259   7.1274   H         1 RES1   0.0000
    45 C19      5.4224  10.1411   7.0925   C.3       1 RES1   0.0000
    46 H20      4.6328   9.5683   6.9905   H         1 RES1   0.0000
    47 H21      5.1374  11.0730   7.1959   H         1 RES1   0.0000
    48 H22      5.9260   9.8636   7.8854   H         1 RES1   0.0000
    49 C20      3.5096   8.6701  -2.0304   C.ar      1 RES1   0.0000
    50 H23      3.7185   8.2354  -2.8483   H         1 RES1   0.0000
    51 C21      0.6062  12.1892   3.2088   C.3       1 RES1   0.0000
    52 H24     -0.3429  12.4248   3.2106   H         1 RES1   0.0000
    53 H25      1.1412  12.9966   3.0603   H         1 RES1   0.0000
    54 H26      0.8456  11.7907   4.0704   H         1 RES1   0.0000
    55 C22      4.2952   4.9471   3.3059   C.ar      1 RES1   0.0000
    56 H27      3.6833   4.5424   3.9101   H         1 RES1   0.0000
    57 C23      6.5264  13.1147   5.3901   C.3       1 RES1   0.0000
    58 H28      6.4216  14.0895   5.3744   H         1 RES1   0.0000
    59 H29      7.3992  12.8742   5.0121   H         1 RES1   0.0000
    60 H30      6.4732  12.7942   6.3143   H         1 RES1   0.0000
    61 C24      2.3989   9.4828  -1.9454   C.ar      1 RES1   0.0000
    62 H31      1.8280   9.5836  -2.6980   H         1 RES1   0.0000
    63 C25      9.0349  10.9214   2.1942   C.ar      1 RES1   0.0000
    64 H32      9.8885  11.3307   2.2907   H         1 RES1   0.0000
    65 C26      1.7469   6.7646   0.9774   C.3       1 RES1   0.0000
    66 H33      2.5134   6.1859   0.7897   H         1 RES1   0.0000
    67 H34      1.9667   7.6883   0.7363   H         1 RES1   0.0000
    68 H35      0.9767   6.4648   0.4525   H         1 RES1   0.0000
    69 C27      3.3706  12.5182   1.5714   C.3       1 RES1   0.0000
    70 H36      3.4605  13.0213   2.4309   H         1 RES1   0.0000
    71 C28      0.0268   9.9389   2.2793   C.3       1 RES1   0.0000
    72 H37      0.2869   9.4883   3.1087   H         1 RES1   0.0000
    73 H38      0.1606   9.3307   1.5227   H         1 RES1   0.0000
    74 H39     -0.9187  10.1954   2.3307   H         1 RES1   0.0000
    75 C29      8.7169  10.2566   1.0189   C.ar      1 RES1   0.0000
    76 H40      9.3282  10.2542   0.2922   H         1 RES1   0.0000
    77 C30      4.0361   9.1162   0.2927   C.ar      1 RES1   0.0000
    78 C31      4.0645  12.9361   5.1281   C.3       1 RES1   0.0000
    79 H41      3.9887  12.6507   6.0622   H         1 RES1   0.0000
    80 H42      3.3357  12.5425   4.6047   H         1 RES1   0.0000
    81 H43      4.0103  13.9131   5.0788   H         1 RES1   0.0000
    82 C32      7.5054   9.5964   0.9114   C.ar      1 RES1   0.0000
    83 H44      7.3067   9.1083   0.1202   H         1 RES1   0.0000
    84 C33      0.8799  11.1816   2.0866   C.3       1 RES1   0.0000
    85 H45      0.6141  11.6060   1.2205   H         1 RES1   0.0000
    86 C34      2.4891  13.3696   0.6381   C.3       1 RES1   0.0000
    87 H46      2.9342  14.2236   0.4575   H         1 RES1   0.0000
    88 H47      1.6264  13.5378   1.0685   H         1 RES1   0.0000
    89 H48      2.3475  12.8895  -0.2054   H         1 RES1   0.0000
    90 C35      0.9625   5.2552   2.7855   C.3       1 RES1   0.0000
    91 H49      0.2216   5.0047   2.1938   H         1 RES1   0.0000
    92 H50      0.6674   5.2012   3.7181   H         1 RES1   0.0000
    93 H51      1.7150   4.6424   2.6446   H         1 RES1   0.0000
    94 C36      0.8491   7.1782   5.6038   C.3       1 RES1   0.0000
    95 H52      0.5430   6.6683   6.3828   H         1 RES1   0.0000
    96 H53      0.2254   7.0412   4.8585   H         1 RES1   0.0000
    97 H54      0.8841   8.1307   5.8302   H         1 RES1   0.0000
    98 H55      4.3588   8.5648   4.4244   H         1 RES1   0.0000
@<TRIPOS>BOND
     1     1     2    1
     2     2    13    1
     3     3     1    1
     4     4     1    1
     5     5     1    1
     6     6     3    1
     7     7     6    1
     8     8     1    1
     9     9     4    1
    10    10     9    1
    11    11     5    1
    12    12     3    1
    13    13    14   ar
    14    14    15    1
    15    16     5    1
    16    17    16   ar
    17    18    17    1
    18    19    20    1
    19    21    12   ar
    20    22    21    1
    21    23     8    3
    22    24    25    1
    23    26    24    1
    24    27    24    1
    25    28    29    1
    26    30    17   ar
    27    31    30    1
    28    32     4    1
    29    33     4    1
    30    34    33    1
    31    35    36    1
    32    37    35    1
    33    38    35    1
    34    39     3    1
    35    40    39    1
    36    41     9    1
    37    42    41    1
    38    43    41    1
    39    44    41    1
    40    45    39    1
    41    46    45    1
    42    47    45    1
    43    48    45    1
    44    49    19   ar
    45    50    49    1
    46    51    52    1
    47    53    51    1
    48    54    51    1
    49    55    28   ar
    50    56    55    1
    51    57     6    1
    52    58    57    1
    53    59    57    1
    54    60    57    1
    55    61    14   ar
    56    62    61    1
    57    63    21   ar
    58    64    63    1
    59    65    33    1
    60    66    65    1
    61    67    65    1
    62    68    65    1
    63    69     2    1
    64    70    69    1
    65    71    72    1
    66    73    71    1
    67    74    71    1
    68    75    63   ar
    69    76    75    1
    70    77     5    1
    71    78     6    1
    72    79    78    1
    73    80    78    1
    74    81    78    1
    75    82    11   ar
    76    83    82    1
    77    84     2    1
    78    85    84    1
    79    86    69    1
    80    87    86    1
    81    88    86    1
    82    89    86    1
    83    90    33    1
    84    91    90    1
    85    92    90    1
    86    93    90    1
    87    94     9    1
    88    95    94    1
    89    96    94    1
    90    97    94    1
    91    98     1    1
    92    11    12   ar
    93    13    77   ar
    94    16    32   ar
    95    19    77   ar
    96    24    69    1
    97    28    30   ar
    98    32    55   ar
    99    35    39    1
   100    49    61   ar
   101    51    84    1
   102    71    84    1
   103    75    82   ar
@<TRIPOS>SUBSTRUCTURE
     1 RES1        1 GROUP             0 ****  ****    0  
@<TRIPOS>CRYSIN
   36.6124   11.7648   17.2209   90.0000  104.1860   90.0000    15     1
