@<TRIPOS>MOLECULE
GAVJUK
    81    83     1     0     0
SMALL
NO_CHARGES
****
Generated from the CSD

@<TRIPOS>ATOM
     1 Fe1      9.6286  12.0611   3.3734   Fe        1 RES1   0.0000
     2 H1      10.3724  10.9699   3.8948   H         1 RES1   0.0000
     3 P1       9.8213  10.7658   1.6402   P.3       1 RES1   0.0000
     4 P2       9.1067  12.0993   5.4847   P.3       1 RES1   0.0000
     5 P3      11.5468  13.1718   3.3665   P.3       1 RES1   0.0000
     6 P4       8.3157  13.7448   2.6378   P.3       1 RES1   0.0000
     7 O1       8.2905  10.1992   1.2362   O.3       1 RES1   0.0000
     8 O2       7.4418  11.8817   5.5850   O.3       1 RES1   0.0000
     9 C1       7.9054  11.0444   3.4197   C.ar      1 RES1   0.0000
    10 C2       7.4350  10.3163   2.3218   C.ar      1 RES1   0.0000
    11 C3       6.1696   9.7502   2.2574   C.ar      1 RES1   0.0000
    12 H2       5.8920   9.2620   1.4908   H         1 RES1   0.0000
    13 C4       5.3174   9.9156   3.3423   C.ar      1 RES1   0.0000
    14 H3       4.4413   9.5482   3.3102   H         1 RES1   0.0000
    15 C5       5.7285  10.6132   4.4763   C.ar      1 RES1   0.0000
    16 H4       5.1499  10.7174   5.2222   H         1 RES1   0.0000
    17 C6       7.0081  11.1516   4.4817   C.ar      1 RES1   0.0000
    18 C7      10.4106  11.1334  -0.0953   C.3       1 RES1   0.0000
    19 H5      11.4039  11.2347  -0.0508   H         1 RES1   0.0000
    20 C8      10.1187  10.0315  -1.1202   C.3       1 RES1   0.0000
    21 H6       9.1543   9.8573  -1.1476   H         1 RES1   0.0000
    22 H7      10.5908   9.2130  -0.8625   H         1 RES1   0.0000
    23 H8      10.4226  10.3195  -2.0064   H         1 RES1   0.0000
    24 C9       9.8534  12.4545  -0.6056   C.3       1 RES1   0.0000
    25 H9       8.8902  12.3641  -0.7644   H         1 RES1   0.0000
    26 H10     10.3002  12.6962  -1.4435   H         1 RES1   0.0000
    27 H11     10.0100  13.1553   0.0617   H         1 RES1   0.0000
    28 C10     10.6508   9.1181   1.8851   C.3       1 RES1   0.0000
    29 H12     10.5146   8.5886   1.0477   H         1 RES1   0.0000
    30 C11     12.1556   9.2634   2.0916   C.3       1 RES1   0.0000
    31 H13     12.5734   8.3774   2.0845   H         1 RES1   0.0000
    32 H14     12.3276   9.6981   2.9525   H         1 RES1   0.0000
    33 H15     12.5338   9.8083   1.3691   H         1 RES1   0.0000
    34 C12     10.0275   8.3197   3.0331   C.3       1 RES1   0.0000
    35 H16     10.4499   7.4362   3.0832   H         1 RES1   0.0000
    36 H17      9.0664   8.2137   2.8744   H         1 RES1   0.0000
    37 H18     10.1685   8.7967   3.8767   H         1 RES1   0.0000
    38 C13      9.2502  13.5485   6.6526   C.3       1 RES1   0.0000
    39 H19      9.2337  14.3643   6.0756   H         1 RES1   0.0000
    40 C14     10.5971  13.5777   7.3762   C.3       1 RES1   0.0000
    41 H20     10.7125  14.4470   7.8169   H         1 RES1   0.0000
    42 H21     11.3196  13.4430   6.7275   H         1 RES1   0.0000
    43 H22     10.6230  12.8661   8.0475   H         1 RES1   0.0000
    44 C15      8.1040  13.7245   7.6557   C.3       1 RES1   0.0000
    45 H23      8.2293  14.5602   8.1510   H         1 RES1   0.0000
    46 H24      8.0996  12.9717   8.2818   H         1 RES1   0.0000
    47 H25      7.2508  13.7552   7.1741   H         1 RES1   0.0000
    48 C16      9.5461  10.5538   6.4482   C.3       1 RES1   0.0000
    49 H26      9.1782   9.8068   5.8940   H         1 RES1   0.0000
    50 C17     11.0331  10.2353   6.5620   C.3       1 RES1   0.0000
    51 H27     11.1467   9.3293   6.9181   H         1 RES1   0.0000
    52 H28     11.4600  10.8796   7.1651   H         1 RES1   0.0000
    53 H29     11.4478  10.2919   5.6761   H         1 RES1   0.0000
    54 C18      8.8420  10.3965   7.8055   C.3       1 RES1   0.0000
    55 H30      9.2643  10.9867   8.4633   H         1 RES1   0.0000
    56 H31      8.9157   9.4671   8.1056   H         1 RES1   0.0000
    57 H32      7.8953  10.6347   7.7116   H         1 RES1   0.0000
    58 C19     12.4463  13.4614   1.7918   C.3       1 RES1   0.0000
    59 H33     13.2276  14.0276   1.9610   H         1 RES1   0.0000
    60 H34     11.8519  13.9067   1.1530   H         1 RES1   0.0000
    61 H35     12.7406  12.6028   1.4218   H         1 RES1   0.0000
    62 C20     12.9466  12.4628   4.3139   C.3       1 RES1   0.0000
    63 H36     13.7238  13.0558   4.2417   H         1 RES1   0.0000
    64 H37     13.1741  11.5821   3.9511   H         1 RES1   0.0000
    65 H38     12.6919  12.3718   5.2549   H         1 RES1   0.0000
    66 C21     11.6155  14.8876   4.0319   C.3       1 RES1   0.0000
    67 H39     12.5477  15.1892   4.0619   H         1 RES1   0.0000
    68 H40     11.2389  14.9030   4.9371   H         1 RES1   0.0000
    69 H41     11.0970  15.4846   3.4518   H         1 RES1   0.0000
    70 C22      6.9074  13.3107   1.5311   C.3       1 RES1   0.0000
    71 H42      6.4833  14.1317   1.2039   H         1 RES1   0.0000
    72 H43      6.2506  12.7819   2.0300   H         1 RES1   0.0000
    73 H44      7.2374  12.7880   0.7699   H         1 RES1   0.0000
    74 C23      8.9708  15.2082   1.7139   C.3       1 RES1   0.0000
    75 H45      9.5542  14.9015   0.9896   H         1 RES1   0.0000
    76 H46      9.4810  15.7784   2.3260   H         1 RES1   0.0000
    77 H47      8.2226  15.7187   1.3382   H         1 RES1   0.0000
    78 C24      7.3463  14.6876   3.8814   C.3       1 RES1   0.0000
    79 H48      6.7164  15.2826   3.4227   H         1 RES1   0.0000
    80 H49      7.9556  15.2214   4.4341   H         1 RES1   0.0000
    81 H50      6.8506  14.0628   4.4505   H         1 RES1   0.0000
@<TRIPOS>BOND
     1     1     2    1
     2     3     1    1
     3     4     1    1
     4     5     1    1
     5     6     1    1
     6     7     3    1
     7     8     4    1
     8     9     1    1
     9    10     7    1
    10    11    10   ar
    11    12    11    1
    12    13    11   ar
    13    14    13    1
    14    15    13   ar
    15    16    15    1
    16    17     8    1
    17    18     3    1
    18    19    18    1
    19    20    18    1
    20    21    20    1
    21    22    20    1
    22    23    20    1
    23    24    18    1
    24    25    24    1
    25    26    24    1
    26    27    24    1
    27    28     3    1
    28    29    28    1
    29    30    28    1
    30    31    30    1
    31    32    30    1
    32    33    30    1
    33    34    28    1
    34    35    34    1
    35    36    34    1
    36    37    34    1
    37    38     4    1
    38    39    38    1
    39    40    38    1
    40    41    40    1
    41    42    40    1
    42    43    40    1
    43    44    38    1
    44    45    44    1
    45    46    44    1
    46    47    44    1
    47    48     4    1
    48    49    48    1
    49    50    48    1
    50    51    50    1
    51    52    50    1
    52    53    50    1
    53    54    48    1
    54    55    54    1
    55    56    54    1
    56    57    54    1
    57    58     5    1
    58    59    58    1
    59    60    58    1
    60    61    58    1
    61    62     5    1
    62    63    62    1
    63    64    62    1
    64    65    62    1
    65    66     5    1
    66    67    66    1
    67    68    66    1
    68    69    66    1
    69    70     6    1
    70    71    70    1
    71    72    70    1
    72    73    70    1
    73    74     6    1
    74    75    74    1
    75    76    74    1
    76    77    74    1
    77    78     6    1
    78    79    78    1
    79    80    78    1
    80    81    78    1
    81     9    10   ar
    82     9    17   ar
    83    15    17   ar
@<TRIPOS>SUBSTRUCTURE
     1 RES1        1 GROUP             0 ****  ****    0  
@<TRIPOS>CRYSIN
   10.3557   15.3040   18.1959   90.0000   93.7100   90.0000   231     1
