@<TRIPOS>MOLECULE
GAYBUF
    86    96     2     0     0
SMALL
USER_CHARGES
****
Generated from the CSD

@<TRIPOS>ATOM
     1 Fe1     -1.4235   0.4434   8.1110   Fe        1 RES1   2.0000
     2 N1      -3.0592  -1.0179   8.2152   N.2       1 RES1   0.0000
     3 N2      -1.9615  -0.1155   6.1027   N.ar      1 RES1   0.0000
     4 N3      -0.5731   1.9196   6.7828   N.2       1 RES1   0.0000
     5 N4      -0.5518   1.5451   5.4568   N.pl3     1 RES1   0.0000
     6 N5      -3.3876  -1.6275   7.0355   N.pl3     1 RES1   0.0000
     7 C1      -2.9051  -1.7381   4.6317   C.ar      1 RES1   0.0000
     8 H1      -3.4875  -2.4780   4.5032   H         1 RES1   0.0000
     9 C2      -2.1830  -1.1912   3.5530   C.ar      1 RES1   0.0000
    10 C3      -2.7457  -1.1722   5.8708   C.ar      1 RES1   0.0000
    11 C4      -3.8600  -1.5764   9.1188   C.2       1 RES1   0.0000
    12 H2      -3.8608  -1.3611  10.0447   H         1 RES1   0.0000
    13 C5       0.0335   3.0918   6.8104   C.2       1 RES1   0.0000
    14 H3       0.1667   3.6040   7.5984   H         1 RES1   0.0000
    15 C6      -2.2294  -1.3801   0.9954   C.2       1 RES1   0.0000
    16 H4      -2.3036  -2.0499   0.3244   H         1 RES1   0.0000
    17 C7       0.4605   3.4894   5.5295   C.2       1 RES1   0.0000
    18 H5       0.9285   4.2829   5.2981   H         1 RES1   0.0000
    19 C8       0.0578   2.4871   4.6892   C.2       1 RES1   0.0000
    20 H6       0.1798   2.4558   3.7473   H         1 RES1   0.0000
    21 C9      -4.7046  -2.5234   8.5257   C.2       1 RES1   0.0000
    22 H7      -5.3704  -3.0464   8.9546   H         1 RES1   0.0000
    23 C10     -4.3728  -2.5391   7.2029   C.2       1 RES1   0.0000
    24 H8      -4.7597  -3.0860   6.5278   H         1 RES1   0.0000
    25 C11     -2.0651   2.3799   0.6025   C.ar      1 RES1   0.0000
    26 H9      -2.2275   3.1726   1.0999   H         1 RES1   0.0000
    27 N6      -1.1142   4.7870  -1.7471   N.1       1 RES1   0.0000
    28 C12     -1.5670   2.4640  -0.7057   C.ar      1 RES1   0.0000
    29 C13     -1.3303  -0.1023   3.7956   C.ar      1 RES1   0.0000
    30 H10     -0.8014   0.2714   3.1017   H         1 RES1   0.0000
    31 C14     -1.5898   0.0734  -0.8637   C.ar      1 RES1   0.0000
    32 H11     -1.4433  -0.7168  -1.3691   H         1 RES1   0.0000
    33 C15     -2.0369  -0.0305   0.4662   C.ar      1 RES1   0.0000
    34 C16     -2.3223  -1.8511   2.2490   C.2       1 RES1   0.0000
    35 H12     -2.5138  -2.7808   2.3035   H         1 RES1   0.0000
    36 C17     -1.3623   1.3017  -1.4441   C.ar      1 RES1   0.0000
    37 H13     -1.0669   1.3562  -2.3457   H         1 RES1   0.0000
    38 C18     -2.3183   1.1507   1.1647   C.ar      1 RES1   0.0000
    39 H14     -2.6880   1.1029   2.0375   H         1 RES1   0.0000
    40 C19     -1.3159   3.7500  -1.2971   C.1       1 RES1   0.0000
    41 C20     -1.2899   0.4067   5.0791   C.ar      1 RES1   0.0000
    42 N1A      0.2123  -1.0179   8.0069   N.2       1 RES1   0.0000
    43 N2A     -0.8855  -0.1155  10.1193   N.ar      1 RES1   0.0000
    44 N3A     -2.2739   1.9196   9.4393   N.2       1 RES1   0.0000
    45 N4A     -2.2952   1.5451  10.7653   N.pl3     1 RES1   0.0000
    46 N5A      0.5406  -1.6275   9.1866   N.pl3     1 RES1   0.0000
    47 C1A      0.0581  -1.7381  11.5903   C.ar      1 RES1   0.0000
    48 H1A      0.6406  -2.4780  11.7188   H         1 RES1   0.0000
    49 C2A     -0.6640  -1.1912  12.6691   C.ar      1 RES1   0.0000
    50 C3A     -0.1013  -1.1722  10.3513   C.ar      1 RES1   0.0000
    51 C4A      1.0131  -1.5764   7.1033   C.2       1 RES1   0.0000
    52 H2A      1.0139  -1.3611   6.1774   H         1 RES1   0.0000
    53 C5A     -2.8805   3.0918   9.4117   C.2       1 RES1   0.0000
    54 H3A     -3.0137   3.6040   8.6237   H         1 RES1   0.0000
    55 C6A     -0.6176  -1.3801  15.2267   C.2       1 RES1   0.0000
    56 H4A     -0.5433  -2.0499  15.8976   H         1 RES1   0.0000
    57 C7A     -3.3075   3.4894  10.6926   C.2       1 RES1   0.0000
    58 H5A     -3.7754   4.2829  10.9239   H         1 RES1   0.0000
    59 C8A     -2.9048   2.4871  11.5329   C.2       1 RES1   0.0000
    60 H6A     -3.0268   2.4558  12.4748   H         1 RES1   0.0000
    61 C9A      1.8576  -2.5234   7.6964   C.2       1 RES1   0.0000
    62 H7A      2.5235  -3.0464   7.2675   H         1 RES1   0.0000
    63 C10A     1.5259  -2.5391   9.0191   C.2       1 RES1   0.0000
    64 H8A      1.9127  -3.0860   9.6943   H         1 RES1   0.0000
    65 C11A    -0.7819   2.3799  15.6196   C.ar      1 RES1   0.0000
    66 H9A     -0.6195   3.1726  15.1222   H         1 RES1   0.0000
    67 N6A     -1.7328   4.7870  17.9692   N.1       1 RES1   0.0000
    68 C12A    -1.2800   2.4640  16.9277   C.ar      1 RES1   0.0000
    69 C13A    -1.5166  -0.1023  12.4264   C.ar      1 RES1   0.0000
    70 H10A    -2.0456   0.2714  13.1204   H         1 RES1   0.0000
    71 C14A    -1.2572   0.0734  17.0857   C.ar      1 RES1   0.0000
    72 H11A    -1.4037  -0.7168  17.5912   H         1 RES1   0.0000
    73 C15A    -0.8101  -0.0305  15.7559   C.ar      1 RES1   0.0000
    74 C16A    -0.5247  -1.8511  13.9730   C.2       1 RES1   0.0000
    75 H12A    -0.3332  -2.7808  13.9185   H         1 RES1   0.0000
    76 C17A    -1.4847   1.3017  17.6662   C.ar      1 RES1   0.0000
    77 H13A    -1.7801   1.3562  18.5678   H         1 RES1   0.0000
    78 C18A    -0.5287   1.1507  15.0573   C.ar      1 RES1   0.0000
    79 H14A    -0.1589   1.1029  14.1846   H         1 RES1   0.0000
    80 C19A    -1.5311   3.7500  17.5192   C.1       1 RES1   0.0000
    81 C20A    -1.5571   0.4067  11.1429   C.ar      1 RES1   0.0000
    82 F1       9.5063   3.8490   4.4702   F         2 RES2   0.0000
    83 F2      11.4671   3.1635   3.5354   F         2 RES2   0.0000
    84 F3      10.0525   1.6407   4.4604   F         2 RES2   0.0000
    85 F4      11.1950   3.0876   5.7877   F         2 RES2   0.0000
    86 B1      10.5620   2.9293   4.5668   B         2 RES2  -1.0000
@<TRIPOS>BOND
     1     1     2    1
     2     2     6    1
     3     3     1    1
     4     4     1    1
     5     5     4    1
     6     6    10    1
     7     7     8    1
     8     9     7   ar
     9    10     3   ar
    10    11     2    2
    11    12    11    1
    12    13     4    2
    13    14    13    1
    14    15    16    1
    15    17    13    1
    16    18    17    1
    17    19     5    1
    18    20    19    1
    19    21    11    1
    20    22    21    1
    21    23     6    1
    22    24    23    1
    23    25    26    1
    24    27    40    3
    25    28    25   ar
    26    29     9   ar
    27    30    29    1
    28    31    32    1
    29    33    15    1
    30    34     9    1
    31    35    34    1
    32    36    28   ar
    33    37    36    1
    34    38    25   ar
    35    39    38    1
    36    40    28    1
    37    41     3   ar
    38    42     1    1
    39    43     1    1
    40    44     1    1
    41    45    44    1
    42    46    42    1
    43    47    48    1
    44    49    47   ar
    45    50    43   ar
    46    51    42    2
    47    52    51    1
    48    53    44    2
    49    54    53    1
    50    55    56    1
    51    57    53    1
    52    58    57    1
    53    59    45    1
    54    60    59    1
    55    61    51    1
    56    62    61    1
    57    63    46    1
    58    64    63    1
    59    65    66    1
    60    67    80    3
    61    68    65   ar
    62    69    49   ar
    63    70    69    1
    64    71    72    1
    65    73    55    1
    66    74    49    1
    67    75    74    1
    68    76    68   ar
    69    77    76    1
    70    78    65   ar
    71    79    78    1
    72    80    68    1
    73    81    43   ar
    74     5    41    1
    75     7    10   ar
    76    15    34    2
    77    17    19    2
    78    21    23    2
    79    29    41   ar
    80    31    33   ar
    81    31    36   ar
    82    33    38   ar
    83    45    81    1
    84    46    50    1
    85    47    50   ar
    86    55    74    2
    87    57    59    2
    88    61    63    2
    89    69    81   ar
    90    71    73   ar
    91    71    76   ar
    92    73    78   ar
    93    82    86    1
    94    83    86    1
    95    84    86    1
    96    85    86    1
@<TRIPOS>SUBSTRUCTURE
     1 RES1        1 GROUP             0 ****  ****    0  
     2 RES2       82 GROUP             0 ****  ****    0  
@<TRIPOS>CRYSIN
   14.4390    8.2491   32.9400   90.0000   99.9540   90.0000    15     1
