@<TRIPOS>MOLECULE
GAYCIU
    94   102     4     0     0
SMALL
USER_CHARGES
****
Generated from the CSD

@<TRIPOS>ATOM
     1 Fe1      5.6867   4.7813   3.6421   Fe        1 RES1   2.0000
     2 O1      -2.6256  -2.1690  -4.4390   O.2       1 RES1   0.0000
     3 N1       6.1149   1.8140   3.2465   N.pl3     1 RES1   0.0000
     4 O2      12.2064  15.0538   9.4648   O.2       1 RES1   0.0000
     5 O4      -1.6506  -3.8861  -3.5474   O.2       1 RES1   0.0000
     6 N2       3.4799   5.1506   1.5858   N.pl3     1 RES1   0.0000
     7 N3      -1.7565  -2.6739  -3.7237   N.pl3     1 RES1   0.0000
     8 N4       6.5660   2.8218   4.0666   N.2       1 RES1   0.0000
     9 N5       8.2602   6.1858   2.9023   N.pl3     1 RES1   0.0000
    10 O5      13.3233  15.2697   7.6351   O.2       1 RES1   0.0000
    11 N6       4.7689   3.3969   2.2993   N.ar      1 RES1   0.0000
    12 N7       5.2271   6.1656   6.2948   N.pl3     1 RES1   0.0000
    13 N8       4.7317   5.1019   5.5887   N.2       1 RES1   0.0000
    14 N9       4.1568   5.8987   2.5162   N.2       1 RES1   0.0000
    15 N10      7.3987   5.2649   2.3709   N.2       1 RES1   0.0000
    16 C1       9.7257  10.3249   5.9533   C.2       1 RES1   0.0000
    17 H1      10.0263  10.0841   5.0849   H         1 RES1   0.0000
    18 C2      10.1364  11.8449   7.9190   C.ar      1 RES1   0.0000
    19 H2       9.5097  11.3551   8.4372   H         1 RES1   0.0000
    20 C3       3.1132   2.9242   0.6340   C.ar      1 RES1   0.0000
    21 H3       2.4367   3.2413   0.0478   H         1 RES1   0.0000
    22 N11     12.4596  14.7269   8.3127   N.pl3     1 RES1   0.0000
    23 C4      10.3839  11.4637   6.5931   C.ar      1 RES1   0.0000
    24 N12      6.7962   6.2985   4.6504   N.ar      1 RES1   0.0000
    25 C5      -0.8148  -1.7796  -3.0440   C.ar      1 RES1   0.0000
    26 C6       9.2951   5.3768   1.1507   C.2       1 RES1   0.0000
    27 H4       9.9355   5.2005   0.4719   H         1 RES1   0.0000
    28 C7       2.4905   5.8732   1.0089   C.2       1 RES1   0.0000
    29 H5       1.8817   5.5661   0.3474   H         1 RES1   0.0000
    30 C8       3.7901   3.7853   1.4721   C.ar      1 RES1   0.0000
    31 C9      10.7926  12.9285   8.4835   C.ar      1 RES1   0.0000
    32 H6      10.6175  13.1895   9.3809   H         1 RES1   0.0000
    33 C10      2.5296   7.1294   1.5546   C.2       1 RES1   0.0000
    34 H7       1.9669   7.8672   1.3519   H         1 RES1   0.0000
    35 C11      3.4529   1.5628   0.6760   C.ar      1 RES1   0.0000
    36 C12      0.1286  -2.3356  -2.1943   C.ar      1 RES1   0.0000
    37 H8       0.1908  -3.2779  -2.0858   H         1 RES1   0.0000
    38 C13     11.7127  13.6201   7.7047   C.ar      1 RES1   0.0000
    39 C14      0.8892  -0.0999  -1.6761   C.ar      1 RES1   0.0000
    40 C15      8.7310   9.5883   6.4831   C.2       1 RES1   0.0000
    41 H9       8.4190   9.8264   7.3487   H         1 RES1   0.0000
    42 C16      9.4020   6.2741   2.1813   C.2       1 RES1   0.0000
    43 H10     10.1378   6.8474   2.3579   H         1 RES1   0.0000
    44 C17      7.8802   6.8383   4.0890   C.ar      1 RES1   0.0000
    45 C18      6.3659   6.8188   5.7956   C.ar      1 RES1   0.0000
    46 C19     -0.0576   0.4147  -2.5533   C.ar      1 RES1   0.0000
    47 H11     -0.1167   1.3550  -2.6821   H         1 RES1   0.0000
    48 C20      4.4739   1.1512   1.5343   C.ar      1 RES1   0.0000
    49 H12      4.7284   0.2374   1.5835   H         1 RES1   0.0000
    50 C21     11.3164  12.1932   5.8564   C.ar      1 RES1   0.0000
    51 H13     11.4956  11.9412   4.9589   H         1 RES1   0.0000
    52 C22      8.5662   7.9139   4.6231   C.ar      1 RES1   0.0000
    53 H14      9.3284   8.2743   4.1875   H         1 RES1   0.0000
    54 C23      1.7348   0.8414  -0.9481   C.2       1 RES1   0.0000
    55 H15      1.5718   1.7634  -1.1073   H         1 RES1   0.0000
    56 C24      2.7088   0.5554  -0.0854   C.2       1 RES1   0.0000
    57 H16      2.9358  -0.3566   0.0434   H         1 RES1   0.0000
    58 C25      6.7927   0.6617   3.4652   C.2       1 RES1   0.0000
    59 H17      6.6567  -0.1647   3.0165   H         1 RES1   0.0000
    60 C26      6.9729   7.8854   6.4324   C.ar      1 RES1   0.0000
    61 H18      6.6351   8.2226   7.2546   H         1 RES1   0.0000
    62 C27      0.9762  -1.4884  -1.5097   C.ar      1 RES1   0.0000
    63 H19      1.6248  -1.8504  -0.9177   H         1 RES1   0.0000
    64 C28      5.1057   2.1081   2.3119   C.ar      1 RES1   0.0000
    65 C29      8.0995   8.4530   5.8289   C.ar      1 RES1   0.0000
    66 C30      3.5858   7.0856   2.4824   C.2       1 RES1   0.0000
    67 H20      3.8547   7.8214   3.0194   H         1 RES1   0.0000
    68 C31      8.0435   4.7774   1.3114   C.2       1 RES1   0.0000
    69 H21      7.6940   4.1055   0.7382   H         1 RES1   0.0000
    70 C32      7.7031   0.9066   4.4451   C.2       1 RES1   0.0000
    71 H22      8.3211   0.2927   4.8214   H         1 RES1   0.0000
    72 C33      3.6937   4.6739   6.3094   C.2       1 RES1   0.0000
    73 H23      3.1487   3.9339   6.0720   H         1 RES1   0.0000
    74 C34      7.5360   2.2594   4.7853   C.2       1 RES1   0.0000
    75 H24      8.0505   2.7156   5.4409   H         1 RES1   0.0000
    76 C35     -0.9190  -0.4263  -3.2437   C.ar      1 RES1   0.0000
    77 H25     -1.5671  -0.0729  -3.8430   H         1 RES1   0.0000
    78 C36      3.5115   5.4545   7.4572   C.2       1 RES1   0.0000
    79 H26      2.8432   5.3485   8.1245   H         1 RES1   0.0000
    80 C37     11.9839  13.2722   6.3977   C.ar      1 RES1   0.0000
    81 H27     12.6144  13.7628   5.8839   H         1 RES1   0.0000
    82 C38      4.5011   6.4014   7.4153   C.2       1 RES1   0.0000
    83 H28      4.6499   7.0907   8.0521   H         1 RES1   0.0000
    84 F1       1.5206   3.6711  -3.6645   F         2 RES2   0.0000
    85 F4       3.1270   3.7418  -5.2392   F         2 RES2   0.0000
    86 F7       1.6682   1.9915  -5.1962   F         2 RES2   0.0000
    87 F8       3.2387   2.2160  -3.5629   F         2 RES2   0.0000
    88 B1       2.4053   2.8828  -4.4089   B         2 RES2  -1.0000
    89 F2       3.8267  -2.1401  11.6959   F         3 RES3   0.0000
    90 F3       4.1736  -4.3743  11.8103   F         3 RES3   0.0000
    91 F5       5.4483  -2.9665  13.0461   F         3 RES3   0.0000
    92 F6       3.2812  -3.2868  13.5896   F         3 RES3   0.0000
    93 B2       4.1598  -3.2051  12.5262   B         3 RES3  -1.0000
    94 O3       0.5087   4.1674  -1.1888   O.3       4 RES4   0.0000
@<TRIPOS>BOND
     1     1     8    1
     2     2     7    2
     3     3     8    1
     4     4    22    2
     5     5     7    2
     6     6    14    1
     7     7    25    1
     8     8    74    2
     9     9    15    1
    10    10    22    2
    11    11     1    1
    12    12    13    1
    13    13     1    1
    14    14     1    1
    15    15     1    1
    16    16    17    1
    17    18    19    1
    18    20    21    1
    19    22    38    1
    20    23    16    1
    21    24     1    1
    22    25    36   ar
    23    26    27    1
    24    28     6    1
    25    29    28    1
    26    30     6    1
    27    31    18   ar
    28    32    31    1
    29    33    28    2
    30    34    33    1
    31    35    20   ar
    32    36    37    1
    33    38    31   ar
    34    39    46   ar
    35    40    16    2
    36    41    40    1
    37    42     9    1
    38    43    42    1
    39    44     9    1
    40    45    12    1
    41    46    47    1
    42    48    35   ar
    43    49    48    1
    44    50    23   ar
    45    51    50    1
    46    52    44   ar
    47    53    52    1
    48    54    39    1
    49    55    54    1
    50    56    35    1
    51    57    56    1
    52    58     3    1
    53    59    58    1
    54    60    45   ar
    55    61    60    1
    56    62    36   ar
    57    63    62    1
    58    64     3    1
    59    65    40    1
    60    66    14    2
    61    67    66    1
    62    68    15    2
    63    69    68    1
    64    70    58    2
    65    71    70    1
    66    72    13    2
    67    73    72    1
    68    74    70    1
    69    75    74    1
    70    76    25   ar
    71    77    76    1
    72    78    72    1
    73    79    78    1
    74    80    38   ar
    75    81    80    1
    76    82    12    1
    77    83    82    1
    78    11    30   ar
    79    11    64   ar
    80    18    23   ar
    81    20    30   ar
    82    24    44   ar
    83    24    45   ar
    84    26    42    2
    85    26    68    1
    86    33    66    1
    87    39    62   ar
    88    46    76   ar
    89    48    64   ar
    90    50    80   ar
    91    52    65   ar
    92    54    56    2
    93    60    65   ar
    94    78    82    2
    95    84    88    1
    96    85    88    1
    97    86    88    1
    98    87    88    1
    99    89    93    1
   100    90    93    1
   101    91    93    1
   102    92    93    1
@<TRIPOS>SUBSTRUCTURE
     1 RES1        1 GROUP             0 ****  ****    0  
     2 RES2       84 GROUP             0 ****  ****    0  
     3 RES3       89 GROUP             0 ****  ****    0  
     4 RES4       94 GROUP             0 ****  ****    0  
@<TRIPOS>CRYSIN
   10.8320   13.3260   16.0100  107.9250  101.9460  104.9590     2     1
