@<TRIPOS>MOLECULE
GAYCAM
   103   111     4     0     0
SMALL
USER_CHARGES
****
Generated from the CSD

@<TRIPOS>ATOM
     1 Fe1      4.5668   5.2780   7.3110   Fe        1 RES1   2.0000
     2 N1       5.3816   2.9693   5.9539   N.pl3     1 RES1   0.0000
     3 N2       3.8627   4.4577   9.9008   N.pl3     1 RES1   0.0000
     4 N3       2.7515   5.0166   6.6408   N.2       1 RES1   0.0000
     5 N4       4.7193   3.5296   8.0307   N.ar      1 RES1   0.0000
     6 N5       2.3403   6.0137   5.7954   N.pl3     1 RES1   0.0000
     7 N6       3.9434   5.6133   9.1626   N.2       1 RES1   0.0000
     8 N7       4.2962   6.9357   6.4342   N.ar      1 RES1   0.0000
     9 N8       6.3675   7.4295   7.1645   N.pl3     1 RES1   0.0000
    10 O2       5.2796   2.3584  15.9455   O.2       1 RES1   0.0000
    11 C1       5.1530   9.0433   5.6927   C.ar      1 RES1   0.0000
    12 H1       5.8360   9.7025   5.7185   H         1 RES1   0.0000
    13 N9       5.2491   4.3182   5.7294   N.2       1 RES1   0.0000
    14 N10      5.0462  14.4328   9.1553   N.pl3     1 RES1   0.0000
    15 C2       4.1363   1.9928   9.7640   C.ar      1 RES1   0.0000
    16 H2       3.7914   1.8388  10.6354   H         1 RES1   0.0000
    17 C3       4.9563  13.5526   5.5242   C.ar      1 RES1   0.0000
    18 H3       5.2622  13.8997   4.6953   H         1 RES1   0.0000
    19 C4       3.1987   7.1192   5.6942   C.ar      1 RES1   0.0000
    20 C5       5.5587   4.5064   4.4570   C.2       1 RES1   0.0000
    21 H4       5.5548   5.3491   4.0167   H         1 RES1   0.0000
    22 N11      6.2953   6.1522   7.6984   N.2       1 RES1   0.0000
    23 N12      4.3352   1.6596  15.6313   N.pl3     1 RES1   0.0000
    24 O3       3.4112   1.4121  16.3842   O.2       1 RES1   0.0000
    25 C7       5.0519   2.5125   7.2319   C.ar      1 RES1   0.0000
    26 C8       5.4450   0.3892  12.3235   C.ar      1 RES1   0.0000
    27 H8       6.2310   0.3707  11.7906   H         1 RES1   0.0000
    28 C9       3.2083   6.0548  11.2396   C.2       1 RES1   0.0000
    29 H9       2.8958   6.5410  11.9940   H         1 RES1   0.0000
    30 C10      7.4251   5.9770   8.3553   C.2       1 RES1   0.0000
    31 H10      7.6619   5.1819   8.8213   H         1 RES1   0.0000
    32 C11      4.2533   3.2687   9.2570   C.ar      1 RES1   0.0000
    33 C13      3.5538   6.5672   9.9842   C.2       1 RES1   0.0000
    34 H11      3.5126   7.4895   9.7534   H         1 RES1   0.0000
    35 C14      3.0014   8.2348   4.9109   C.ar      1 RES1   0.0000
    36 H12      2.2190   8.3325   4.3811   H         1 RES1   0.0000
    37 C15      3.9954   9.2214   4.9260   C.ar      1 RES1   0.0000
    38 C16      4.3092   1.0517  14.2924   C.ar      1 RES1   0.0000
    39 C18      3.7656  11.8767   6.7689   C.ar      1 RES1   0.0000
    40 H16      3.2723  11.0652   6.7963   H         1 RES1   0.0000
    41 C19      5.2594   7.8678   6.4092   C.ar      1 RES1   0.0000
    42 C20      4.2407  12.3520   5.5408   C.ar      1 RES1   0.0000
    43 C21      5.0004   1.1937   7.6418   C.ar      1 RES1   0.0000
    44 H17      5.2651   0.4906   7.0604   H         1 RES1   0.0000
    45 C22      4.2801  -0.9721  10.5792   C.2       1 RES1   0.0000
    46 H18      4.1465  -1.9114  10.6399   H         1 RES1   0.0000
    47 C23      3.1455   0.4935  13.8445   C.ar      1 RES1   0.0000
    48 H19      2.3516   0.5524  14.3652   H         1 RES1   0.0000
    49 C24      7.5421   8.0258   7.5113   C.2       1 RES1   0.0000
    50 H20      7.8263   8.8994   7.2699   H         1 RES1   0.0000
    51 C25      4.2871  -0.2275  11.8574   C.ar      1 RES1   0.0000
    52 C26      5.8943   3.2803   3.8452   C.2       1 RES1   0.0000
    53 H21      6.1551   3.1470   2.9420   H         1 RES1   0.0000
    54 C27      4.5468   0.9274   8.9413   C.ar      1 RES1   0.0000
    55 C28      4.7472  13.7314   7.8786   C.ar      1 RES1   0.0000
    56 C29      5.2266  14.2420   6.6915   C.ar      1 RES1   0.0000
    57 H22      5.7310  15.0480   6.6763   H         1 RES1   0.0000
    58 C30      5.4698   1.0291  13.5561   C.ar      1 RES1   0.0000
    59 H23      6.2641   1.4390  13.8794   H         1 RES1   0.0000
    60 C31      1.1407   5.7041   5.2266   C.2       1 RES1   0.0000
    61 H24      0.6571   6.2321   4.6012   H         1 RES1   0.0000
    62 C32      4.0040  12.5668   7.9363   C.ar      1 RES1   0.0000
    63 H25      3.6645  12.2499   8.7652   H         1 RES1   0.0000
    64 C33      1.7927   4.0972   6.5929   C.2       1 RES1   0.0000
    65 H26      1.7983   3.2814   7.0817   H         1 RES1   0.0000
    66 C34      8.2323   7.1283   8.2703   C.2       1 RES1   0.0000
    67 H27      9.0875   7.2533   8.6635   H         1 RES1   0.0000
    68 C35      3.4163   4.7037  11.1515   C.2       1 RES1   0.0000
    69 H28      3.2738   4.0627  11.8377   H         1 RES1   0.0000
    70 C36      0.7718   4.4984   5.7230   C.2       1 RES1   0.0000
    71 H29     -0.0226   4.0191   5.5196   H         1 RES1   0.0000
    72 C37      5.7681   2.3264   4.8107   C.2       1 RES1   0.0000
    73 H30      5.9198   1.3954   4.7090   H         1 RES1   0.0000
    74 O4       5.8939  15.3249   9.0946   O.2       1 RES1   0.0000
    75 C38      3.8347  10.3722   4.0076   C.2       1 RES1   0.0000
    76 H31      3.5911  10.1568   3.1150   H         1 RES1   0.0000
    77 C39      3.9895  11.6743   4.2702   C.2       1 RES1   0.0000
    78 H32      3.9263  12.2462   3.5158   H         1 RES1   0.0000
    79 O5       4.4779  14.0966  10.1481   O.2       1 RES1   0.0000
    80 C40      3.1380  -0.1570  12.6240   C.ar      1 RES1   0.0000
    81 H33      2.3368  -0.5596  12.3098   H         1 RES1   0.0000
    82 C41      4.4398  -0.4782   9.3587   C.2       1 RES1   0.0000
    83 H34      4.4933  -1.1192   8.6589   H         1 RES1   0.0000
    84 F1       3.7559   9.9064  10.0509   F         2 RES2   0.0000
    85 F2       2.0117  11.2411  10.6126   F         2 RES2   0.0000
    86 F6       1.9234   9.8631   8.8122   F         2 RES2   0.0000
    87 F7       1.8017   8.9975  10.7735   F         2 RES2   0.0000
    88 B1       2.3968   9.9889  10.1800   B         2 RES2  -1.0000
    89 F3      -0.1813   0.8750  10.1010   F         3 RES3   0.0000
    90 F4      -0.6867   3.0587  10.0039   F         3 RES3   0.0000
    91 F5       1.1864   2.3337  11.0650   F         3 RES3   0.0000
    92 F8       1.1175   2.0997   8.8335   F         3 RES3   0.0000
    93 B2       0.3309   2.1306   9.9568   B         3 RES3  -1.0000
    94 O1      -0.5720  11.2182   6.8517   O.2       4 RES4   0.0000
    95 C6       0.4117  13.0025   8.0608   C.3       4 RES4   0.0000
    96 H5       0.7789  13.2456   7.1849   H         4 RES4   0.0000
    97 H6       1.1458  12.8277   8.6847   H         4 RES4   0.0000
    98 H7      -0.1370  13.7398   8.3993   H         4 RES4   0.0000
    99 C12     -0.4387  11.7651   7.9227   C.2       4 RES4   0.0000
   100 C17     -1.0910  11.2429   9.1659   C.3       4 RES4   0.0000
   101 H13     -1.8306  10.6473   8.9215   H         4 RES4   0.0000
   102 H14     -1.4366  11.9919   9.6942   H         4 RES4   0.0000
   103 H15     -0.4336  10.7454   9.6972   H         4 RES4   0.0000
@<TRIPOS>BOND
     1     1     4    1
     2     2    13    1
     3     3     7    1
     4     4     6    1
     5     5     1    1
     6     6    19    1
     7     7     1    1
     8     8     1    1
     9     9    22    1
    10    10    23    2
    11    11    12    1
    12    13     1    1
    13    14    55    1
    14    15    16    1
    15    17    18    1
    16    19     8   ar
    17    20    13    2
    18    21    20    1
    19    22     1    1
    20    23    24    2
    21    25     2    1
    22    26    27    1
    23    28    29    1
    24    30    22    2
    25    31    30    1
    26    32     3    1
    27    33     7    2
    28    34    33    1
    29    35    19   ar
    30    36    35    1
    31    37    11   ar
    32    38    23    1
    33    39    40    1
    34    41     8   ar
    35    42    17   ar
    36    43    25   ar
    37    44    43    1
    38    45    46    1
    39    47    38   ar
    40    48    47    1
    41    49     9    1
    42    50    49    1
    43    51    26   ar
    44    52    20    1
    45    53    52    1
    46    54    15   ar
    47    55    56   ar
    48    56    17   ar
    49    57    56    1
    50    58    26   ar
    51    59    58    1
    52    60     6    1
    53    61    60    1
    54    62    39   ar
    55    63    62    1
    56    64     4    2
    57    65    64    1
    58    66    30    1
    59    67    66    1
    60    68     3    1
    61    69    68    1
    62    70    60    2
    63    71    70    1
    64    72     2    1
    65    73    72    1
    66    74    14    2
    67    75    37    1
    68    76    75    1
    69    77    42    1
    70    78    77    1
    71    79    14    2
    72    80    47   ar
    73    81    80    1
    74    82    45    2
    75    83    82    1
    76     5    25   ar
    77     5    32   ar
    78     9    41    1
    79    11    41   ar
    80    15    32   ar
    81    28    33    1
    82    28    68    2
    83    35    37   ar
    84    38    58   ar
    85    39    42   ar
    86    43    54   ar
    87    45    51    1
    88    49    66    2
    89    51    80   ar
    90    52    72    2
    91    54    82    1
    92    55    62   ar
    93    64    70    1
    94    75    77    2
    95    84    88    1
    96    85    88    1
    97    86    88    1
    98    87    88    1
    99    89    93    1
   100    90    93    1
   101    91    93    1
   102    92    93    1
   103    94    99    2
   104    95    96    1
   105    97    95    1
   106    98    95    1
   107    99    95    1
   108   100    99    1
   109   101   100    1
   110   102   100    1
   111   103   100    1
@<TRIPOS>SUBSTRUCTURE
     1 RES1        1 GROUP             0 ****  ****    0  
     2 RES2       84 GROUP             0 ****  ****    0  
     3 RES3       89 GROUP             0 ****  ****    0  
     4 RES4       94 GROUP             0 ****  ****    0  
@<TRIPOS>CRYSIN
    7.9954   36.3390   15.3440   90.0000   98.3740   90.0000   231     1
