@<TRIPOS>MOLECULE
GAYCEQ
    98   106     4     0     0
SMALL
USER_CHARGES
****
Generated from the CSD

@<TRIPOS>ATOM
     1 Fe1     11.5455   5.8459   3.3200   Fe        1 RES1   2.0000
     2 C1      10.3629   3.8471   1.7374   C.ar      1 RES1   0.0000
     3 C2      20.7692  12.5888   8.7542   C.1       1 RES1   0.0000
     4 N1      10.1601   5.0263   2.3351   N.ar      1 RES1   0.0000
     5 N2      12.0064   5.7311   6.0842   N.pl3     1 RES1   0.0000
     6 N3      11.6400   3.3508   2.0431   N.pl3     1 RES1   0.0000
     7 C3       7.0527   3.1305   0.1763   C.2       1 RES1   0.0000
     8 H1       6.1695   3.4641   0.2824   H         1 RES1   0.0000
     9 N4      12.9446   6.6791   4.2769   N.ar      1 RES1   0.0000
    10 C4      16.0344   8.5650   6.4649   C.2       1 RES1   0.0000
    11 H2      16.0766   8.3611   7.3909   H         1 RES1   0.0000
    12 C5       8.1466   3.8102   0.8816   C.ar      1 RES1   0.0000
    13 N5      12.4122   4.1336   2.8801   N.2       1 RES1   0.0000
    14 N6       8.9570   6.8462   2.8730   N.pl3     1 RES1   0.0000
    15 N7      11.1122   5.2474   5.1526   N.2       1 RES1   0.0000
    16 C6       6.2415   1.2635  -1.3030   C.ar      1 RES1   0.0000
    17 N8      13.5862   7.4521   2.2629   N.pl3     1 RES1   0.0000
    18 N10     21.5519  13.2744   9.2258   N.1       1 RES1   0.0000
    19 N11     10.1608   7.2546   3.4208   N.2       1 RES1   0.0000
    20 N12     12.4753   6.7382   1.8414   N.2       1 RES1   0.0000
    21 C7      14.9977   7.9006   5.6722   C.ar      1 RES1   0.0000
    22 C8       7.2398   2.0730  -0.6006   C.2       1 RES1   0.0000
    23 H3       8.1434   1.8049  -0.7182   H         1 RES1   0.0000
    24 C9       4.4694  -0.4046  -2.6519   C.ar      1 RES1   0.0000
    25 C10     19.8023  11.7498   8.0948   C.ar      1 RES1   0.0000
    26 N13      2.9410  -2.0639  -3.9062   N.1       1 RES1   0.0000
    27 C11     18.6994  11.1188   6.0607   C.ar      1 RES1   0.0000
    28 H4      18.5824  11.2257   5.1246   H         1 RES1   0.0000
    29 C12     16.9228   9.4328   5.9804   C.2       1 RES1   0.0000
    30 H5      16.9058   9.5798   5.0429   H         1 RES1   0.0000
    31 C13     19.6312  11.8887   6.7230   C.ar      1 RES1   0.0000
    32 H6      20.1582  12.5140   6.2399   H         1 RES1   0.0000
    33 C14     13.0505   6.5310   5.6005   C.ar      1 RES1   0.0000
    34 C15     19.0379  10.8277   8.8029   C.ar      1 RES1   0.0000
    35 H7      19.1459  10.7341   9.7418   H         1 RES1   0.0000
    36 C16     11.6313   5.3616   7.3422   C.2       1 RES1   0.0000
    37 H8      12.0818   5.5760   8.1507   H         1 RES1   0.0000
    38 C17      9.4199   3.2090   0.9834   C.ar      1 RES1   0.0000
    39 H9       9.6150   2.3898   0.5433   H         1 RES1   0.0000
    40 C18      8.9619   5.6119   2.2104   C.ar      1 RES1   0.0000
    41 C19     14.0546   7.1097   6.3488   C.ar      1 RES1   0.0000
    42 H10     14.1054   6.9797   7.2877   H         1 RES1   0.0000
    43 C20     13.4452   2.1805   2.4498   C.2       1 RES1   0.0000
    44 H11     14.1027   1.4953   2.4613   H         1 RES1   0.0000
    45 C21      7.9246   5.0375   1.5166   C.ar      1 RES1   0.0000
    46 H12      7.0766   5.4636   1.4679   H         1 RES1   0.0000
    47 C22     13.8621   7.4223   3.6410   C.ar      1 RES1   0.0000
    48 C23      5.8353  -0.6834  -2.6662   C.ar      1 RES1   0.0000
    49 H13      6.1628  -1.4466  -3.1264   H         1 RES1   0.0000
    50 C24     10.5005   4.6340   7.2275   C.2       1 RES1   0.0000
    51 H14     10.0027   4.2357   7.9314   H         1 RES1   0.0000
    52 C25     13.4990   7.7244   0.1046   C.2       1 RES1   0.0000
    53 H15     13.6819   7.9970  -0.7870   H         1 RES1   0.0000
    54 C26     17.9283  10.1884   6.7473   C.ar      1 RES1   0.0000
    55 C27     10.2060   4.5861   5.8485   C.2       1 RES1   0.0000
    56 H16      9.4575   4.1386   5.4715   H         1 RES1   0.0000
    57 C28     12.4401   6.9043   0.5304   C.2       1 RES1   0.0000
    58 H17     11.7889   6.5205  -0.0444   H         1 RES1   0.0000
    59 C29     14.9029   8.0505   4.2775   C.ar      1 RES1   0.0000
    60 H18     15.5365   8.5680   3.7944   H         1 RES1   0.0000
    61 C30      3.5870  -1.3064  -3.3400   C.1       1 RES1   0.0000
    62 C31      4.8695   1.5204  -1.2858   C.ar      1 RES1   0.0000
    63 H19      4.5382   2.2702  -0.8056   H         1 RES1   0.0000
    64 C32      8.0044   7.8002   3.0361   C.2       1 RES1   0.0000
    65 H20      7.1010   7.7544   2.7465   H         1 RES1   0.0000
    66 C33      6.7049   0.1569  -2.0069   C.ar      1 RES1   0.0000
    67 H21      7.6369  -0.0235  -2.0327   H         1 RES1   0.0000
    68 C34      3.9860   0.6948  -1.9595   C.ar      1 RES1   0.0000
    69 H22      3.0545   0.8803  -1.9481   H         1 RES1   0.0000
    70 C35     13.4999   3.4220   3.1178   C.2       1 RES1   0.0000
    71 H23     14.2216   3.7067   3.6654   H         1 RES1   0.0000
    72 C36     18.1209  10.0507   8.1234   C.ar      1 RES1   0.0000
    73 H24     17.6096   9.4084   8.6022   H         1 RES1   0.0000
    74 C38      9.9322   8.4626   3.9119   C.2       1 RES1   0.0000
    75 H28     10.5808   9.0005   4.3506   H         1 RES1   0.0000
    76 C39     14.2107   8.0511   1.2184   C.2       1 RES1   0.0000
    77 H29     14.9920   8.5928   1.2571   H         1 RES1   0.0000
    78 C40     12.2505   2.1661   1.7818   C.2       1 RES1   0.0000
    79 H30     11.9142   1.4630   1.2385   H         1 RES1   0.0000
    80 C41      8.5998   8.8356   3.6955   C.2       1 RES1   0.0000
    81 H31      8.1892   9.6517   3.9578   H         1 RES1   0.0000
    82 F1      13.1070   0.6387  13.5070   F         2 RES2   0.0000
    83 F2      13.4719   2.6817  12.5787   F         2 RES2   0.0000
    84 F4      12.4894   1.0408  11.4304   F         2 RES2   0.0000
    85 F5      14.6742   0.8886  11.8906   F         2 RES2   0.0000
    86 B1      13.4716   1.3074  12.3651   B         2 RES2  -1.0000
    87 F3       4.0238   4.8686   4.6889   F         3 RES3   0.0000
    88 F6       4.6122   5.6114   2.6505   F         3 RES3   0.0000
    89 F7       5.1963   3.6745   3.2196   F         3 RES3   0.0000
    90 F8       6.1054   5.3520   4.2115   F         3 RES3   0.0000
    91 B2       4.9992   4.8752   3.7155   B         3 RES3  -1.0000
    92 O1       7.5341   3.5056   7.4268   O.2       4 RES4   0.0000
    93 N9       7.4634   2.3149   7.1616   N.pl3     4 RES4   1.0000
    94 O2       8.1614   1.4612   7.6834   O.3       4 RES4  -1.0000
    95 C37      6.4464   1.9276   6.1739   C.3       4 RES4   0.0000
    96 H25      6.5783   2.4433   5.3497   H         4 RES4   0.0000
    97 H26      5.5533   2.1122   6.5337   H         4 RES4   0.0000
    98 H27      6.5282   0.9715   5.9775   H         4 RES4   0.0000
@<TRIPOS>BOND
     1     1     4    1
     2     2     4   ar
     3     3    18    3
     4     4    40   ar
     5     5    15    1
     6     6     2    1
     7     7     8    1
     8     9     1    1
     9    10    11    1
    10    12     7    1
    11    13     1    1
    12    14    19    1
    13    15     1    1
    14    16    22    1
    15    17    20    1
    16    19     1    1
    17    20     1    1
    18    21    10    1
    19    22     7    2
    20    23    22    1
    21    24    48   ar
    22    25     3    1
    23    26    61    3
    24    27    28    1
    25    29    10    2
    26    30    29    1
    27    31    25   ar
    28    32    31    1
    29    33     5    1
    30    34    25   ar
    31    35    34    1
    32    36     5    1
    33    37    36    1
    34    38     2   ar
    35    39    38    1
    36    40    14    1
    37    41    21   ar
    38    42    41    1
    39    43    44    1
    40    45    12   ar
    41    46    45    1
    42    47     9   ar
    43    48    49    1
    44    50    36    2
    45    51    50    1
    46    52    53    1
    47    54    27   ar
    48    55    15    2
    49    56    55    1
    50    57    20    2
    51    58    57    1
    52    59    21   ar
    53    60    59    1
    54    61    24    1
    55    62    16   ar
    56    63    62    1
    57    64    14    1
    58    65    64    1
    59    66    16   ar
    60    67    66    1
    61    68    24   ar
    62    69    68    1
    63    70    13    2
    64    71    70    1
    65    72    34   ar
    66    73    72    1
    67    74    19    2
    68    75    74    1
    69    76    17    1
    70    77    76    1
    71    78     6    1
    72    79    78    1
    73    80    64    2
    74    81    80    1
    75     6    13    1
    76     9    33   ar
    77    12    38   ar
    78    17    47    1
    79    27    31   ar
    80    29    54    1
    81    33    41   ar
    82    40    45   ar
    83    43    70    1
    84    43    78    2
    85    47    59   ar
    86    48    66   ar
    87    50    55    1
    88    52    57    1
    89    52    76    2
    90    54    72   ar
    91    62    68   ar
    92    74    80    1
    93    82    86    1
    94    83    86    1
    95    84    86    1
    96    85    86    1
    97    87    91    1
    98    88    91    1
    99    89    91    1
   100    90    91    1
   101    92    93    2
   102    93    94    1
   103    95    93    1
   104    96    95    1
   105    97    95    1
   106    98    95    1
@<TRIPOS>SUBSTRUCTURE
     1 RES1        1 GROUP             0 ****  ****    0  
     2 RES2       82 GROUP             0 ****  ****    0  
     3 RES3       87 GROUP             0 ****  ****    0  
     4 RES4       92 GROUP             0 ****  ****    0  
@<TRIPOS>CRYSIN
   11.9220   12.8890   14.5390   87.2530   80.3970   70.1840     2     1
