@<TRIPOS>MOLECULE
GECHON
    92   101     3     0     0
SMALL
USER_CHARGES
****
Generated from the CSD

@<TRIPOS>ATOM
     1 Fe1      5.1629   4.7746   0.0000   Fe        1 RES1   2.0000
     2 N1       5.4978   4.4612   1.9138   N.ar      1 RES1   0.0000
     3 N2       4.3224   6.5019   0.4976   N.ar      1 RES1   0.0000
     4 N3       3.4056   3.9547   0.2353   N.ar      1 RES1   0.0000
     5 N4       1.3361   6.3549   3.5323   N.ar      1 RES1   0.0000
     6 C1       4.6092   4.8715   2.8393   C.ar      1 RES1   0.0000
     7 C2       4.9762   5.0109   4.1694   C.ar      1 RES1   0.0000
     8 C3       6.2156   4.5739   4.5957   C.ar      1 RES1   0.0000
     9 C4       7.0718   4.0162   3.6639   C.ar      1 RES1   0.0000
    10 C5       6.6987   3.9968   2.3491   C.ar      1 RES1   0.0000
    11 C6       3.5021   6.6336   1.5716   C.ar      1 RES1   0.0000
    12 C7       3.0613   7.8859   1.9659   C.ar      1 RES1   0.0000
    13 C8       3.3712   8.9984   1.2229   C.ar      1 RES1   0.0000
    14 C9       4.1516   8.8644   0.0908   C.ar      1 RES1   0.0000
    15 C10      4.6122   7.6091  -0.2201   C.ar      1 RES1   0.0000
    16 C11      2.6359   4.2883   1.2916   C.ar      1 RES1   0.0000
    17 C12      1.3520   3.7648   1.4150   C.ar      1 RES1   0.0000
    18 C13      0.8617   2.8763   0.4740   C.ar      1 RES1   0.0000
    19 C14      1.6583   2.5339  -0.5963   C.ar      1 RES1   0.0000
    20 C15      2.9170   3.0841  -0.6767   C.ar      1 RES1   0.0000
    21 C16      2.2140   5.3609   3.4895   C.ar      1 RES1   0.0000
    22 C17      2.1690   4.2937   4.3953   C.ar      1 RES1   0.0000
    23 C18      1.2527   4.3419   5.4307   C.ar      1 RES1   0.0000
    24 C19      0.4000   5.4121   5.5320   C.ar      1 RES1   0.0000
    25 C20      0.4476   6.3641   4.5572   C.ar      1 RES1   0.0000
    26 C21      3.2160   5.3058   2.3136   C.3       1 RES1   0.0000
    27 H1       4.3560   5.3495   4.7983   H         1 RES1   0.0000
    28 H2       6.4584   4.5800   5.5903   H         1 RES1   0.0000
    29 H3       7.9395   3.6182   3.9015   H         1 RES1   0.0000
    30 H4       7.3099   3.7269   1.6771   H         1 RES1   0.0000
    31 H5       2.5666   7.9731   2.7718   H         1 RES1   0.0000
    32 H6       3.1024   9.8132   1.4441   H         1 RES1   0.0000
    33 H7       4.4163   9.5846  -0.4659   H         1 RES1   0.0000
    34 H8       5.1233   7.4331  -0.9317   H         1 RES1   0.0000
    35 H9       0.8256   4.0558   2.1196   H         1 RES1   0.0000
    36 H10     -0.0414   2.4054   0.5357   H         1 RES1   0.0000
    37 H11      1.3906   1.8963  -1.2229   H         1 RES1   0.0000
    38 H12      3.5252   2.8915  -1.4325   H         1 RES1   0.0000
    39 H13      2.8047   3.5501   4.3557   H         1 RES1   0.0000
    40 H14      1.2466   3.7397   6.0212   H         1 RES1   0.0000
    41 H15     -0.2136   5.4387   6.2075   H         1 RES1   0.0000
    42 H16     -0.1265   7.0661   4.4955   H         1 RES1   0.0000
    43 N1A      4.8281   5.0881  -1.9138   N.ar      1 RES1   0.0000
    44 N2A      6.0035   3.0474  -0.4976   N.ar      1 RES1   0.0000
    45 N3A      6.9203   5.5946  -0.2353   N.ar      1 RES1   0.0000
    46 N4A      8.9898   3.1944  -3.5323   N.ar      1 RES1   0.0000
    47 C1A      5.7167   4.6778  -2.8393   C.ar      1 RES1   0.0000
    48 C2A      5.3497   4.5384  -4.1694   C.ar      1 RES1   0.0000
    49 C3A      4.1103   4.9754  -4.5957   C.ar      1 RES1   0.0000
    50 C4A      3.2541   5.5331  -3.6639   C.ar      1 RES1   0.0000
    51 C5A      3.6272   5.5525  -2.3491   C.ar      1 RES1   0.0000
    52 C6A      6.8238   2.9157  -1.5716   C.ar      1 RES1   0.0000
    53 C7A      7.2646   1.6634  -1.9659   C.ar      1 RES1   0.0000
    54 C8A      6.9547   0.5508  -1.2229   C.ar      1 RES1   0.0000
    55 C9A      6.1743   0.6849  -0.0908   C.ar      1 RES1   0.0000
    56 C10A     5.7137   1.9402   0.2201   C.ar      1 RES1   0.0000
    57 C11A     7.6900   5.2610  -1.2916   C.ar      1 RES1   0.0000
    58 C12A     8.9739   5.7845  -1.4150   C.ar      1 RES1   0.0000
    59 C13A     9.4642   6.6730  -0.4740   C.ar      1 RES1   0.0000
    60 C14A     8.6676   7.0153   0.5963   C.ar      1 RES1   0.0000
    61 C15A     7.4089   6.4652   0.6767   C.ar      1 RES1   0.0000
    62 C16A     8.1119   4.1884  -3.4895   C.ar      1 RES1   0.0000
    63 C17A     8.1569   5.2556  -4.3953   C.ar      1 RES1   0.0000
    64 C18A     9.0732   5.2073  -5.4307   C.ar      1 RES1   0.0000
    65 C19A     9.9259   4.1372  -5.5320   C.ar      1 RES1   0.0000
    66 C20A     9.8783   3.1852  -4.5572   C.ar      1 RES1   0.0000
    67 C21A     7.1099   4.2435  -2.3136   C.3       1 RES1   0.0000
    68 H1A      5.9699   4.1998  -4.7983   H         1 RES1   0.0000
    69 H2A      3.8675   4.9693  -5.5903   H         1 RES1   0.0000
    70 H3A      2.3864   5.9311  -3.9015   H         1 RES1   0.0000
    71 H4A      3.0160   5.8224  -1.6771   H         1 RES1   0.0000
    72 H5A      7.7593   1.5762  -2.7718   H         1 RES1   0.0000
    73 H6A      7.2235  -0.2639  -1.4441   H         1 RES1   0.0000
    74 H7A      5.9096  -0.0353   0.4659   H         1 RES1   0.0000
    75 H8A      5.2026   2.1161   0.9317   H         1 RES1   0.0000
    76 H9A      9.5003   5.4935  -2.1196   H         1 RES1   0.0000
    77 H10A    10.3673   7.1439  -0.5357   H         1 RES1   0.0000
    78 H11A     8.9353   7.6529   1.2229   H         1 RES1   0.0000
    79 H12A     6.8007   6.6578   1.4325   H         1 RES1   0.0000
    80 H13A     7.5212   5.9992  -4.3557   H         1 RES1   0.0000
    81 H14A     9.0793   5.8096  -6.0212   H         1 RES1   0.0000
    82 H15A    10.5395   4.1106  -6.2075   H         1 RES1   0.0000
    83 H16A    10.4524   2.4832  -4.4955   H         1 RES1   0.0000
    84 S1       6.7897   8.8383   3.3498   S.2       2 RES2  -1.0000
    85 N5       5.1636  11.0372   3.5195   N.1       2 RES2   0.0000
    86 C22      5.8364  10.1569   3.4392   C.1       2 RES2   0.0000
    87 O1       9.5087  10.5724   2.6507   O.3       3 RES3   0.0000
    88 C23     10.2073  10.4249   3.8503   C.3       3 RES3   0.0000
    89 H17      8.6190  10.0210   2.8650   H         3 RES3   0.0000
    90 H18     10.2807   9.5081   4.1112   H         3 RES3   0.0000
    91 H19      9.7988  10.8153   4.6469   H         3 RES3   0.0000
    92 H20     11.1341  10.9056   3.4473   H         3 RES3   0.0000
@<TRIPOS>BOND
     1     1     2    1
     2     2     6   ar
     3     3     1    1
     4     4     1    1
     5     5    21   ar
     6     6     7   ar
     7     7     8   ar
     8     8     9   ar
     9     9    10   ar
    10    10     2   ar
    11    11     3   ar
    12    12    11   ar
    13    13    12   ar
    14    14    13   ar
    15    15     3   ar
    16    16     4   ar
    17    17    16   ar
    18    18    17   ar
    19    19    18   ar
    20    20     4   ar
    21    21    22   ar
    22    22    23   ar
    23    23    24   ar
    24    24    25   ar
    25    25     5   ar
    26    26     6    1
    27    27     7    1
    28    28     8    1
    29    29     9    1
    30    30    10    1
    31    31    12    1
    32    32    13    1
    33    33    14    1
    34    34    15    1
    35    35    17    1
    36    36    18    1
    37    37    19    1
    38    38    20    1
    39    39    22    1
    40    40    23    1
    41    41    24    1
    42    42    25    1
    43    43     1    1
    44    44     1    1
    45    45     1    1
    46    46    62   ar
    47    47    43   ar
    48    48    47   ar
    49    49    48   ar
    50    50    49   ar
    51    51    43   ar
    52    52    44   ar
    53    53    52   ar
    54    54    53   ar
    55    55    54   ar
    56    56    44   ar
    57    57    45   ar
    58    58    57   ar
    59    59    58   ar
    60    60    59   ar
    61    61    45   ar
    62    62    63   ar
    63    63    64   ar
    64    64    65   ar
    65    65    66   ar
    66    66    46   ar
    67    67    47    1
    68    68    48    1
    69    69    49    1
    70    70    50    1
    71    71    51    1
    72    72    53    1
    73    73    54    1
    74    74    55    1
    75    75    56    1
    76    76    58    1
    77    77    59    1
    78    78    60    1
    79    79    61    1
    80    80    63    1
    81    81    64    1
    82    82    65    1
    83    83    66    1
    84    11    26    1
    85    14    15   ar
    86    16    26    1
    87    19    20   ar
    88    21    26    1
    89    50    51   ar
    90    52    67    1
    91    55    56   ar
    92    57    67    1
    93    60    61   ar
    94    62    67    1
    95    84    86    1
    96    85    86    3
    97    87    88    1
    98    88    90    1
    99    89    87    1
   100    91    88    1
   101    92    88    1
@<TRIPOS>SUBSTRUCTURE
     1 RES1        1 GROUP             0 ****  ****    0  
     2 RES2       84 GROUP             0 ****  ****    0  
     3 RES3       87 GROUP             0 ****  ****    0  
@<TRIPOS>CRYSIN
    9.2210    9.6130   12.8570   69.4600   73.9700   83.4000     2     1
