@<TRIPOS>MOLECULE
GEFCAY01
    75    81     4     0     0
SMALL
USER_CHARGES
****
Generated from the CSD

@<TRIPOS>ATOM
     1 Fe1      2.5290   3.3616   3.5335   Fe        1 RES1   2.0000
     2 F1       0.3818   2.7146   5.8687   F         1 RES1   0.0000
     3 F2       4.0852   0.7072   2.5599   F         1 RES1   0.0000
     4 F3       4.9042   5.3194   4.5687   F         1 RES1   0.0000
     5 F4       0.7975   4.6322   1.1268   F         1 RES1   0.0000
     6 N1       1.2729   4.4235   4.7252   N.ar      1 RES1   0.0000
     7 N2       2.8450   5.1020   2.8430   N.ar      1 RES1   0.0000
     8 N3       3.9061   2.9093   2.1292   N.ar      1 RES1   0.0000
     9 N4       3.9375   3.3349   5.0015   N.ar      1 RES1   0.0000
    10 N5       2.2097   1.6266   4.2617   N.ar      1 RES1   0.0000
    11 N6       1.0287   2.7465   2.3197   N.ar      1 RES1   0.0000
    12 C1       0.4618   4.0306   5.6838   C.ar      1 RES1   0.0000
    13 C2      -0.3079   4.8499   6.4856   C.ar      1 RES1   0.0000
    14 H1      -0.8514   4.4971   7.1802   H         1 RES1   0.0000
    15 C3      -0.2512   6.1979   6.2318   C.ar      1 RES1   0.0000
    16 H2      -0.7714   6.8031   6.7472   H         1 RES1   0.0000
    17 C4       0.5705   6.6717   5.2180   C.ar      1 RES1   0.0000
    18 H3       0.6101   7.6017   5.0282   H         1 RES1   0.0000
    19 C5       1.3278   5.7811   4.4906   C.ar      1 RES1   0.0000
    20 C6       2.2481   6.1616   3.4193   C.ar      1 RES1   0.0000
    21 C7       2.5338   7.4533   2.9953   C.ar      1 RES1   0.0000
    22 H4       2.1187   8.2038   3.4037   H         1 RES1   0.0000
    23 C8       3.4434   7.6178   1.9589   C.ar      1 RES1   0.0000
    24 H5       3.6635   8.4927   1.6609   H         1 RES1   0.0000
    25 C9       4.0304   6.5241   1.3578   C.ar      1 RES1   0.0000
    26 H6       4.6383   6.6357   0.6363   H         1 RES1   0.0000
    27 C10      3.7173   5.2620   1.8269   C.ar      1 RES1   0.0000
    28 C11      4.3061   3.9934   1.3871   C.ar      1 RES1   0.0000
    29 C12      5.2159   3.8675   0.3473   C.ar      1 RES1   0.0000
    30 H7       5.4605   4.6239  -0.1729   H         1 RES1   0.0000
    31 C13      5.7638   2.6242   0.0778   C.ar      1 RES1   0.0000
    32 H8       6.3814   2.5225  -0.6373   H         1 RES1   0.0000
    33 C14      5.4166   1.5441   0.8390   C.ar      1 RES1   0.0000
    34 H9       5.8075   0.6893   0.7008   H         1 RES1   0.0000
    35 C15      4.4669   1.7584   1.8213   C.ar      1 RES1   0.0000
    36 C16      4.8532   4.2243   5.3319   C.ar      1 RES1   0.0000
    37 C17      5.7367   4.1305   6.3886   C.ar      1 RES1   0.0000
    38 H10      6.3665   4.8185   6.5701   H         1 RES1   0.0000
    39 C18      5.6678   2.9980   7.1667   C.ar      1 RES1   0.0000
    40 H11      6.2529   2.8864   7.9065   H         1 RES1   0.0000
    41 C19      4.7359   2.0249   6.8600   C.ar      1 RES1   0.0000
    42 H12      4.6763   1.2362   7.3861   H         1 RES1   0.0000
    43 C20      3.8917   2.2085   5.7819   C.ar      1 RES1   0.0000
    44 C21      2.8758   1.2382   5.3624   C.ar      1 RES1   0.0000
    45 C22      2.5874   0.0313   5.9837   C.ar      1 RES1   0.0000
    46 H13      3.0443  -0.2301   6.7742   H         1 RES1   0.0000
    47 C23      1.6191  -0.7816   5.4233   C.ar      1 RES1   0.0000
    48 H14      1.4105  -1.6150   5.8291   H         1 RES1   0.0000
    49 C24      0.9501  -0.3904   4.2752   C.ar      1 RES1   0.0000
    50 H15      0.2937  -0.9504   3.8773   H         1 RES1   0.0000
    51 C25      1.2659   0.8455   3.7204   C.ar      1 RES1   0.0000
    52 C26      0.6157   1.4579   2.5577   C.ar      1 RES1   0.0000
    53 C27     -0.3264   0.8298   1.7728   C.ar      1 RES1   0.0000
    54 H16     -0.5993  -0.0589   1.9682   H         1 RES1   0.0000
    55 C28     -0.8721   1.5122   0.6936   C.ar      1 RES1   0.0000
    56 H17     -1.5087   1.0881   0.1305   H         1 RES1   0.0000
    57 C29     -0.4820   2.8073   0.4466   C.ar      1 RES1   0.0000
    58 H18     -0.8376   3.3010  -0.2834   H         1 RES1   0.0000
    59 C30      0.4479   3.3591   1.3014   C.ar      1 RES1   0.0000
    60 F5       2.0288  10.5451   4.6237   F         2 RES2   0.0000
    61 F6       2.7581  12.5527   3.6843   F         2 RES2   0.0000
    62 F7       2.5436  10.6853   2.4788   F         2 RES2   0.0000
    63 F8       0.7368  11.7447   3.2467   F         2 RES2   0.0000
    64 B1       2.0033  11.4269   3.5805   B         2 RES2  -1.0000
    65 F9      -2.6359   5.8315  10.8849   F         3 RES3   0.0000
    66 F10     -2.7638   4.1576   9.4369   F         3 RES3   0.0000
    67 F11     -4.0442   5.9506   9.1436   F         3 RES3   0.0000
    68 F12     -1.7917   6.1210   8.8628   F         3 RES3   0.0000
    69 B2      -2.8299   5.5363   9.5598   B         3 RES3  -1.0000
    70 N7       2.5288  -2.7363   7.8287   N.1       4 RES4   0.0000
    71 C31      2.2156  -3.7776   8.1400   C.1       4 RES4   0.0000
    72 C32      1.8381  -5.1321   8.5121   C.3       4 RES4   0.0000
    73 H19      0.9791  -5.3571   8.0969   H         4 RES4   0.0000
    74 H20      1.7561  -5.1928   9.4863   H         4 RES4   0.0000
    75 H21      2.5245  -5.7592   8.2018   H         4 RES4   0.0000
@<TRIPOS>BOND
     1     1     6    1
     2     2    12    1
     3     3    35    1
     4     4    36    1
     5     5    59    1
     6     6    12   ar
     7     7     1    1
     8     8     1    1
     9     9     1    1
    10    10     1    1
    11    11     1    1
    12    12    13   ar
    13    13    14    1
    14    15    13   ar
    15    16    15    1
    16    17    15   ar
    17    18    17    1
    18    19     6   ar
    19    20     7   ar
    20    21    20   ar
    21    22    21    1
    22    23    21   ar
    23    24    23    1
    24    25    23   ar
    25    26    25    1
    26    27     7   ar
    27    28     8   ar
    28    29    28   ar
    29    30    29    1
    30    31    29   ar
    31    32    31    1
    32    33    31   ar
    33    34    33    1
    34    35     8   ar
    35    36     9   ar
    36    37    36   ar
    37    38    37    1
    38    39    37   ar
    39    40    39    1
    40    41    39   ar
    41    42    41    1
    42    43     9   ar
    43    44    10   ar
    44    45    44   ar
    45    46    45    1
    46    47    45   ar
    47    48    47    1
    48    49    47   ar
    49    50    49    1
    50    51    10   ar
    51    52    11   ar
    52    53    52   ar
    53    54    53    1
    54    55    53   ar
    55    56    55    1
    56    57    55   ar
    57    58    57    1
    58    59    11   ar
    59    17    19   ar
    60    19    20    1
    61    25    27   ar
    62    27    28    1
    63    33    35   ar
    64    41    43   ar
    65    43    44    1
    66    49    51   ar
    67    51    52    1
    68    57    59   ar
    69    60    64    1
    70    61    64    1
    71    62    64    1
    72    63    64    1
    73    65    69    1
    74    66    69    1
    75    67    69    1
    76    68    69    1
    77    70    71    3
    78    71    72    1
    79    72    73    1
    80    74    72    1
    81    75    72    1
@<TRIPOS>SUBSTRUCTURE
     1 RES1        1 GROUP             0 ****  ****    0  
     2 RES2       60 GROUP             0 ****  ****    0  
     3 RES3       65 GROUP             0 ****  ****    0  
     4 RES4       70 GROUP             0 ****  ****    0  
@<TRIPOS>CRYSIN
   10.1127   28.1660   11.2884   90.0000   92.5400   90.0000    14     1
