@<TRIPOS>MOLECULE
GEMFIR
   111   117     1     0     0
SMALL
NO_CHARGES
****
Generated from the CSD

@<TRIPOS>ATOM
     1 Fe1      2.6772  11.5006   5.4336   Fe        1 RES1   0.0000
     2 Al1      2.8738   9.7899   3.8140   Al        1 RES1   0.0000
     3 H1       3.3096  10.1814   5.6001   H         1 RES1   0.0000
     4 H2       1.5018  10.7950   4.7642   H         1 RES1   0.0000
     5 H3       3.3594  11.6001   4.1203   H         1 RES1   0.0000
     6 N1       2.0943   8.0726   4.0030   N.2       1 RES1   0.0000
     7 C1       2.4298   7.1121   3.0432   C.2       1 RES1   0.0000
     8 C2       3.3098   7.2991   2.0465   C.2       1 RES1   0.0000
     9 H4       3.3660   6.5757   1.4333   H         1 RES1   0.0000
    10 C3       4.2277   8.4593   1.7277   C.3       1 RES1   0.0000
    11 N2       4.4184   9.3652   2.8887   N.2       1 RES1   0.0000
    12 C4       1.7348   5.7687   3.1280   C.3       1 RES1   0.0000
    13 H5       2.0141   5.3075   3.9463   H         1 RES1   0.0000
    14 H6       1.9764   5.2261   2.3485   H         1 RES1   0.0000
    15 H7       0.7642   5.9035   3.1440   H         1 RES1   0.0000
    16 C5       5.5533   7.8566   1.2162   C.3       1 RES1   0.0000
    17 H8       6.1748   8.5797   0.9896   H         1 RES1   0.0000
    18 H9       5.3793   7.3137   0.4192   H         1 RES1   0.0000
    19 H10      5.9476   7.2941   1.9151   H         1 RES1   0.0000
    20 C6       1.3604   7.5812   5.1274   C.ar      1 RES1   0.0000
    21 C7       2.0320   6.9260   6.1774   C.ar      1 RES1   0.0000
    22 C8       1.2982   6.3869   7.2360   C.ar      1 RES1   0.0000
    23 H11      1.7627   5.9443   7.9368   H         1 RES1   0.0000
    24 C9      -0.0784   6.4739   7.3009   C.ar      1 RES1   0.0000
    25 C10     -0.7334   7.1257   6.2671   C.ar      1 RES1   0.0000
    26 H12     -1.6801   7.1998   6.2939   H         1 RES1   0.0000
    27 C11     -0.0371   7.6785   5.1836   C.ar      1 RES1   0.0000
    28 C12      3.5283   6.7967   6.1444   C.3       1 RES1   0.0000
    29 H13      3.7963   6.3091   5.3378   H         1 RES1   0.0000
    30 H14      3.8313   6.3075   6.9377   H         1 RES1   0.0000
    31 H15      3.9331   7.6891   6.1365   H         1 RES1   0.0000
    32 C13     -0.8491   5.8898   8.4656   C.3       1 RES1   0.0000
    33 H16     -0.7907   6.4966   9.2331   H         1 RES1   0.0000
    34 H17     -0.4672   5.0202   8.7069   H         1 RES1   0.0000
    35 H18     -1.7884   5.7748   8.2110   H         1 RES1   0.0000
    36 C14     -0.7997   8.3815   4.1030   C.3       1 RES1   0.0000
    37 H19     -0.7684   9.3488   4.2574   H         1 RES1   0.0000
    38 H20     -1.7318   8.0793   4.1113   H         1 RES1   0.0000
    39 H21     -0.3975   8.1765   3.2330   H         1 RES1   0.0000
    40 C15      5.6957   9.9814   2.9987   C.ar      1 RES1   0.0000
    41 C16      6.0109  11.2103   2.3887   C.ar      1 RES1   0.0000
    42 C17      7.3124  11.7260   2.4898   C.ar      1 RES1   0.0000
    43 H22      7.5104  12.5508   2.0621   H         1 RES1   0.0000
    44 C18      8.3137  11.0843   3.1836   C.ar      1 RES1   0.0000
    45 C19      7.9911   9.8839   3.8128   C.ar      1 RES1   0.0000
    46 H23      8.6637   9.4248   4.3020   H         1 RES1   0.0000
    47 C20      6.7112   9.3363   3.7461   C.ar      1 RES1   0.0000
    48 C21      4.9994  12.0368   1.6359   C.3       1 RES1   0.0000
    49 H24      5.0936  11.8721   0.6744   H         1 RES1   0.0000
    50 H25      5.1512  12.9870   1.8210   H         1 RES1   0.0000
    51 H26      4.0959  11.7883   1.9228   H         1 RES1   0.0000
    52 C22      9.7001  11.6646   3.2931   C.3       1 RES1   0.0000
    53 H27     10.3526  11.0192   2.9499   H         1 RES1   0.0000
    54 H28      9.8985  11.8613   4.2327   H         1 RES1   0.0000
    55 H29      9.7507  12.4910   2.7689   H         1 RES1   0.0000
    56 C23      6.4178   8.0934   4.5344   C.3       1 RES1   0.0000
    57 H30      6.0764   8.3406   5.4190   H         1 RES1   0.0000
    58 H31      7.2398   7.5696   4.6361   H         1 RES1   0.0000
    59 H32      5.7458   7.5584   4.0626   H         1 RES1   0.0000
    60 C24      3.6335   9.2361   0.5235   C.3       1 RES1   0.0000
    61 H33      4.2989   9.9104   0.2360   H         1 RES1   0.0000
    62 H34      3.5193   8.5986  -0.2254   H         1 RES1   0.0000
    63 C25      2.3273   9.9370   0.7380   C.ar      1 RES1   0.0000
    64 N3       1.8408  10.2148   1.9743   N.ar      1 RES1   0.0000
    65 C26      0.6741  10.8569   2.0661   C.ar      1 RES1   0.0000
    66 H35      0.3400  11.0451   2.9352   H         1 RES1   0.0000
    67 C27     -0.0785  11.2650   0.9877   C.ar      1 RES1   0.0000
    68 H36     -0.9070  11.7135   1.1099   H         1 RES1   0.0000
    69 C28      0.4107  11.0002  -0.2810   C.ar      1 RES1   0.0000
    70 H37     -0.0714  11.2706  -1.0535   H         1 RES1   0.0000
    71 C29      1.6086  10.3388  -0.3979   C.ar      1 RES1   0.0000
    72 H38      1.9565  10.1504  -1.2618   H         1 RES1   0.0000
    73 P1       1.6706  13.3593   4.9120   P.3       1 RES1   0.0000
    74 C30     -0.1716  13.3678   4.8850   C.3       1 RES1   0.0000
    75 H39     -0.4933  12.6398   4.3132   H         1 RES1   0.0000
    76 H40     -0.4892  14.2251   4.5322   H         1 RES1   0.0000
    77 H41     -0.5122  13.2429   5.7954   H         1 RES1   0.0000
    78 C31      2.0246  14.0163   3.2374   C.3       1 RES1   0.0000
    79 H42      2.9822  14.2095   3.1580   H         1 RES1   0.0000
    80 H43      1.5124  14.8395   3.0943   H         1 RES1   0.0000
    81 H44      1.7687  13.3513   2.5646   H         1 RES1   0.0000
    82 C32      1.9161  14.9219   5.8713   C.3       1 RES1   0.0000
    83 H45      1.5946  14.7957   6.7887   H         1 RES1   0.0000
    84 H46      1.4133  15.6483   5.4465   H         1 RES1   0.0000
    85 H47      2.8687  15.1495   5.8872   H         1 RES1   0.0000
    86 P2       4.5339  12.3850   6.1882   P.3       1 RES1   0.0000
    87 C33      5.4125  13.5447   5.0857   C.3       1 RES1   0.0000
    88 H48      5.7412  13.0619   4.2988   H         1 RES1   0.0000
    89 H49      6.1695  13.9414   5.5653   H         1 RES1   0.0000
    90 H50      4.7985  14.2535   4.8012   H         1 RES1   0.0000
    91 C34      5.8872  11.2221   6.5744   C.3       1 RES1   0.0000
    92 H51      5.5907  10.5939   7.2657   H         1 RES1   0.0000
    93 H52      6.6648  11.7222   6.8994   H         1 RES1   0.0000
    94 H53      6.1325  10.7260   5.7657   H         1 RES1   0.0000
    95 C35      4.5856  13.3737   7.7402   C.3       1 RES1   0.0000
    96 H54      3.9846  14.1432   7.6575   H         1 RES1   0.0000
    97 H55      5.5004  13.6888   7.8964   H         1 RES1   0.0000
    98 H56      4.2996  12.8151   8.4930   H         1 RES1   0.0000
    99 P3       1.6964  11.1598   7.3603   P.3       1 RES1   0.0000
   100 C36      1.2585  12.5326   8.5168   C.3       1 RES1   0.0000
   101 H57      2.0621  13.0546   8.7230   H         1 RES1   0.0000
   102 H58      0.8913  12.1579   9.3443   H         1 RES1   0.0000
   103 H59      0.5908  13.1135   8.0963   H         1 RES1   0.0000
   104 C37      2.5764  10.0517   8.5271   C.3       1 RES1   0.0000
   105 H60      2.6934   9.1704   8.1149   H         1 RES1   0.0000
   106 H61      2.0509   9.9604   9.3495   H         1 RES1   0.0000
   107 H62      3.4535  10.4322   8.7403   H         1 RES1   0.0000
   108 C38      0.0599  10.3554   7.3320   C.3       1 RES1   0.0000
   109 H63     -0.5484  10.8715   6.7622   H         1 RES1   0.0000
   110 H64     -0.3010  10.3158   8.2424   H         1 RES1   0.0000
   111 H65      0.1481   9.4466   6.9759   H         1 RES1   0.0000
@<TRIPOS>BOND
     1     1     3    1
     2     2     3    1
     3     4     1    1
     4     5     1    1
     5     6     2    1
     6     7     6    1
     7     8     7    2
     8     9     8    1
     9    10     8    1
    10    11     2    1
    11    12     7    1
    12    13    12    1
    13    14    12    1
    14    15    12    1
    15    16    10    1
    16    17    16    1
    17    18    16    1
    18    19    16    1
    19    20     6    1
    20    21    20   ar
    21    22    21   ar
    22    23    22    1
    23    24    22   ar
    24    25    24   ar
    25    26    25    1
    26    27    20   ar
    27    28    21    1
    28    29    28    1
    29    30    28    1
    30    31    28    1
    31    32    24    1
    32    33    32    1
    33    34    32    1
    34    35    32    1
    35    36    27    1
    36    37    36    1
    37    38    36    1
    38    39    36    1
    39    40    11    1
    40    41    40   ar
    41    42    41   ar
    42    43    42    1
    43    44    42   ar
    44    45    44   ar
    45    46    45    1
    46    47    40   ar
    47    48    41    1
    48    49    48    1
    49    50    48    1
    50    51    48    1
    51    52    44    1
    52    53    52    1
    53    54    52    1
    54    55    52    1
    55    56    47    1
    56    57    56    1
    57    58    56    1
    58    59    56    1
    59    60    10    1
    60    61    60    1
    61    62    60    1
    62    63    60    1
    63    64     2    1
    64    65    64   ar
    65    66    65    1
    66    67    65   ar
    67    68    67    1
    68    69    67   ar
    69    70    69    1
    70    71    63   ar
    71    72    71    1
    72    73     1    1
    73    74    73    1
    74    75    74    1
    75    76    74    1
    76    77    74    1
    77    78    73    1
    78    79    78    1
    79    80    78    1
    80    81    78    1
    81    82    73    1
    82    83    82    1
    83    84    82    1
    84    85    82    1
    85    86     1    1
    86    87    86    1
    87    88    87    1
    88    89    87    1
    89    90    87    1
    90    91    86    1
    91    92    91    1
    92    93    91    1
    93    94    91    1
    94    95    86    1
    95    96    95    1
    96    97    95    1
    97    98    95    1
    98    99     1    1
    99   100    99    1
   100   101   100    1
   101   102   100    1
   102   103   100    1
   103   104    99    1
   104   105   104    1
   105   106   104    1
   106   107   104    1
   107   108    99    1
   108   109   108    1
   109   110   108    1
   110   111   108    1
   111     2     4    1
   112     2     5    1
   113    10    11    1
   114    25    27   ar
   115    45    47   ar
   116    63    64   ar
   117    69    71   ar
@<TRIPOS>SUBSTRUCTURE
     1 RES1        1 GROUP             0 ****  ****    0  
@<TRIPOS>CRYSIN
   12.8414   18.4246   17.8629   90.0000  102.3236   90.0000    14     1
