@<TRIPOS>MOLECULE
GEQGOB01
    87    93     4     0     0
SMALL
USER_CHARGES
****
Generated from the CSD

@<TRIPOS>ATOM
     1 Fe1      4.3643   7.0978   0.9327   Fe        1 RES1   2.0000
     2 N1       2.2827   7.3998   0.5629   N.ar      1 RES1   0.0000
     3 C1       1.8676   8.3224  -0.3023   C.ar      1 RES1   0.0000
     4 C2       0.5509   8.7055  -0.4677   C.ar      1 RES1   0.0000
     5 H1       0.2961   9.3574  -1.1107   H         1 RES1   0.0000
     6 C3      -0.3922   8.0800   0.3637   C.ar      1 RES1   0.0000
     7 C4       0.0246   7.1073   1.2821   C.ar      1 RES1   0.0000
     8 H2      -0.5972   6.6704   1.8523   H         1 RES1   0.0000
     9 C5       1.3604   6.8080   1.3274   C.ar      1 RES1   0.0000
    10 N2       2.9343   8.9042  -1.0267   N.pl3     1 RES1   0.0000
    11 N3       4.2120   8.6211  -0.6215   N.2       1 RES1   0.0000
    12 C6       4.9892   9.3669  -1.3877   C.2       1 RES1   0.0000
    13 H3       5.9377   9.3905  -1.3291   H         1 RES1   0.0000
    14 C7       4.2311  10.1177  -2.2999   C.2       1 RES1   0.0000
    15 H4       4.5539  10.7234  -2.9567   H         1 RES1   0.0000
    16 C8       2.9342   9.7933  -2.0422   C.2       1 RES1   0.0000
    17 H5       2.1693  10.1307  -2.4948   H         1 RES1   0.0000
    18 N4       1.9043   5.8466   2.2020   N.pl3     1 RES1   0.0000
    19 N5       3.2627   5.6906   2.2354   N.2       1 RES1   0.0000
    20 C9       3.4627   4.6657   3.0456   C.2       1 RES1   0.0000
    21 H6       4.3205   4.3210   3.2662   H         1 RES1   0.0000
    22 C10      2.2561   4.1439   3.5421   C.2       1 RES1   0.0000
    23 H7       2.1421   3.4119   4.1366   H         1 RES1   0.0000
    24 C11      1.2803   4.9243   2.9798   C.2       1 RES1   0.0000
    25 H8       0.3425   4.8357   3.1091   H         1 RES1   0.0000
    26 S1      -2.1114   8.3786   0.3408   S.3       1 RES1   0.0000
    27 C12     -2.3222   9.9619  -0.5384   C.3       1 RES1   0.0000
    28 H9      -1.8514   9.9194  -1.4202   H         1 RES1   0.0000
    29 C13     -1.7694  11.1083   0.2729   C.3       1 RES1   0.0000
    30 H10     -1.8453  11.9394  -0.2419   H         1 RES1   0.0000
    31 H11     -0.8269  10.9383   0.4807   H         1 RES1   0.0000
    32 H12     -2.2776  11.1933   1.1076   H         1 RES1   0.0000
    33 C14     -3.8239  10.1083  -0.7682   C.3       1 RES1   0.0000
    34 H13     -4.2865  10.1236   0.0958   H         1 RES1   0.0000
    35 H14     -4.1482   9.3504  -1.2993   H         1 RES1   0.0000
    36 H15     -4.0001  10.9430  -1.2490   H         1 RES1   0.0000
    37 N6       6.2978   6.7608   1.7588   N.ar      1 RES1   0.0000
    38 C15      7.1031   5.8103   1.2774   C.ar      1 RES1   0.0000
    39 C16      8.3315   5.5048   1.8100   C.ar      1 RES1   0.0000
    40 H16      8.8723   4.8145   1.4438   H         1 RES1   0.0000
    41 C17      8.7546   6.2514   2.9148   C.ar      1 RES1   0.0000
    42 C18      7.9448   7.2726   3.4188   C.ar      1 RES1   0.0000
    43 H17      8.2172   7.8026   4.1586   H         1 RES1   0.0000
    44 C19      6.7323   7.4766   2.7943   C.ar      1 RES1   0.0000
    45 N7       6.5552   5.1760   0.1409   N.pl3     1 RES1   0.0000
    46 N8       5.3177   5.5711  -0.2922   N.2       1 RES1   0.0000
    47 C20      5.0924   4.8648  -1.3910   C.2       1 RES1   0.0000
    48 H18      4.3037   4.9266  -1.9167   H         1 RES1   0.0000
    49 C21      6.1647   4.0188  -1.6736   C.2       1 RES1   0.0000
    50 H19      6.2425   3.4108  -2.3990   H         1 RES1   0.0000
    51 C22      7.0831   4.2490  -0.6823   C.2       1 RES1   0.0000
    52 H20      7.9322   3.8334  -0.5923   H         1 RES1   0.0000
    53 N9       5.8243   8.4804   3.1801   N.pl3     1 RES1   0.0000
    54 N10      4.6590   8.5970   2.4782   N.2       1 RES1   0.0000
    55 C23      4.0424   9.6502   3.0029   C.2       1 RES1   0.0000
    56 H21      3.1988   9.9784   2.7148   H         1 RES1   0.0000
    57 C24      4.8019  10.2134   4.0368   C.2       1 RES1   0.0000
    58 H22      4.5820  10.9713   4.5655   H         1 RES1   0.0000
    59 C25      5.9261   9.4422   4.1235   C.2       1 RES1   0.0000
    60 H23      6.6453   9.5605   4.7336   H         1 RES1   0.0000
    61 S2      10.2931   5.7868   3.6029   S.3       1 RES1   0.0000
    62 C26     10.7183   7.1237   4.7724   C.3       1 RES1   0.0000
    63 H24      9.9264   7.3126   5.3541   H         1 RES1   0.0000
    64 C27     11.0919   8.3846   4.0235   C.3       1 RES1   0.0000
    65 H25     11.2988   9.0965   4.6644   H         1 RES1   0.0000
    66 H26     10.3417   8.6632   3.4579   H         1 RES1   0.0000
    67 H27     11.8775   8.2111   3.4626   H         1 RES1   0.0000
    68 C28     11.8534   6.5830   5.6375   C.3       1 RES1   0.0000
    69 H28     12.6385   6.4118   5.0761   H         1 RES1   0.0000
    70 H29     11.5700   5.7495   6.0658   H         1 RES1   0.0000
    71 H30     12.0815   7.2430   6.3266   H         1 RES1   0.0000
    72 Cl1      7.6002   9.1322   7.5952   Cl        2 RES2   0.0000
    73 O1       8.5943   9.7489   8.4098   O.2       2 RES2   0.0000
    74 O2       6.6563  10.1014   7.1343   O.2       2 RES2   0.0000
    75 O3       6.9273   8.1367   8.3526   O.2       2 RES2   0.0000
    76 O4       8.2571   8.5369   6.4672   O.3       2 RES2  -1.0000
    77 Cl2      0.9228  11.6852   3.5870   Cl        3 RES3   0.0000
    78 O5       2.2220  12.2969   3.5649   O.2       3 RES3   0.0000
    79 O6      -0.0788  12.6617   3.2496   O.3       3 RES3  -1.0000
    80 O7       0.6694  11.1917   4.9113   O.2       3 RES3   0.0000
    81 O8       0.8845  10.6088   2.6485   O.2       3 RES3   0.0000
    82 C29      9.8862   6.5984   9.0571   C.3       4 RES4   0.0000
    83 H31      9.6109   5.7176   8.7272   H         4 RES4   0.0000
    84 H32     10.0280   7.2017   8.2967   H         4 RES4   0.0000
    85 H33      9.1866   6.9644   9.6368   H         4 RES4   0.0000
    86 C30     11.1073   6.4720   9.8018   C.1       4 RES4   0.0000
    87 N11     12.0505   6.3434  10.3988   N.1       4 RES4   0.0000
@<TRIPOS>BOND
     1     1     2    1
     2     2     3   ar
     3     3     4   ar
     4     4     5    1
     5     6     4   ar
     6     7     6   ar
     7     8     7    1
     8     9     2   ar
     9    10     3    1
    10    11     1    1
    11    12    11    2
    12    13    12    1
    13    14    12    1
    14    15    14    1
    15    16    10    1
    16    17    16    1
    17    18     9    1
    18    19     1    1
    19    20    19    2
    20    21    20    1
    21    22    20    1
    22    23    22    1
    23    24    18    1
    24    25    24    1
    25    26     6    1
    26    27    26    1
    27    28    27    1
    28    29    27    1
    29    30    29    1
    30    31    29    1
    31    32    29    1
    32    33    27    1
    33    34    33    1
    34    35    33    1
    35    36    33    1
    36    37     1    1
    37    38    37   ar
    38    39    38   ar
    39    40    39    1
    40    41    39   ar
    41    42    41   ar
    42    43    42    1
    43    44    37   ar
    44    45    38    1
    45    46     1    1
    46    47    46    2
    47    48    47    1
    48    49    47    1
    49    50    49    1
    50    51    45    1
    51    52    51    1
    52    53    44    1
    53    54     1    1
    54    55    54    2
    55    56    55    1
    56    57    55    1
    57    58    57    1
    58    59    53    1
    59    60    59    1
    60    61    41    1
    61    62    61    1
    62    63    62    1
    63    64    62    1
    64    65    64    1
    65    66    64    1
    66    67    64    1
    67    68    62    1
    68    69    68    1
    69    70    68    1
    70    71    68    1
    71     7     9   ar
    72    10    11    1
    73    14    16    2
    74    18    19    1
    75    22    24    2
    76    42    44   ar
    77    45    46    1
    78    49    51    2
    79    53    54    1
    80    57    59    2
    81    72    73    2
    82    74    72    2
    83    75    72    2
    84    76    72    1
    85    77    78    2
    86    79    77    1
    87    80    77    2
    88    81    77    2
    89    82    83    1
    90    84    82    1
    91    85    82    1
    92    86    82    1
    93    87    86    3
@<TRIPOS>SUBSTRUCTURE
     1 RES1        1 GROUP             0 ****  ****    0  
     2 RES2       72 GROUP             0 ****  ****    0  
     3 RES3       77 GROUP             0 ****  ****    0  
     4 RES4       82 GROUP             0 ****  ****    0  
@<TRIPOS>CRYSIN
   20.4344   11.8060   15.9788   90.0000  100.5150   90.0000    14     1
