@<TRIPOS>MOLECULE
GEQJAQ02
    84    90     4     0     0
SMALL
USER_CHARGES
****
Generated from the CSD

@<TRIPOS>ATOM
     1 Fe1      4.3057   7.4179   1.2695   Fe        1 RES1   2.0000
     2 N1       2.4899   7.6780   0.7687   N.ar      1 RES1   0.0000
     3 C1       2.1453   8.6138  -0.1163   C.ar      1 RES1   0.0000
     4 C2       0.8362   8.9233  -0.4222   C.ar      1 RES1   0.0000
     5 H1       0.6208   9.5793  -1.0743   H         1 RES1   0.0000
     6 C3      -0.1598   8.2278   0.2723   C.ar      1 RES1   0.0000
     7 C4       0.1898   7.2446   1.2171   C.ar      1 RES1   0.0000
     8 H2      -0.4738   6.7586   1.6928   H         1 RES1   0.0000
     9 C5       1.5247   7.0176   1.4212   C.ar      1 RES1   0.0000
    10 N2       3.2911   9.2325  -0.6317   N.pl3     1 RES1   0.0000
    11 N3       4.4969   8.8577  -0.0840   N.2       1 RES1   0.0000
    12 C6       5.3928   9.6647  -0.6190   C.2       1 RES1   0.0000
    13 H3       6.3231   9.6410  -0.4247   H         1 RES1   0.0000
    14 C7       4.7882  10.5654  -1.5159   C.2       1 RES1   0.0000
    15 H4       5.2197  11.2417  -2.0258   H         1 RES1   0.0000
    16 C8       3.4507  10.2679  -1.5033   C.2       1 RES1   0.0000
    17 H5       2.7686  10.6989  -2.0036   H         1 RES1   0.0000
    18 N4       2.0666   6.1197   2.3525   N.pl3     1 RES1   0.0000
    19 N5       3.4386   6.0970   2.4577   N.2       1 RES1   0.0000
    20 C9       3.6963   5.1736   3.3756   C.2       1 RES1   0.0000
    21 H6       4.5674   4.9353   3.6698   H         1 RES1   0.0000
    22 C10      2.5045   4.5937   3.8571   C.2       1 RES1   0.0000
    23 H7       2.4217   3.9149   4.5177   H         1 RES1   0.0000
    24 C11      1.4903   5.2106   3.1760   C.2       1 RES1   0.0000
    25 H8       0.5611   5.0357   3.2643   H         1 RES1   0.0000
    26 S1      -1.8773   8.4352   0.0571   S.3       1 RES1   0.0000
    27 C12     -2.0795   9.9909  -0.8735   C.3       1 RES1   0.0000
    28 H9      -1.5074   9.9686  -1.6928   H         1 RES1   0.0000
    29 C13     -1.7015  11.1941  -0.0167   C.3       1 RES1   0.0000
    30 H10     -1.8213  12.0155  -0.5371   H         1 RES1   0.0000
    31 H11     -0.7656  11.1160   0.2604   H         1 RES1   0.0000
    32 H12     -2.2758  11.2236   0.7769   H         1 RES1   0.0000
    33 C14     -3.5493  10.0402  -1.2748   C.3       1 RES1   0.0000
    34 H13     -4.1083  10.0569  -0.4691   H         1 RES1   0.0000
    35 H14     -3.7692   9.2480  -1.8083   H         1 RES1   0.0000
    36 H15     -3.7161  10.8476  -1.8053   H         1 RES1   0.0000
    37 N6       6.0748   7.1400   1.8979   N.ar      1 RES1   0.0000
    38 C15      6.8514   6.1963   1.3575   C.ar      1 RES1   0.0000
    39 C16      8.0823   5.8614   1.8445   C.ar      1 RES1   0.0000
    40 H16      8.6106   5.1856   1.4354   H         1 RES1   0.0000
    41 C17      8.5353   6.5599   2.9776   C.ar      1 RES1   0.0000
    42 C18      7.7455   7.5609   3.5573   C.ar      1 RES1   0.0000
    43 H17      8.0381   8.0511   4.3164   H         1 RES1   0.0000
    44 C19      6.5212   7.7979   2.9690   C.ar      1 RES1   0.0000
    45 N7       6.2141   5.6101   0.2532   N.pl3     1 RES1   0.0000
    46 N8       4.9222   6.0275  -0.0043   N.2       1 RES1   0.0000
    47 C20      4.5643   5.3855  -1.1029   C.2       1 RES1   0.0000
    48 H18      3.7175   5.4734  -1.5256   H         1 RES1   0.0000
    49 C21      5.6014   4.5539  -1.5651   C.2       1 RES1   0.0000
    50 H19      5.5880   3.9935  -2.3321   H         1 RES1   0.0000
    51 C22      6.6358   4.7189  -0.6785   C.2       1 RES1   0.0000
    52 H20      7.4839   4.2909  -0.7118   H         1 RES1   0.0000
    53 N9       5.5621   8.7270   3.4017   N.pl3     1 RES1   0.0000
    54 N10      4.3754   8.7523   2.7057   N.2       1 RES1   0.0000
    55 C23      3.6900   9.7650   3.2108   C.2       1 RES1   0.0000
    56 H21      2.8209  10.0242   2.9255   H         1 RES1   0.0000
    57 C24      4.4211  10.4081   4.2296   C.2       1 RES1   0.0000
    58 H22      4.1507  11.1619   4.7411   H         1 RES1   0.0000
    59 C25      5.6005   9.7222   4.3308   C.2       1 RES1   0.0000
    60 H23      6.3115   9.9057   4.9350   H         1 RES1   0.0000
    61 S2      10.0738   6.0150   3.5838   S.3       1 RES1   0.0000
    62 C26     10.4085   7.0081   5.0767   C.3       1 RES1   0.0000
    63 H24      9.5638   7.1092   5.6023   H         1 RES1   0.0000
    64 C27     10.9448   8.3845   4.7219   C.3       1 RES1   0.0000
    65 H25     11.1267   8.8865   5.5446   H         1 RES1   0.0000
    66 H26     10.2805   8.8660   4.1862   H         1 RES1   0.0000
    67 H27     11.7743   8.2892   4.2069   H         1 RES1   0.0000
    68 C28     11.4044   6.1825   5.8810   C.3       1 RES1   0.0000
    69 H28     12.2200   6.0501   5.3537   H         1 RES1   0.0000
    70 H29     11.0093   5.3114   6.0951   H         1 RES1   0.0000
    71 H30     11.6254   6.6546   6.7107   H         1 RES1   0.0000
    72 Cl1      7.7030   8.8213   7.5706   Cl        2 RES2   0.0000
    73 O1       8.6260   9.0854   8.6509   O.2       2 RES2   0.0000
    74 O2       8.2129   9.4247   6.3586   O.2       2 RES2   0.0000
    75 O3       6.4179   9.3561   7.8854   O.2       2 RES2   0.0000
    76 O4       7.6070   7.3885   7.3697   O.3       2 RES2  -1.0000
    77 Cl2      0.4627  11.7168   3.3469   Cl        3 RES3   0.0000
    78 O5       1.7490  12.3669   3.4188   O.2       3 RES3   0.0000
    79 O6      -0.5282  12.6440   2.8402   O.2       3 RES3   0.0000
    80 O7       0.0683  11.2899   4.6800   O.3       3 RES3  -1.0000
    81 O8       0.5469  10.5659   2.4845   O.2       3 RES3   0.0000
    82 O9      10.2165   6.6431   9.2529   O.3       4 RES4   0.0000
    83 H31      9.7276   7.3994   9.1449   H         4 RES4   0.0000
    84 H32      9.7860   5.9848   8.7453   H         4 RES4   0.0000
@<TRIPOS>BOND
     1     1     2    1
     2     2     3   ar
     3     3     4   ar
     4     4     5    1
     5     6     4   ar
     6     7     6   ar
     7     8     7    1
     8     9     2   ar
     9    10     3    1
    10    11     1    1
    11    12    11    2
    12    13    12    1
    13    14    12    1
    14    15    14    1
    15    16    10    1
    16    17    16    1
    17    18     9    1
    18    19     1    1
    19    20    19    2
    20    21    20    1
    21    22    20    1
    22    23    22    1
    23    24    18    1
    24    25    24    1
    25    26     6    1
    26    27    26    1
    27    28    27    1
    28    29    27    1
    29    30    29    1
    30    31    29    1
    31    32    29    1
    32    33    27    1
    33    34    33    1
    34    35    33    1
    35    36    33    1
    36    37     1    1
    37    38    37   ar
    38    39    38   ar
    39    40    39    1
    40    41    39   ar
    41    42    41   ar
    42    43    42    1
    43    44    37   ar
    44    45    38    1
    45    46     1    1
    46    47    46    2
    47    48    47    1
    48    49    47    1
    49    50    49    1
    50    51    45    1
    51    52    51    1
    52    53    44    1
    53    54     1    1
    54    55    54    2
    55    56    55    1
    56    57    55    1
    57    58    57    1
    58    59    53    1
    59    60    59    1
    60    61    41    1
    61    62    61    1
    62    63    62    1
    63    64    62    1
    64    65    64    1
    65    66    64    1
    66    67    64    1
    67    68    62    1
    68    69    68    1
    69    70    68    1
    70    71    68    1
    71     7     9   ar
    72    10    11    1
    73    14    16    2
    74    18    19    1
    75    22    24    2
    76    42    44   ar
    77    45    46    1
    78    49    51    2
    79    53    54    1
    80    57    59    2
    81    72    73    2
    82    74    72    2
    83    75    72    2
    84    76    72    1
    85    77    78    2
    86    79    77    2
    87    80    77    1
    88    81    77    2
    89    82    83    1
    90    84    82    1
@<TRIPOS>SUBSTRUCTURE
     1 RES1        1 GROUP             0 ****  ****    0  
     2 RES2       72 GROUP             0 ****  ****    0  
     3 RES3       77 GROUP             0 ****  ****    0  
     4 RES4       82 GROUP             0 ****  ****    0  
@<TRIPOS>CRYSIN
   19.9318   12.0905   15.2378   90.0000  103.8070   90.0000    14     1
