@<TRIPOS>MOLECULE
GETSAC01
   106   117     4     0     0
SMALL
USER_CHARGES
****
Generated from the CSD

@<TRIPOS>ATOM
     1 Fe1      9.1204   8.2306  16.9061   Fe        1 RES1   2.0000
     2 N1      11.2417   8.5193  16.6882   N.2       1 RES1   0.0000
     3 N2       9.4025  10.3638  17.0369   N.2       1 RES1   0.0000
     4 N3      10.6709  12.1474  16.9641   N.pl3     1 RES1   0.0000
     5 N4      12.9890   9.8571  16.3915   N.pl3     1 RES1   0.0000
     6 C1      12.3695   7.7559  16.4696   C.2       1 RES1   0.0000
     7 H1      12.3921   6.8172  16.4540   H         1 RES1   0.0000
     8 C2      13.4227   8.5471  16.2874   C.2       1 RES1   0.0000
     9 H2      14.3042   8.2678  16.1173   H         1 RES1   0.0000
    10 C3      11.6495   9.7703  16.6379   C.2       1 RES1   0.0000
    11 C4      10.6292  10.8114  16.8669   C.2       1 RES1   0.0000
    12 C5       8.6217  11.4569  17.2695   C.2       1 RES1   0.0000
    13 H3       7.6986  11.4412  17.4430   H         1 RES1   0.0000
    14 C6       9.3886  12.5621  17.2087   C.2       1 RES1   0.0000
    15 H4       9.1006  13.4505  17.3163   H         1 RES1   0.0000
    16 C7      11.8039  13.1156  16.7420   C.3       1 RES1   0.0000
    17 H5      12.1353  13.0150  15.8241   H         1 RES1   0.0000
    18 H6      11.4673  14.0300  16.8409   H         1 RES1   0.0000
    19 C8      13.8426  11.0387  16.2319   C.3       1 RES1   0.0000
    20 H7      13.5043  11.5766  15.4840   H         1 RES1   0.0000
    21 H8      14.7501  10.7472  16.0046   H         1 RES1   0.0000
    22 C9      13.9016  11.9045  17.4707   C.ar      1 RES1   0.0000
    23 C10     14.9566  11.7553  18.3487   C.ar      1 RES1   0.0000
    24 H9      15.6211  11.1133  18.1769   H         1 RES1   0.0000
    25 C11     15.0433  12.5500  19.4800   C.ar      1 RES1   0.0000
    26 H10     15.7252  12.4042  20.1098   H         1 RES1   0.0000
    27 C12     14.1150  13.5598  19.6778   C.ar      1 RES1   0.0000
    28 H11     14.2070  14.1428  20.4100   H         1 RES1   0.0000
    29 C13     13.0827  13.7108  18.8276   C.ar      1 RES1   0.0000
    30 H12     12.4407  14.3770  18.9976   H         1 RES1   0.0000
    31 C14     12.9404  12.9022  17.6998   C.ar      1 RES1   0.0000
    32 N1E      8.8317   8.0127  14.7848   N.2       1 RES1   0.0000
    33 N2E      6.9872   8.3614  16.6240   N.2       1 RES1   0.0000
    34 N3E      5.2036   8.2886  15.3556   N.pl3     1 RES1   0.0000
    35 N4E      7.4939   7.7160  13.0375   N.pl3     1 RES1   0.0000
    36 C1E      9.5951   7.7941  13.6570   C.2       1 RES1   0.0000
    37 H1E     10.5338   7.7785  13.6344   H         1 RES1   0.0000
    38 C2E      8.8039   7.6119  12.6038   C.2       1 RES1   0.0000
    39 H2E      9.0832   7.4418  11.7223   H         1 RES1   0.0000
    40 C3E      7.5807   7.9624  14.3770   C.2       1 RES1   0.0000
    41 C4E      6.5396   8.1914  15.3973   C.2       1 RES1   0.0000
    42 C5E      5.8941   8.5940  17.4048   C.2       1 RES1   0.0000
    43 H3E      5.9098   8.7675  18.3279   H         1 RES1   0.0000
    44 C6E      4.7889   8.5332  16.6379   C.2       1 RES1   0.0000
    45 H4E      3.9005   8.6408  16.9259   H         1 RES1   0.0000
    46 C7E      4.2354   8.0665  14.2226   C.3       1 RES1   0.0000
    47 H5E      4.3360   7.1486  13.8912   H         1 RES1   0.0000
    48 H6E      3.3210   8.1654  14.5592   H         1 RES1   0.0000
    49 C8E      6.3123   7.5564  12.1839   C.3       1 RES1   0.0000
    50 H7E      5.7744   6.8085  12.5222   H         1 RES1   0.0000
    51 H8E      6.6038   7.3291  11.2764   H         1 RES1   0.0000
    52 C9E      5.4465   8.7952  12.1249   C.ar      1 RES1   0.0000
    53 C10E     5.5957   9.6732  11.0699   C.ar      1 RES1   0.0000
    54 H9E      6.2377   9.5014  10.4054   H         1 RES1   0.0000
    55 C11E     4.8010  10.8045  10.9832   C.ar      1 RES1   0.0000
    56 H10E     4.9468  11.4343  10.3013   H         1 RES1   0.0000
    57 C12E     3.7912  11.0023  11.9115   C.ar      1 RES1   0.0000
    58 H11E     3.2082  11.7345  11.8195   H         1 RES1   0.0000
    59 C13E     3.6402  10.1521  12.9438   C.ar      1 RES1   0.0000
    60 H12E     2.9740  10.3221  13.5858   H         1 RES1   0.0000
    61 C14E     4.4488   9.0243  13.0861   C.ar      1 RES1   0.0000
    62 N1F      9.3383   6.1093  17.1948   N.2       1 RES1   0.0000
    63 N2F      8.9896   7.9485  19.0393   N.2       1 RES1   0.0000
    64 N3F      9.0624   6.6801  20.8229   N.pl3     1 RES1   0.0000
    65 N4F      9.6350   4.3620  18.5326   N.pl3     1 RES1   0.0000
    66 C1F      9.5569   4.9815  16.4314   C.2       1 RES1   0.0000
    67 H1F      9.5725   4.9589  15.4927   H         1 RES1   0.0000
    68 C2F      9.7391   3.9283  17.2226   C.2       1 RES1   0.0000
    69 H2F      9.9092   3.0468  16.9433   H         1 RES1   0.0000
    70 C3F      9.3886   5.7015  18.4458   C.2       1 RES1   0.0000
    71 C4F      9.1596   6.7218  19.4869   C.2       1 RES1   0.0000
    72 C5F      8.7570   8.7293  20.1324   C.2       1 RES1   0.0000
    73 H3F      8.5835   9.6524  20.1167   H         1 RES1   0.0000
    74 C6F      8.8178   7.9624  21.2376   C.2       1 RES1   0.0000
    75 H4F      8.7102   8.2504  22.1260   H         1 RES1   0.0000
    76 C7F      9.2845   5.5471  21.7911   C.3       1 RES1   0.0000
    77 H5F     10.2024   5.2157  21.6905   H         1 RES1   0.0000
    78 H6F      9.1856   5.8837  22.7055   H         1 RES1   0.0000
    79 C8F      9.7946   3.5084  19.7142   C.3       1 RES1   0.0000
    80 H7F     10.5425   3.8467  20.2521   H         1 RES1   0.0000
    81 H8F     10.0219   2.6009  19.4227   H         1 RES1   0.0000
    82 C9F      8.5558   3.4494  20.5800   C.ar      1 RES1   0.0000
    83 C10F     7.6778   2.3944  20.4308   C.ar      1 RES1   0.0000
    84 H9F      7.8496   1.7299  19.7888   H         1 RES1   0.0000
    85 C11F     6.5465   2.3077  21.2255   C.ar      1 RES1   0.0000
    86 H10F     5.9167   1.6258  21.0797   H         1 RES1   0.0000
    87 C12F     6.3487   3.2360  22.2353   C.ar      1 RES1   0.0000
    88 H11F     5.6165   3.1440  22.8183   H         1 RES1   0.0000
    89 C13F     7.1989   4.2683  22.3863   C.ar      1 RES1   0.0000
    90 H12F     7.0289   4.9103  23.0525   H         1 RES1   0.0000
    91 C14F     8.3267   4.4106  21.5777   C.ar      1 RES1   0.0000
    92 Cl1     14.3970  14.3970  14.3970   Cl        2 RES2   0.0000
    93 O1      15.1665  15.2914  13.5928   O.3       2 RES2  -1.0000
    94 O2      13.6362  13.6362  13.6362   O.2       2 RES2   0.0000
    95 O1A     13.5928  15.1665  15.2914   O.2       2 RES2   0.0000
    96 O1B     15.2914  13.5928  15.1665   O.2       2 RES2   0.0000
    97 Cl2     18.0280   9.3525  16.6740   Cl        3 RES3   0.0000
    98 O3      16.7541   9.2897  16.0375   O.2       3 RES3   0.0000
    99 O4      18.8762  10.2007  15.8258   O.3       3 RES3  -1.0000
   100 O3G     18.6645   8.0786  16.7368   O.2       3 RES3   0.0000
   101 O3H     17.9652   9.9890  17.9479   O.2       3 RES3   0.0000
   102 Cl3     13.3828  10.1070  12.9109   Cl        4 RES4   0.0000
   103 Cl4     12.5066   8.0942  11.1636   Cl        4 RES4   0.0000
   104 C15     13.5112   9.4528  11.3736   C.3       4 RES4   0.0000
   105 H13     14.4430   9.1943  11.2105   H         4 RES4   0.0000
   106 H14     13.2700  10.1365  10.7125   H         4 RES4   0.0000
@<TRIPOS>BOND
     1     1     2    1
     2     2     6    1
     3     3     1    1
     4     4    11    1
     5     5     8    1
     6     6     7    1
     7     8     6    2
     8     9     8    1
     9    10     2    2
    10    11     3    2
    11    12     3    1
    12    13    12    1
    13    14     4    1
    14    15    14    1
    15    16     4    1
    16    17    16    1
    17    18    16    1
    18    19     5    1
    19    20    19    1
    20    21    19    1
    21    22    19    1
    22    23    22   ar
    23    24    23    1
    24    25    23   ar
    25    26    25    1
    26    27    25   ar
    27    28    27    1
    28    29    27   ar
    29    30    29    1
    30    31    16    1
    31    32     1    1
    32    33     1    1
    33    34    41    1
    34    35    38    1
    35    36    32    1
    36    37    36    1
    37    38    36    2
    38    39    38    1
    39    40    32    2
    40    41    33    2
    41    42    33    1
    42    43    42    1
    43    44    34    1
    44    45    44    1
    45    46    34    1
    46    47    46    1
    47    48    46    1
    48    49    35    1
    49    50    49    1
    50    51    49    1
    51    52    49    1
    52    53    52   ar
    53    54    53    1
    54    55    53   ar
    55    56    55    1
    56    57    55   ar
    57    58    57    1
    58    59    57   ar
    59    60    59    1
    60    61    46    1
    61    62     1    1
    62    63     1    1
    63    64    71    1
    64    65    68    1
    65    66    62    1
    66    67    66    1
    67    68    66    2
    68    69    68    1
    69    70    62    2
    70    71    63    2
    71    72    63    1
    72    73    72    1
    73    74    64    1
    74    75    74    1
    75    76    64    1
    76    77    76    1
    77    78    76    1
    78    79    65    1
    79    80    79    1
    80    81    79    1
    81    82    79    1
    82    83    82   ar
    83    84    83    1
    84    85    83   ar
    85    86    85    1
    86    87    85   ar
    87    88    87    1
    88    89    87   ar
    89    90    89    1
    90    91    76    1
    91     5    10    1
    92    10    11    1
    93    12    14    2
    94    22    31   ar
    95    29    31   ar
    96    35    40    1
    97    40    41    1
    98    42    44    2
    99    52    61   ar
   100    59    61   ar
   101    65    70    1
   102    70    71    1
   103    72    74    2
   104    82    91   ar
   105    89    91   ar
   106    92    93    1
   107    94    92    2
   108    95    92    2
   109    96    92    2
   110    97    98    2
   111    99    97    1
   112   100    97    2
   113   101    97    2
   114   102   104    1
   115   103   104    1
   116   104   105    1
   117   106   104    1
@<TRIPOS>SUBSTRUCTURE
     1 RES1        1 GROUP             0 ****  ****    0  
     2 RES2       92 GROUP             0 ****  ****    0  
     3 RES3       97 GROUP             0 ****  ****    0  
     4 RES4      102 GROUP             0 ****  ****    0  
@<TRIPOS>CRYSIN
   17.3510   17.3510   17.3510   90.0000   90.0000   90.0000   198     1
