@<TRIPOS>MOLECULE
GEXKAX
    87    93     1     0     0
SMALL
NO_CHARGES
****
Generated from the CSD

@<TRIPOS>ATOM
     1 Fe1      7.9856   4.9007   0.3427   Fe        1 RES1   0.0000
     2 O1       7.2816   4.8795   2.0967   O.3       1 RES1   0.0000
     3 C1       7.6646   4.2009   3.1853   C.ar      1 RES1   0.0000
     4 C2       6.7025   3.6572   4.0502   C.ar      1 RES1   0.0000
     5 C3       7.1608   2.9545   5.1424   C.ar      1 RES1   0.0000
     6 H1       6.5333   2.6014   5.7316   H         1 RES1   0.0000
     7 C4       8.4975   2.7467   5.4110   C.ar      1 RES1   0.0000
     8 C5       9.4138   3.2958   4.5519   C.ar      1 RES1   0.0000
     9 H2      10.3208   3.1686   4.7129   H         1 RES1   0.0000
    10 C6       9.0192   4.0349   3.4503   C.ar      1 RES1   0.0000
    11 C7      10.0388   4.6603   2.5534   C.3       1 RES1   0.0000
    12 H3       9.9439   5.6246   2.5913   H         1 RES1   0.0000
    13 H4      10.9250   4.4367   2.8800   H         1 RES1   0.0000
    14 N1       9.9196   4.2187   1.1406   N.3       1 RES1   0.0000
    15 C8       9.9972   2.7389   1.0827   C.3       1 RES1   0.0000
    16 H5       9.3765   2.3787   1.7346   H         1 RES1   0.0000
    17 H6      10.8899   2.4708   1.3536   H         1 RES1   0.0000
    18 C9       9.7046   2.1082  -0.2378   C.ar      1 RES1   0.0000
    19 C10     10.6261   1.2583  -0.8247   C.ar      1 RES1   0.0000
    20 H7      11.4771   1.1849  -0.4579   H         1 RES1   0.0000
    21 C11     10.3057   0.5209  -1.9358   C.ar      1 RES1   0.0000
    22 C12      9.0313   0.6364  -2.4446   C.ar      1 RES1   0.0000
    23 H8       8.8083   0.1277  -3.1912   H         1 RES1   0.0000
    24 C13      8.0631   1.4691  -1.9050   C.ar      1 RES1   0.0000
    25 C14      8.4328   2.2697  -0.8022   C.ar      1 RES1   0.0000
    26 O2       7.5901   3.1443  -0.2461   O.3       1 RES1   0.0000
    27 C15      5.2098   3.8279   3.7698   C.3       1 RES1   0.0000
    28 C16      4.3584   3.1479   4.8229   C.3       1 RES1   0.0000
    29 H9       3.4310   3.3112   4.6395   H         1 RES1   0.0000
    30 H10      4.5805   3.4983   5.6890   H         1 RES1   0.0000
    31 H11      4.5260   2.2035   4.8087   H         1 RES1   0.0000
    32 C17      4.8439   5.3193   3.7473   C.3       1 RES1   0.0000
    33 H12      3.8882   5.4137   3.7367   H         1 RES1   0.0000
    34 H13      5.2147   5.7285   2.9628   H         1 RES1   0.0000
    35 H14      5.1986   5.7463   4.5294   H         1 RES1   0.0000
    36 C18      4.8531   3.1954   2.4174   C.3       1 RES1   0.0000
    37 H15      3.9239   3.3468   2.2269   H         1 RES1   0.0000
    38 H16      5.0219   2.2510   2.4517   H         1 RES1   0.0000
    39 H17      5.3902   3.5903   1.7263   H         1 RES1   0.0000
    40 C19      8.9346   1.8798   6.5717   C.3       1 RES1   0.0000
    41 H18      9.8674   2.0253   6.7457   H         1 RES1   0.0000
    42 H19      8.7886   0.9562   6.3540   H         1 RES1   0.0000
    43 H20      8.4247   2.1085   7.3515   H         1 RES1   0.0000
    44 C20     11.3061  -0.4175  -2.5392   C.3       1 RES1   0.0000
    45 H21     12.1500   0.0297  -2.6315   H         1 RES1   0.0000
    46 H22     10.9976  -0.7008  -3.4030   H         1 RES1   0.0000
    47 H23     11.4106  -1.1819  -1.9689   H         1 RES1   0.0000
    48 C21      6.6258   1.4946  -2.4351   C.3       1 RES1   0.0000
    49 C22      6.2630   2.8856  -2.9688   C.3       1 RES1   0.0000
    50 H24      5.3822   2.8628  -3.3509   H         1 RES1   0.0000
    51 H25      6.8960   3.1449  -3.6420   H         1 RES1   0.0000
    52 H26      6.2833   3.5191  -2.2493   H         1 RES1   0.0000
    53 C23      5.6595   1.1136  -1.3323   C.3       1 RES1   0.0000
    54 H27      4.7584   1.2235  -1.6459   H         1 RES1   0.0000
    55 H28      5.8034   1.6808  -0.5715   H         1 RES1   0.0000
    56 H29      5.8036   0.1990  -1.0827   H         1 RES1   0.0000
    57 C24      6.4357   0.5241  -3.5935   C.3       1 RES1   0.0000
    58 H30      6.6768  -0.3623  -3.3119   H         1 RES1   0.0000
    59 H31      6.9939   0.7899  -4.3283   H         1 RES1   0.0000
    60 H32      5.5164   0.5316  -3.8704   H         1 RES1   0.0000
    61 C25     10.9942   4.8156   0.3230   C.3       1 RES1   0.0000
    62 H33     11.8034   4.2912   0.4236   H         1 RES1   0.0000
    63 H34     11.1793   5.7137   0.6413   H         1 RES1   0.0000
    64 C26     10.6199   4.8724  -1.1217   C.ar      1 RES1   0.0000
    65 C27     11.5440   4.7634  -2.1334   C.ar      1 RES1   0.0000
    66 H35     12.4375   4.5911  -1.9393   H         1 RES1   0.0000
    67 C28     11.1352   4.9148  -3.4314   C.ar      1 RES1   0.0000
    68 H36     11.7463   4.8317  -4.1283   H         1 RES1   0.0000
    69 C29      9.8254   5.1851  -3.6953   C.ar      1 RES1   0.0000
    70 H37      9.5301   5.3187  -4.5661   H         1 RES1   0.0000
    71 C30      8.9514   5.2516  -2.6315   C.ar      1 RES1   0.0000
    72 H38      8.0510   5.4078  -2.8031   H         1 RES1   0.0000
    73 N2       9.3440   5.1001  -1.3749   N.ar      1 RES1   0.0000
    74 O3       8.7037   6.8107   0.6946   O.2       1 RES1   0.0000
    75 O4       6.4707   5.7478  -0.5987   O.2       1 RES1   0.0000
    76 C31      8.7846   9.1252   1.0081   C.3       1 RES1   0.0000
    77 H39      8.4477   9.8979   0.5467   H         1 RES1   0.0000
    78 H40      9.7291   9.0486   0.8567   H         1 RES1   0.0000
    79 H41      8.6168   9.2179   1.9488   H         1 RES1   0.0000
    80 C32      8.0909   7.8890   0.4934   C.2       1 RES1   0.0000
    81 C33      6.8871   8.0083  -0.1313   C.2       1 RES1   0.0000
    82 H42      6.5487   8.8675  -0.2319   H         1 RES1   0.0000
    83 C34      6.1255   6.9785  -0.6283   C.2       1 RES1   0.0000
    84 C35      4.7983   7.2526  -1.2460   C.3       1 RES1   0.0000
    85 H43      4.8123   6.9817  -2.1677   H         1 RES1   0.0000
    86 H44      4.6090   8.1933  -1.1927   H         1 RES1   0.0000
    87 H45      4.1196   6.7620  -0.7786   H         1 RES1   0.0000
@<TRIPOS>BOND
     1     1     2    1
     2     2     3    1
     3     3     4   ar
     4     4     5   ar
     5     5     6    1
     6     7     5   ar
     7     8     7   ar
     8     9     8    1
     9    10     3   ar
    10    11    10    1
    11    12    11    1
    12    13    11    1
    13    14     1    1
    14    15    14    1
    15    16    15    1
    16    17    15    1
    17    18    15    1
    18    19    18   ar
    19    20    19    1
    20    21    19   ar
    21    22    21   ar
    22    23    22    1
    23    24    22   ar
    24    25    18   ar
    25    26     1    1
    26    27     4    1
    27    28    27    1
    28    29    28    1
    29    30    28    1
    30    31    28    1
    31    32    27    1
    32    33    32    1
    33    34    32    1
    34    35    32    1
    35    36    27    1
    36    37    36    1
    37    38    36    1
    38    39    36    1
    39    40     7    1
    40    41    40    1
    41    42    40    1
    42    43    40    1
    43    44    21    1
    44    45    44    1
    45    46    44    1
    46    47    44    1
    47    48    24    1
    48    49    48    1
    49    50    49    1
    50    51    49    1
    51    52    49    1
    52    53    48    1
    53    54    53    1
    54    55    53    1
    55    56    53    1
    56    57    48    1
    57    58    57    1
    58    59    57    1
    59    60    57    1
    60    61    14    1
    61    62    61    1
    62    63    61    1
    63    64    61    1
    64    65    64   ar
    65    66    65    1
    66    67    65   ar
    67    68    67    1
    68    69    67   ar
    69    70    69    1
    70    71    69   ar
    71    72    71    1
    72    73     1    1
    73    74     1    1
    74    75     1    1
    75    76    77    1
    76    78    76    1
    77    79    76    1
    78    80    74   un
    79    81    80   un
    80    82    81    1
    81    83    75   un
    82    84    83    1
    83    85    84    1
    84    86    84    1
    85    87    84    1
    86     8    10   ar
    87    11    14    1
    88    24    25   ar
    89    25    26    1
    90    64    73   ar
    91    71    73   ar
    92    76    80    1
    93    81    83   un
@<TRIPOS>SUBSTRUCTURE
     1 RES1        1 GROUP             0 ****  ****    0  
@<TRIPOS>CRYSIN
    9.4159   29.6968   12.2485   90.0000  104.9770   90.0000   231     1
