@<TRIPOS>MOLECULE
GEXVAI
    90    92     2     0     0
SMALL
USER_CHARGES
****
Generated from the CSD

@<TRIPOS>ATOM
     1 Fe1      6.0564   8.4657   2.9420   Fe        1 RES1   1.0000
     2 P1       7.7535   7.9224   1.5599   P.3       1 RES1   0.0000
     3 N1       4.6546   8.4719   1.5860   N.ar      1 RES1   0.0000
     4 N2       4.6331   9.3253   3.9580   N.2       1 RES1   0.0000
     5 N3       7.3220   8.3991   4.4434   N.ar      1 RES1   0.0000
     6 N4       5.8073   6.5987   3.5090   N.2       1 RES1   0.0000
     7 C1       6.5843  10.3855   2.4147   C.3       1 RES1   0.0000
     8 H1       6.0970  10.6484   1.6067   H         1 RES1   0.0000
     9 H2       7.5489  10.4231   2.2418   H         1 RES1   0.0000
    10 H3       6.3601  10.9989   3.1461   H         1 RES1   0.0000
    11 C2       9.4017   8.3556   2.1786   C.3       1 RES1   0.0000
    12 H4      10.0787   8.0847   1.5237   H         1 RES1   0.0000
    13 H5       9.5651   7.8932   3.0272   H         1 RES1   0.0000
    14 H6       9.4536   9.3242   2.3200   H         1 RES1   0.0000
    15 C3       7.8136   8.6498  -0.1134   C.3       1 RES1   0.0000
    16 H7       7.5527   9.5935  -0.0688   H         1 RES1   0.0000
    17 H8       7.1951   8.1677  -0.7009   H         1 RES1   0.0000
    18 H9       8.7242   8.5789  -0.4678   H         1 RES1   0.0000
    19 C4       8.0019   6.1515   1.2246   C.3       1 RES1   0.0000
    20 H10      8.7428   6.0398   0.5929   H         1 RES1   0.0000
    21 H11      7.1835   5.7741   0.8385   H         1 RES1   0.0000
    22 H12      8.2138   5.6873   2.0619   H         1 RES1   0.0000
    23 C5       4.6366   7.9277   0.3509   C.ar      1 RES1   0.0000
    24 H13      5.3893   7.4030   0.1298   H         1 RES1   0.0000
    25 C6       3.6136   8.1055  -0.5419   C.ar      1 RES1   0.0000
    26 H14      3.7327   7.7329  -1.3876   H         1 RES1   0.0000
    27 C7       2.5252   8.8740  -0.1932   C.ar      1 RES1   0.0000
    28 H15      1.8622   9.0400  -0.8088   H         1 RES1   0.0000
    29 C8       2.4970   9.4340   1.0624   C.ar      1 RES1   0.0000
    30 H16      1.8477   9.9506   1.3830   H         1 RES1   0.0000
    31 C9       3.5524   9.2037   1.9294   C.ar      1 RES1   0.0000
    32 C10      3.5985   9.6681   3.2801   C.2       1 RES1   0.0000
    33 H17      2.8977  10.1310   3.6310   H         1 RES1   0.0000
    34 C11      4.6593   9.7191   5.3733   C.3       1 RES1   0.0000
    35 H18      5.5813   9.9320   5.6304   H         1 RES1   0.0000
    36 H19      4.1460  10.5178   5.4880   H         1 RES1   0.0000
    37 C12      4.1006   8.5891   6.2300   C.3       1 RES1   0.0000
    38 H20      4.5930   7.8345   6.0606   H         1 RES1   0.0000
    39 H21      3.1607   8.4331   5.9495   H         1 RES1   0.0000
    40 C13      4.1313   8.8278   7.7372   C.3       1 RES1   0.0000
    41 C14      3.3905   7.7035   8.4348   C.3       1 RES1   0.0000
    42 H22      3.8613   6.8575   8.2821   H         1 RES1   0.0000
    43 H23      2.4799   7.6399   8.0771   H         1 RES1   0.0000
    44 H24      3.3511   7.8855   9.3975   H         1 RES1   0.0000
    45 C15      3.4797  10.1344   8.0990   C.3       1 RES1   0.0000
    46 H25      2.5607  10.1455   7.7595   H         1 RES1   0.0000
    47 H26      3.9849  10.8723   7.7001   H         1 RES1   0.0000
    48 H27      3.4684  10.2343   9.0737   H         1 RES1   0.0000
    49 C16      5.5734   8.8009   8.2148   C.3       1 RES1   0.0000
    50 H28      5.6029   8.9934   9.1753   H         1 RES1   0.0000
    51 H29      6.0903   9.4784   7.7298   H         1 RES1   0.0000
    52 H30      5.9575   7.9155   8.0474   H         1 RES1   0.0000
    53 C17      6.5880   6.1821   4.4494   C.2       1 RES1   0.0000
    54 H31      6.5707   5.3666   4.7465   H         1 RES1   0.0000
    55 C18      7.4747   7.1649   5.0044   C.ar      1 RES1   0.0000
    56 C19      8.3938   6.9030   6.0094   C.ar      1 RES1   0.0000
    57 H32      8.4124   6.0552   6.3281   H         1 RES1   0.0000
    58 C20      9.1842   7.9331   6.4764   C.ar      1 RES1   0.0000
    59 H33      9.8053   7.7508   7.1338   H         1 RES1   0.0000
    60 C21      9.0182   9.1885   5.9340   C.ar      1 RES1   0.0000
    61 H34      9.4936   9.9103   6.2248   H         1 RES1   0.0000
    62 C22      8.0969   9.3912   4.9344   C.ar      1 RES1   0.0000
    63 H35      7.9435  10.2491   4.5478   H         1 RES1   0.0000
    64 C23      4.8374   5.6222   2.9835   C.3       1 RES1   0.0000
    65 H36      4.7422   5.7825   1.9790   H         1 RES1   0.0000
    66 H37      5.1399   4.7731   3.0960   H         1 RES1   0.0000
    67 C24      3.5047   5.8118   3.6922   C.3       1 RES1   0.0000
    68 H38      3.2492   6.6841   3.6373   H         1 RES1   0.0000
    69 H39      3.6296   5.6670   4.6010   H         1 RES1   0.0000
    70 C25      2.3386   4.9605   3.1678   C.3       1 RES1   0.0000
    71 C26      2.6698   3.4721   3.2359   C.3       1 RES1   0.0000
    72 H40      2.9583   3.2428   4.1442   H         1 RES1   0.0000
    73 H41      3.3899   3.2688   2.6032   H         1 RES1   0.0000
    74 H42      1.8731   2.9492   3.0037   H         1 RES1   0.0000
    75 C27      2.0122   5.3587   1.7339   C.3       1 RES1   0.0000
    76 H43      1.2135   4.8747   1.4346   H         1 RES1   0.0000
    77 H44      2.7673   5.1323   1.1514   H         1 RES1   0.0000
    78 H45      1.8450   6.3230   1.6927   H         1 RES1   0.0000
    79 C28      1.1334   5.2453   4.0547   C.3       1 RES1   0.0000
    80 H46      0.9473   6.2081   4.0534   H         1 RES1   0.0000
    81 H47      1.3238   4.9504   4.9702   H         1 RES1   0.0000
    82 H48      0.3532   4.7614   3.7124   H         1 RES1   0.0000
    83 S1       7.1958   2.0993   3.7122   S.o2      2 RES2   0.0000
    84 F1       9.6001   2.1661   4.7382   F         2 RES2   0.0000
    85 F2       8.1489   1.2500   5.9921   F         2 RES2   0.0000
    86 F3       8.1749   3.3760   5.7707   F         2 RES2   0.0000
    87 O1       5.9114   2.1557   4.3225   O.3       2 RES2  -1.0000
    88 O2       7.5475   0.8362   3.1371   O.2       2 RES2   0.0000
    89 O3       7.5352   3.2479   2.9259   O.2       2 RES2   0.0000
    90 C29      8.3305   2.2253   5.1171   C.3       2 RES2   0.0000
@<TRIPOS>BOND
     1     1     2    1
     2     2    11    1
     3     3     1    1
     4     4     1    1
     5     5     1    1
     6     6     1    1
     7     7     1    1
     8     8     7    1
     9     9     7    1
    10    10     7    1
    11    11    12    1
    12    13    11    1
    13    14    11    1
    14    15     2    1
    15    16    15    1
    16    17    15    1
    17    18    15    1
    18    19     2    1
    19    20    19    1
    20    21    19    1
    21    22    19    1
    22    23     3   ar
    23    24    23    1
    24    25    23   ar
    25    26    25    1
    26    27    25   ar
    27    28    27    1
    28    29    27   ar
    29    30    29    1
    30    31     3   ar
    31    32     4    2
    32    33    32    1
    33    34     4    1
    34    35    34    1
    35    36    34    1
    36    37    34    1
    37    38    37    1
    38    39    37    1
    39    40    37    1
    40    41    40    1
    41    42    41    1
    42    43    41    1
    43    44    41    1
    44    45    40    1
    45    46    45    1
    46    47    45    1
    47    48    45    1
    48    49    40    1
    49    50    49    1
    50    51    49    1
    51    52    49    1
    52    53     6    2
    53    54    53    1
    54    55     5   ar
    55    56    55   ar
    56    57    56    1
    57    58    56   ar
    58    59    58    1
    59    60    58   ar
    60    61    60    1
    61    62     5   ar
    62    63    62    1
    63    64     6    1
    64    65    64    1
    65    66    64    1
    66    67    64    1
    67    68    67    1
    68    69    67    1
    69    70    67    1
    70    71    70    1
    71    72    71    1
    72    73    71    1
    73    74    71    1
    74    75    70    1
    75    76    75    1
    76    77    75    1
    77    78    75    1
    78    79    70    1
    79    80    79    1
    80    81    79    1
    81    82    79    1
    82    29    31   ar
    83    31    32    1
    84    53    55    1
    85    60    62   ar
    86    83    87    1
    87    84    90    1
    88    85    90    1
    89    86    90    1
    90    88    83    2
    91    89    83    2
    92    90    83    1
@<TRIPOS>SUBSTRUCTURE
     1 RES1        1 GROUP             0 ****  ****    0  
     2 RES2       83 GROUP             0 ****  ****    0  
@<TRIPOS>CRYSIN
   10.0631   11.1129   16.4463   81.2950   72.4800   73.2260     2     1
