@<TRIPOS>MOLECULE
GIBPUC01
    99   100     1     0     0
SMALL
NO_CHARGES
****
Generated from the CSD

@<TRIPOS>ATOM
     1 Fe1      3.0480   5.6326   6.7126   Fe        1 RES1   0.0000
     2 Cl1      2.9610   6.9695   8.6391   Cl        1 RES1   0.0000
     3 P1       3.9663   7.2830   5.4448   P.3       1 RES1   0.0000
     4 P2       1.0624   6.4764   6.0455   P.3       1 RES1   0.0000
     5 C1       5.3344   7.0079   4.2406   C.3       1 RES1   0.0000
     6 H1       5.2905   6.0639   3.9454   H         1 RES1   0.0000
     7 H2       5.1538   7.5701   3.4460   H         1 RES1   0.0000
     8 C2       2.6682   7.8144   4.2548   C.3       1 RES1   0.0000
     9 H3       2.9257   8.6740   3.8366   H         1 RES1   0.0000
    10 H4       2.5695   7.1375   3.5392   H         1 RES1   0.0000
    11 C3      -0.1139   7.1880   7.2742   C.3       1 RES1   0.0000
    12 H5      -0.3290   6.4842   7.9364   H         1 RES1   0.0000
    13 H6       0.3511   7.9154   7.7587   H         1 RES1   0.0000
    14 C4       4.4330   8.8425   6.2980   C.3       1 RES1   0.0000
    15 H7       3.7547   9.0229   6.9962   H         1 RES1   0.0000
    16 H8       5.2955   8.6910   6.7598   H         1 RES1   0.0000
    17 C5       1.3515   7.9751   5.0017   C.3       1 RES1   0.0000
    18 H9       0.6093   8.0835   4.3556   H         1 RES1   0.0000
    19 H10      1.3856   8.7823   5.5739   H         1 RES1   0.0000
    20 C6      -0.0099   5.3634   5.0091   C.3       1 RES1   0.0000
    21 H11      0.2789   4.4291   5.1634   H         1 RES1   0.0000
    22 H12     -0.9405   5.4414   5.3378   H         1 RES1   0.0000
    23 C7       6.7609   7.2864   4.6903   C.3       1 RES1   0.0000
    24 H13      6.9261   6.8436   5.5601   H         1 RES1   0.0000
    25 H14      6.8850   8.2609   4.8127   H         1 RES1   0.0000
    26 C8       4.5719  10.0976   5.4438   C.3       1 RES1   0.0000
    27 H15      5.1230   9.8903   4.6476   H         1 RES1   0.0000
    28 H16      3.6766  10.3788   5.1294   H         1 RES1   0.0000
    29 C9      -0.0190   5.6100   3.5191   C.3       1 RES1   0.0000
    30 H17      0.9139   5.6054   3.1862   H         1 RES1   0.0000
    31 H18     -0.3983   6.5069   3.3429   H         1 RES1   0.0000
    32 C10     -0.8228   4.5725   2.7534   C.3       1 RES1   0.0000
    33 H19     -0.7761   4.7673   1.7939   H         1 RES1   0.0000
    34 H20     -1.7565   4.6013   3.0478   H         1 RES1   0.0000
    35 H21     -0.4527   3.6817   2.9243   H         1 RES1   0.0000
    36 C11      7.7563   6.7703   3.6575   C.3       1 RES1   0.0000
    37 H22      7.6056   7.2258   2.8028   H         1 RES1   0.0000
    38 H23      7.6342   5.8055   3.5396   H         1 RES1   0.0000
    39 H24      8.6691   6.9493   3.9662   H         1 RES1   0.0000
    40 C12     -1.4139   7.7391   6.7380   C.3       1 RES1   0.0000
    41 H25     -1.2106   8.3673   6.0002   H         1 RES1   0.0000
    42 H26     -1.9410   6.9924   6.3577   H         1 RES1   0.0000
    43 C13     -2.2553   8.4500   7.7506   C.3       1 RES1   0.0000
    44 H27     -3.1011   8.7243   7.3381   H         1 RES1   0.0000
    45 H28     -1.7779   9.2416   8.0747   H         1 RES1   0.0000
    46 H29     -2.4391   7.8485   8.5025   H         1 RES1   0.0000
    47 C14      5.2111  11.2358   6.2078   C.3       1 RES1   0.0000
    48 H30      5.2354  12.0359   5.6433   H         1 RES1   0.0000
    49 H31      6.1249  10.9867   6.4614   H         1 RES1   0.0000
    50 H32      4.6879  11.4213   7.0157   H         1 RES1   0.0000
    51 Cl1B     3.1350   4.2956   4.7861   Cl        1 RES1   0.0000
    52 P1B      2.1298   3.9821   7.9803   P.3       1 RES1   0.0000
    53 P2B      5.0337   4.7887   7.3797   P.3       1 RES1   0.0000
    54 C1B      0.7617   4.2572   9.1846   C.3       1 RES1   0.0000
    55 H1B      0.8056   5.2012   9.4798   H         1 RES1   0.0000
    56 H2B      0.9423   3.6950   9.9792   H         1 RES1   0.0000
    57 C2B      3.4279   3.4507   9.1703   C.3       1 RES1   0.0000
    58 H3B      3.1704   2.5911   9.5886   H         1 RES1   0.0000
    59 H4B      3.5266   4.1276   9.8860   H         1 RES1   0.0000
    60 C3B      6.2100   4.0771   6.1510   C.3       1 RES1   0.0000
    61 H5B      6.4251   4.7809   5.4888   H         1 RES1   0.0000
    62 H6B      5.7449   3.3497   5.6664   H         1 RES1   0.0000
    63 C4B      1.6630   2.4226   7.1271   C.3       1 RES1   0.0000
    64 H7B      2.3414   2.2422   6.4290   H         1 RES1   0.0000
    65 H8B      0.8005   2.5741   6.6653   H         1 RES1   0.0000
    66 C5B      4.7446   3.2900   8.4235   C.3       1 RES1   0.0000
    67 H9B      5.4868   3.1816   9.0696   H         1 RES1   0.0000
    68 H10B     4.7105   2.4828   7.8512   H         1 RES1   0.0000
    69 C6B      6.1060   5.9017   8.4161   C.3       1 RES1   0.0000
    70 H11B     5.8172   6.8360   8.2617   H         1 RES1   0.0000
    71 H12B     7.0365   5.8237   8.0873   H         1 RES1   0.0000
    72 C7B     -0.6648   3.9787   8.7348   C.3       1 RES1   0.0000
    73 H13B    -0.8300   4.4215   7.8651   H         1 RES1   0.0000
    74 H14B    -0.7889   3.0042   8.6125   H         1 RES1   0.0000
    75 C8B      1.5241   1.1675   7.9814   C.3       1 RES1   0.0000
    76 H15B     0.9730   1.3748   8.7776   H         1 RES1   0.0000
    77 H16B     2.4194   0.8863   8.2957   H         1 RES1   0.0000
    78 C9B      6.1150   5.6551   9.9060   C.3       1 RES1   0.0000
    79 H17B     5.1822   5.6597  10.2389   H         1 RES1   0.0000
    80 H18B     6.4944   4.7582  10.0823   H         1 RES1   0.0000
    81 C10B     6.9188   6.6926  10.6718   C.3       1 RES1   0.0000
    82 H19B     6.8721   6.4978  11.6313   H         1 RES1   0.0000
    83 H20B     7.8526   6.6638  10.3774   H         1 RES1   0.0000
    84 H21B     6.5487   7.5834  10.5009   H         1 RES1   0.0000
    85 C11B    -1.6602   4.4948   9.7676   C.3       1 RES1   0.0000
    86 H22B    -1.5095   4.0393  10.6224   H         1 RES1   0.0000
    87 H23B    -1.5382   5.4596   9.8855   H         1 RES1   0.0000
    88 H24B    -2.5730   4.3158   9.4590   H         1 RES1   0.0000
    89 C12B     7.5099   3.5260   6.6872   C.3       1 RES1   0.0000
    90 H25B     7.3066   2.8978   7.4249   H         1 RES1   0.0000
    91 H26B     8.0371   4.2727   7.0675   H         1 RES1   0.0000
    92 C13B     8.3514   2.8151   5.6745   C.3       1 RES1   0.0000
    93 H27B     9.1972   2.5408   6.0870   H         1 RES1   0.0000
    94 H28B     7.8740   2.0235   5.3505   H         1 RES1   0.0000
    95 H29B     8.5351   3.4166   4.9227   H         1 RES1   0.0000
    96 C14B     0.8850   0.0293   7.2174   C.3       1 RES1   0.0000
    97 H30B     0.8606  -0.7708   7.7818   H         1 RES1   0.0000
    98 H31B    -0.0288   0.2784   6.9638   H         1 RES1   0.0000
    99 H32B     1.4082  -0.1562   6.4094   H         1 RES1   0.0000
@<TRIPOS>BOND
     1     1     2    1
     2     3     1    1
     3     4     1    1
     4     5     3    1
     5     6     5    1
     6     7     5    1
     7     8     3    1
     8     9     8    1
     9    10     8    1
    10    11     4    1
    11    12    11    1
    12    13    11    1
    13    14     3    1
    14    15    14    1
    15    16    14    1
    16    17     4    1
    17    18    17    1
    18    19    17    1
    19    20     4    1
    20    21    20    1
    21    22    20    1
    22    23     5    1
    23    24    23    1
    24    25    23    1
    25    26    14    1
    26    27    26    1
    27    28    26    1
    28    29    20    1
    29    30    29    1
    30    31    29    1
    31    32    29    1
    32    33    32    1
    33    34    32    1
    34    35    32    1
    35    36    23    1
    36    37    36    1
    37    38    36    1
    38    39    36    1
    39    40    11    1
    40    41    40    1
    41    42    40    1
    42    43    40    1
    43    44    43    1
    44    45    43    1
    45    46    43    1
    46    47    26    1
    47    48    47    1
    48    49    47    1
    49    50    47    1
    50    51     1    1
    51    52     1    1
    52    53     1    1
    53    54    52    1
    54    55    54    1
    55    56    54    1
    56    57    52    1
    57    58    57    1
    58    59    57    1
    59    60    53    1
    60    61    60    1
    61    62    60    1
    62    63    52    1
    63    64    63    1
    64    65    63    1
    65    66    53    1
    66    67    66    1
    67    68    66    1
    68    69    53    1
    69    70    69    1
    70    71    69    1
    71    72    54    1
    72    73    72    1
    73    74    72    1
    74    75    63    1
    75    76    75    1
    76    77    75    1
    77    78    69    1
    78    79    78    1
    79    80    78    1
    80    81    78    1
    81    82    81    1
    82    83    81    1
    83    84    81    1
    84    85    72    1
    85    86    85    1
    86    87    85    1
    87    88    85    1
    88    89    60    1
    89    90    89    1
    90    91    89    1
    91    92    89    1
    92    93    92    1
    93    94    92    1
    94    95    92    1
    95    96    75    1
    96    97    96    1
    97    98    96    1
    98    99    96    1
    99     8    17    1
   100    57    66    1
@<TRIPOS>SUBSTRUCTURE
     1 RES1        1 GROUP             0 ****  ****    0  
@<TRIPOS>CRYSIN
   11.6468   11.2651   14.5274   90.0000  112.4630   90.0000    14     1
