@<TRIPOS>MOLECULE
GIFJAG
   117   130     1     0     0
SMALL
NO_CHARGES
****
Generated from the CSD

@<TRIPOS>ATOM
     1 Fe1      0.0000   0.0000   0.0000   Fe        1 RES1   0.0000
     2 P1      -1.6797  -1.2777   0.8743   P.3       1 RES1   0.0000
     3 N1      -0.2712  -0.7944  -1.8155   N.2       1 RES1   0.0000
     4 N2       1.3385  -1.4311   0.3980   N.2       1 RES1   0.0000
     5 C1      -1.1907  -0.3908  -2.7679   C.2       1 RES1   0.0000
     6 C2      -1.1705  -1.2813  -3.8927   C.2       1 RES1   0.0000
     7 C3      -0.2367  -2.2099  -3.6395   C.2       1 RES1   0.0000
     8 C4       0.3296  -1.9152  -2.3486   C.2       1 RES1   0.0000
     9 C5       1.2964  -2.7046  -1.7176   C.2       1 RES1   0.0000
    10 C6       1.7464  -2.4671  -0.4140   C.2       1 RES1   0.0000
    11 C7       2.7529  -3.2472   0.2565   C.2       1 RES1   0.0000
    12 C8       2.9601  -2.6928   1.4579   C.2       1 RES1   0.0000
    13 C9       2.0952  -1.5500   1.5537   C.2       1 RES1   0.0000
    14 C10     -2.0349   0.7077  -2.6540   C.2       1 RES1   0.0000
    15 C11     -2.9636   0.9992  -3.8002   C.ar      1 RES1   0.0000
    16 C12     -4.2922   0.6310  -3.7544   C.ar      1 RES1   0.0000
    17 C13     -5.1588   0.9376  -4.7952   C.ar      1 RES1   0.0000
    18 C14     -4.7128   1.5981  -5.8902   C.ar      1 RES1   0.0000
    19 C15     -3.3948   1.9658  -5.9562   C.ar      1 RES1   0.0000
    20 C16     -2.5176   1.6709  -4.9218   C.ar      1 RES1   0.0000
    21 C17      1.8888  -3.8444  -2.4827   C.ar      1 RES1   0.0000
    22 C18      1.7402  -5.1592  -2.0570   C.ar      1 RES1   0.0000
    23 C19      2.3156  -6.1877  -2.7690   C.ar      1 RES1   0.0000
    24 C20      3.0134  -5.9589  -3.9130   C.ar      1 RES1   0.0000
    25 C21      3.1592  -4.6779  -4.3599   C.ar      1 RES1   0.0000
    26 C22      2.6103  -3.6204  -3.6469   C.ar      1 RES1   0.0000
    27 C23     -3.0290  -0.3538   1.6601   C.3       1 RES1   0.0000
    28 C24     -1.1564  -2.3647   2.2337   C.3       1 RES1   0.0000
    29 C25     -2.5706  -2.4180  -0.2352   C.ar      1 RES1   0.0000
    30 C26     -3.8012  -2.1161  -0.7822   C.ar      1 RES1   0.0000
    31 C27     -4.4342  -2.9606  -1.6463   C.ar      1 RES1   0.0000
    32 C28     -3.8602  -4.1230  -2.0028   C.ar      1 RES1   0.0000
    33 C29     -2.6483  -4.4505  -1.4920   C.ar      1 RES1   0.0000
    34 C30     -1.9927  -3.5999  -0.6130   C.ar      1 RES1   0.0000
    35 H1      -1.7439  -1.1915  -4.6398   H         1 RES1   0.0000
    36 H2       0.0253  -2.9524  -4.1716   H         1 RES1   0.0000
    37 H3       3.1810  -3.9661  -0.1383   H         1 RES1   0.0000
    38 H4       3.5448  -2.9642   2.0751   H         1 RES1   0.0000
    39 H5      -4.5845   0.1473  -3.1393   H         1 RES1   0.0000
    40 H6      -6.0072   0.6867  -4.7356   H         1 RES1   0.0000
    41 H7      -5.2665   1.8199  -6.5979   H         1 RES1   0.0000
    42 H8      -3.0811   2.3837  -6.6936   H         1 RES1   0.0000
    43 H9      -1.6680   1.9439  -4.9590   H         1 RES1   0.0000
    44 H10      1.2054  -5.3167  -1.2876   H         1 RES1   0.0000
    45 H11      2.2041  -6.9930  -2.5114   H         1 RES1   0.0000
    46 H12      3.4055  -6.6638  -4.3844   H         1 RES1   0.0000
    47 H13      3.5505  -4.4781  -5.0761   H         1 RES1   0.0000
    48 H14      2.6658  -2.7833  -3.9694   H         1 RES1   0.0000
    49 H15     -3.4678   0.2652   1.0110   H         1 RES1   0.0000
    50 H16     -3.6514  -0.9384   1.8836   H         1 RES1   0.0000
    51 H17     -2.6898   0.1857   2.3625   H         1 RES1   0.0000
    52 H18     -0.7366  -1.9062   2.8520   H         1 RES1   0.0000
    53 H19     -1.9385  -2.7782   2.6179   H         1 RES1   0.0000
    54 H20     -0.5214  -2.9847   1.9155   H         1 RES1   0.0000
    55 H21     -4.1989  -1.3517  -0.5002   H         1 RES1   0.0000
    56 H22     -5.3336  -2.6734  -1.9581   H         1 RES1   0.0000
    57 H23     -4.3443  -4.6557  -2.5008   H         1 RES1   0.0000
    58 H24     -2.2641  -5.1754  -1.6708   H         1 RES1   0.0000
    59 H25     -1.1642  -3.7762  -0.3193   H         1 RES1   0.0000
    60 P1A      1.6797   1.2777  -0.8743   P.3       1 RES1   0.0000
    61 N1A      0.2712   0.7944   1.8155   N.2       1 RES1   0.0000
    62 N2A     -1.3385   1.4311  -0.3980   N.2       1 RES1   0.0000
    63 C10A     2.0349  -0.7077   2.6540   C.2       1 RES1   0.0000
    64 C9A     -2.0952   1.5500  -1.5537   C.2       1 RES1   0.0000
    65 C23A     3.0290   0.3538  -1.6601   C.3       1 RES1   0.0000
    66 C24A     1.1564   2.3647  -2.2337   C.3       1 RES1   0.0000
    67 C25A     2.5706   2.4180   0.2352   C.ar      1 RES1   0.0000
    68 C1A      1.1907   0.3908   2.7679   C.2       1 RES1   0.0000
    69 C4A     -0.3296   1.9152   2.3486   C.2       1 RES1   0.0000
    70 C6A     -1.7464   2.4671   0.4140   C.2       1 RES1   0.0000
    71 C11A     2.9636  -0.9992   3.8002   C.ar      1 RES1   0.0000
    72 C8A     -2.9601   2.6928  -1.4579   C.2       1 RES1   0.0000
    73 H15A     3.4678  -0.2652  -1.0110   H         1 RES1   0.0000
    74 H16A     3.6514   0.9384  -1.8836   H         1 RES1   0.0000
    75 H17A     2.6898  -0.1857  -2.3625   H         1 RES1   0.0000
    76 H18A     0.7366   1.9062  -2.8520   H         1 RES1   0.0000
    77 H19A     1.9385   2.7782  -2.6179   H         1 RES1   0.0000
    78 H20A     0.5214   2.9847  -1.9155   H         1 RES1   0.0000
    79 C26A     3.8012   2.1161   0.7822   C.ar      1 RES1   0.0000
    80 C30A     1.9927   3.5999   0.6130   C.ar      1 RES1   0.0000
    81 C2A      1.1705   1.2813   3.8927   C.2       1 RES1   0.0000
    82 C3A      0.2367   2.2099   3.6395   C.2       1 RES1   0.0000
    83 C5A     -1.2964   2.7046   1.7176   C.2       1 RES1   0.0000
    84 C7A     -2.7529   3.2472  -0.2565   C.2       1 RES1   0.0000
    85 C12A     4.2922  -0.6310   3.7544   C.ar      1 RES1   0.0000
    86 C16A     2.5176  -1.6709   4.9218   C.ar      1 RES1   0.0000
    87 H4A     -3.5448   2.9642  -2.0751   H         1 RES1   0.0000
    88 C27A     4.4342   2.9606   1.6463   C.ar      1 RES1   0.0000
    89 H21A     4.1989   1.3517   0.5002   H         1 RES1   0.0000
    90 C29A     2.6483   4.4505   1.4920   C.ar      1 RES1   0.0000
    91 H25A     1.1642   3.7762   0.3193   H         1 RES1   0.0000
    92 H1A      1.7439   1.1915   4.6398   H         1 RES1   0.0000
    93 H2A     -0.0253   2.9524   4.1716   H         1 RES1   0.0000
    94 C17A    -1.8888   3.8444   2.4827   C.ar      1 RES1   0.0000
    95 H3A     -3.1810   3.9661   0.1383   H         1 RES1   0.0000
    96 C13A     5.1588  -0.9376   4.7952   C.ar      1 RES1   0.0000
    97 H5A      4.5845  -0.1473   3.1393   H         1 RES1   0.0000
    98 C15A     3.3948  -1.9658   5.9562   C.ar      1 RES1   0.0000
    99 H9A      1.6680  -1.9439   4.9590   H         1 RES1   0.0000
   100 C28A     3.8602   4.1230   2.0028   C.ar      1 RES1   0.0000
   101 H22A     5.3336   2.6734   1.9581   H         1 RES1   0.0000
   102 H24A     2.2641   5.1754   1.6708   H         1 RES1   0.0000
   103 C18A    -1.7402   5.1592   2.0570   C.ar      1 RES1   0.0000
   104 C22A    -2.6103   3.6204   3.6469   C.ar      1 RES1   0.0000
   105 C14A     4.7128  -1.5981   5.8902   C.ar      1 RES1   0.0000
   106 H6A      6.0072  -0.6867   4.7356   H         1 RES1   0.0000
   107 H8A      3.0811  -2.3837   6.6936   H         1 RES1   0.0000
   108 H23A     4.3443   4.6557   2.5008   H         1 RES1   0.0000
   109 C19A    -2.3156   6.1877   2.7690   C.ar      1 RES1   0.0000
   110 H10A    -1.2054   5.3167   1.2876   H         1 RES1   0.0000
   111 C21A    -3.1592   4.6779   4.3599   C.ar      1 RES1   0.0000
   112 H14A    -2.6658   2.7833   3.9694   H         1 RES1   0.0000
   113 H7A      5.2665  -1.8199   6.5979   H         1 RES1   0.0000
   114 C20A    -3.0134   5.9589   3.9130   C.ar      1 RES1   0.0000
   115 H11A    -2.2041   6.9930   2.5114   H         1 RES1   0.0000
   116 H13A    -3.5505   4.4781   5.0761   H         1 RES1   0.0000
   117 H12A    -3.4055   6.6638   4.3844   H         1 RES1   0.0000
@<TRIPOS>BOND
     1     1     2    1
     2     2    27    1
     3     3     1    1
     4     4     1    1
     5     5     3    2
     6     6     5    1
     7     7     6    2
     8     8     3    1
     9     9     8    2
    10    10     4    1
    11    11    10    2
    12    12    11    1
    13    13     4    1
    14    14     5    1
    15    15    14    1
    16    16    15   ar
    17    17    16   ar
    18    18    17   ar
    19    19    18   ar
    20    20    15   ar
    21    21     9    1
    22    22    21   ar
    23    23    22   ar
    24    24    23   ar
    25    25    24   ar
    26    26    21   ar
    27    27    49    1
    28    28     2    1
    29    29     2    1
    30    30    29   ar
    31    31    30   ar
    32    32    31   ar
    33    33    32   ar
    34    34    29   ar
    35    35     6    1
    36    36     7    1
    37    37    11    1
    38    38    12    1
    39    39    16    1
    40    40    17    1
    41    41    18    1
    42    42    19    1
    43    43    20    1
    44    44    22    1
    45    45    23    1
    46    46    24    1
    47    47    25    1
    48    48    26    1
    49    50    27    1
    50    51    27    1
    51    52    28    1
    52    53    28    1
    53    54    28    1
    54    55    30    1
    55    56    31    1
    56    57    32    1
    57    58    33    1
    58    59    34    1
    59    60     1    1
    60    61     1    1
    61    62     1    1
    62    63    13    1
    63    64    14    2
    64    65    60    1
    65    66    60    1
    66    67    60    1
    67    68    61    1
    68    69    61    2
    69    70    62    1
    70    71    63    1
    71    72    64    1
    72    73    65    1
    73    74    65    1
    74    75    65    1
    75    76    66    1
    76    77    66    1
    77    78    66    1
    78    79    67   ar
    79    80    67   ar
    80    81    68    1
    81    82    69    1
    82    83    69    1
    83    84    70    1
    84    85    71   ar
    85    86    71   ar
    86    87    72    1
    87    88    79   ar
    88    89    79    1
    89    90    80   ar
    90    91    80    1
    91    92    81    1
    92    93    82    1
    93    94    83    1
    94    95    84    1
    95    96    85   ar
    96    97    85    1
    97    98    86   ar
    98    99    86    1
    99   100    88   ar
   100   101    88    1
   101   102    90    1
   102   103    94   ar
   103   104    94   ar
   104   105    96   ar
   105   106    96    1
   106   107    98    1
   107   108   100    1
   108   109   103   ar
   109   110   103    1
   110   111   104   ar
   111   112   104    1
   112   113   105    1
   113   114   109   ar
   114   115   109    1
   115   116   111    1
   116   117   114    1
   117     7     8    1
   118     9    10    1
   119    12    13    2
   120    19    20   ar
   121    25    26   ar
   122    33    34   ar
   123    62    64    1
   124    63    68    2
   125    70    83    2
   126    72    84    2
   127    81    82    2
   128    90   100   ar
   129    98   105   ar
   130   111   114   ar
@<TRIPOS>SUBSTRUCTURE
     1 RES1        1 GROUP             0 ****  ****    0  
@<TRIPOS>CRYSIN
   10.3050   11.1490   12.8390   65.6700   63.3400   79.2500     2     1
