@<TRIPOS>MOLECULE
GIGGUA03
   103   108     3     0     0
SMALL
USER_CHARGES
****
Generated from the CSD

@<TRIPOS>ATOM
     1 Fe1      7.3556   4.7289  15.4590   Fe        1 RES1   2.0000
     2 N1       7.2954   4.6867  17.6817   N.2       1 RES1   0.0000
     3 N2       5.6853   3.4226  15.9283   N.2       1 RES1   0.0000
     4 N3       8.9185   3.1785  15.2539   N.2       1 RES1   0.0000
     5 N4       7.5363   4.4470  13.2929   N.2       1 RES1   0.0000
     6 N5       8.8833   6.2270  15.7421   N.2       1 RES1   0.0000
     7 N6       6.2275   6.6202  15.5751   N.2       1 RES1   0.0000
     8 N7       4.8475   4.9494  13.7596   N.3       1 RES1   0.0000
     9 N8       6.0493   4.1499  19.4458   N.pl3     1 RES1   0.0000
    10 N9      10.0294   1.8863  13.8131   N.pl3     1 RES1   0.0000
    11 N10      9.3144   8.3006  16.3651   N.pl3     1 RES1   0.0000
    12 C1       7.8189   5.2603  18.7929   C.2       1 RES1   0.0000
    13 H1       8.6002   5.8002  18.8100   H         1 RES1   0.0000
    14 C2       7.0586   4.9473  19.8890   C.2       1 RES1   0.0000
    15 H2       7.2079   5.2318  20.7839   H         1 RES1   0.0000
    16 C3       6.2171   4.0129  18.0992   C.2       1 RES1   0.0000
    17 C4       5.3915   3.3101  17.1701   C.2       1 RES1   0.0000
    18 H3       4.6564   2.7824  17.4591   H         1 RES1   0.0000
    19 C5       4.8350   2.7927  14.9285   C.3       1 RES1   0.0000
    20 H4       4.2499   2.1155  15.3524   H         1 RES1   0.0000
    21 H5       5.3874   2.3454  14.2392   H         1 RES1   0.0000
    22 C6       3.9949   3.8973  14.2991   C.3       1 RES1   0.0000
    23 H6       3.4399   3.5169  13.5712   H         1 RES1   0.0000
    24 H7       3.3879   4.2810  14.9799   H         1 RES1   0.0000
    25 C7       4.9219   3.6369  20.2316   C.3       1 RES1   0.0000
    26 H8       5.1516   3.6816  21.1950   H         1 RES1   0.0000
    27 H9       4.7693   2.6867  20.0003   H         1 RES1   0.0000
    28 C8       3.6519   4.4165  19.9896   C.3       1 RES1   0.0000
    29 H10      2.9281   4.0116  20.5291   H         1 RES1   0.0000
    30 H11      3.4018   4.3183  19.0369   H         1 RES1   0.0000
    31 C9       3.7227   5.8974  20.3172   C.3       1 RES1   0.0000
    32 H12      4.0089   6.0014  21.2570   H         1 RES1   0.0000
    33 H13      4.4116   6.3172  19.7434   H         1 RES1   0.0000
    34 C10      2.4225   6.6253  20.1224   C.3       1 RES1   0.0000
    35 H14      2.5414   7.5711  20.3514   H         1 RES1   0.0000
    36 H15      1.7383   6.2331  20.7047   H         1 RES1   0.0000
    37 H16      2.1401   6.5474  19.1868   H         1 RES1   0.0000
    38 C11     10.4644   1.5815  15.0570   C.2       1 RES1   0.0000
    39 H17     11.1231   0.9346  15.2775   H         1 RES1   0.0000
    40 C12      9.7893   2.3660  15.9305   C.2       1 RES1   0.0000
    41 H18      9.9029   2.3540  16.8725   H         1 RES1   0.0000
    42 C13      9.0842   2.8684  13.9651   C.2       1 RES1   0.0000
    43 C14      8.3617   3.5563  12.9311   C.2       1 RES1   0.0000
    44 H19      8.4961   3.3506  12.0126   H         1 RES1   0.0000
    45 C15      6.7706   5.1452  12.2588   C.3       1 RES1   0.0000
    46 H20      7.1180   4.9160  11.3618   H         1 RES1   0.0000
    47 H21      6.8429   6.1254  12.3830   H         1 RES1   0.0000
    48 C16      5.3065   4.6992  12.3937   C.3       1 RES1   0.0000
    49 H22      4.7419   5.2006  11.7536   H         1 RES1   0.0000
    50 H23      5.2290   3.7350  12.1860   H         1 RES1   0.0000
    51 C17     10.4350   1.2453  12.5478   C.3       1 RES1   0.0000
    52 H24     11.3730   0.9403  12.6335   H         1 RES1   0.0000
    53 H25     10.4017   1.9201  11.8242   H         1 RES1   0.0000
    54 C18      9.5879   0.0876  12.1625   C.3       1 RES1   0.0000
    55 H26      9.9377  -0.2886  11.3168   H         1 RES1   0.0000
    56 H27      8.6699   0.4140  11.9869   H         1 RES1   0.0000
    57 C19      9.5112  -1.0392  13.2008   C.3       1 RES1   0.0000
    58 H28      8.9978  -0.7210  13.9844   H         1 RES1   0.0000
    59 H29     10.4269  -1.2584  13.5070   H         1 RES1   0.0000
    60 C20      8.8490  -2.3118  12.6506   C.3       1 RES1   0.0000
    61 H30      8.8320  -2.9996  13.3485   H         1 RES1   0.0000
    62 H31      9.3605  -2.6400  11.8799   H         1 RES1   0.0000
    63 H32      7.9328  -2.1084  12.3701   H         1 RES1   0.0000
    64 C21     10.2141   6.3339  16.0375   C.2       1 RES1   0.0000
    65 H33     10.8456   5.6257  15.9861   H         1 RES1   0.0000
    66 C22     10.4933   7.6070  16.4143   C.2       1 RES1   0.0000
    67 H34     11.3438   7.9508  16.6627   H         1 RES1   0.0000
    68 C23      8.3703   7.4342  15.9604   C.2       1 RES1   0.0000
    69 C24      6.9367   7.6466  15.8363   C.2       1 RES1   0.0000
    70 H35      6.5493   8.5080  15.9455   H         1 RES1   0.0000
    71 C25      4.7857   6.7783  15.3931   C.3       1 RES1   0.0000
    72 H36      4.5373   7.7306  15.5066   H         1 RES1   0.0000
    73 H37      4.3020   6.2494  16.0761   H         1 RES1   0.0000
    74 C26      4.3931   6.3066  14.0058   C.3       1 RES1   0.0000
    75 H38      3.4084   6.3442  13.9116   H         1 RES1   0.0000
    76 H39      4.7879   6.9123  13.3293   H         1 RES1   0.0000
    77 C27      9.1294   9.6896  16.8275   C.3       1 RES1   0.0000
    78 H40      8.2480  10.0232  16.5235   H         1 RES1   0.0000
    79 H41      9.8293  10.2655  16.4293   H         1 RES1   0.0000
    80 C28      9.2065   9.7751  18.3518   C.3       1 RES1   0.0000
    81 H42      8.5143   9.1884  18.7458   H         1 RES1   0.0000
    82 H43     10.0906   9.4462  18.6516   H         1 RES1   0.0000
    83 C29      9.0074  11.1759  18.8485   C.3       1 RES1   0.0000
    84 H44      8.0876  11.4704  18.6323   H         1 RES1   0.0000
    85 H45      9.6381  11.7798  18.3818   H         1 RES1   0.0000
    86 C30      9.2258  11.2889  20.3493   C.3       1 RES1   0.0000
    87 H46      9.0832  12.2167  20.6319   H         1 RES1   0.0000
    88 H47     10.1433  11.0194  20.5677   H         1 RES1   0.0000
    89 H48      8.5938  10.7048  20.8182   H         1 RES1   0.0000
    90 P1      12.2483  -0.0952  18.4054   P.3       2 RES2  -1.0000
    91 F1      12.6500  -1.6360  18.3827   F         2 RES2   0.0000
    92 F2      11.8477   1.4614  18.4111   F         2 RES2   0.0000
    93 F3      11.2347  -0.3643  19.6163   F         2 RES2   0.0000
    94 F4      13.4224   0.2133  19.4416   F         2 RES2   0.0000
    95 F5      13.2527   0.1833  17.1758   F         2 RES2   0.0000
    96 F6      11.0724  -0.3927  17.3557   F         2 RES2   0.0000
    97 P2       6.5826   9.9159  12.6251   P.3       3 RES3  -1.0000
    98 F7       7.5760   9.8962  11.3676   F         3 RES3   0.0000
    99 F8       5.5748   9.9206  13.8866   F         3 RES3   0.0000
   100 F9       7.7617  10.4303  13.5725   F         3 RES3   0.0000
   101 F10      6.1747  11.4280  12.2926   F         3 RES3   0.0000
   102 F11      5.3767   9.3896  11.6812   F         3 RES3   0.0000
   103 F12      6.9685   8.3848  12.9527   F         3 RES3   0.0000
@<TRIPOS>BOND
     1     1     2    1
     2     2    12    1
     3     3     1    1
     4     4     1    1
     5     5     1    1
     6     6     1    1
     7     7     1    1
     8     8    22    1
     9     9    14    1
    10    10    38    1
    11    11    66    1
    12    12    13    1
    13    14    12    2
    14    15    14    1
    15    16     2    2
    16    17     3    2
    17    18    17    1
    18    19     3    1
    19    20    19    1
    20    21    19    1
    21    22    19    1
    22    23    22    1
    23    24    22    1
    24    25     9    1
    25    26    25    1
    26    27    25    1
    27    28    25    1
    28    29    28    1
    29    30    28    1
    30    31    28    1
    31    32    31    1
    32    33    31    1
    33    34    31    1
    34    35    34    1
    35    36    34    1
    36    37    34    1
    37    38    39    1
    38    40     4    1
    39    41    40    1
    40    42     4    2
    41    43     5    2
    42    44    43    1
    43    45     5    1
    44    46    45    1
    45    47    45    1
    46    48     8    1
    47    49    48    1
    48    50    48    1
    49    51    10    1
    50    52    51    1
    51    53    51    1
    52    54    51    1
    53    55    54    1
    54    56    54    1
    55    57    54    1
    56    58    57    1
    57    59    57    1
    58    60    57    1
    59    61    60    1
    60    62    60    1
    61    63    60    1
    62    64     6    1
    63    65    64    1
    64    66    64    2
    65    67    66    1
    66    68     6    2
    67    69     7    2
    68    70    69    1
    69    71     7    1
    70    72    71    1
    71    73    71    1
    72    74     8    1
    73    75    74    1
    74    76    74    1
    75    77    11    1
    76    78    77    1
    77    79    77    1
    78    80    77    1
    79    81    80    1
    80    82    80    1
    81    83    80    1
    82    84    83    1
    83    85    83    1
    84    86    83    1
    85    87    86    1
    86    88    86    1
    87    89    86    1
    88     9    16    1
    89    10    42    1
    90    11    68    1
    91    16    17    1
    92    38    40    2
    93    42    43    1
    94    45    48    1
    95    68    69    1
    96    71    74    1
    97    90    91    1
    98    92    90    1
    99    93    90    1
   100    94    90    1
   101    95    90    1
   102    96    90    1
   103    97    98    1
   104    99    97    1
   105   100    97    1
   106   101    97    1
   107   102    97    1
   108   103    97    1
@<TRIPOS>SUBSTRUCTURE
     1 RES1        1 GROUP             0 ****  ****    0  
     2 RES2       90 GROUP             0 ****  ****    0  
     3 RES3       97 GROUP             0 ****  ****    0  
@<TRIPOS>CRYSIN
    9.1236   10.3986   21.9170   82.6640   79.1430   81.7350     2     1
