@<TRIPOS>MOLECULE
GIGGUA02
   103   108     3     0     0
SMALL
USER_CHARGES
****
Generated from the CSD

@<TRIPOS>ATOM
     1 Fe1     11.5828   3.9020  15.0531   Fe        1 RES1   2.0000
     2 N1      11.3626   3.7164  17.0108   N.2       1 RES1   0.0000
     3 N2      10.0178   2.6560  15.0919   N.2       1 RES1   0.0000
     4 N3      12.8833   2.3920  14.9174   N.2       1 RES1   0.0000
     5 N4      11.8415   3.8520  13.0837   N.2       1 RES1   0.0000
     6 N5      13.0241   5.2070  15.3515   N.2       1 RES1   0.0000
     7 N6      10.5103   5.5895  15.1314   N.2       1 RES1   0.0000
     8 N7       8.9310   4.3622  12.9341   N.3       1 RES1   0.0000
     9 N8      14.1563   1.1413  13.6112   N.pl3     1 RES1   0.0000
    10 N9      13.5716   7.2825  15.9600   N.pl3     1 RES1   0.0000
    11 N10     10.1657   2.9248  18.6702   N.pl3     1 RES1   0.0000
    12 C1      13.6618   1.6005  15.7170   C.2       1 RES1   0.0000
    13 H1      13.6591   1.5966  16.6474   H         1 RES1   0.0000
    14 C2      14.4459   0.8165  14.9133   C.2       1 RES1   0.0000
    15 H2      15.0610   0.1796  15.1978   H         1 RES1   0.0000
    16 C3      13.1978   2.1225  13.6672   C.2       1 RES1   0.0000
    17 C4      12.6258   2.9331  12.6309   C.2       1 RES1   0.0000
    18 H3      12.8023   2.8085  11.7255   H         1 RES1   0.0000
    19 C5      11.2418   4.7639  12.0910   C.3       1 RES1   0.0000
    20 H4      11.7638   4.7336  11.2727   H         1 RES1   0.0000
    21 H5      11.2724   5.6713  12.4295   H         1 RES1   0.0000
    22 C6       9.7897   4.3909  11.7753   C.3       1 RES1   0.0000
    23 H6       9.4336   5.0301  11.1377   H         1 RES1   0.0000
    24 H7       9.7755   3.5167  11.3558   H         1 RES1   0.0000
    25 C7      14.7015   0.5112  12.3921   C.3       1 RES1   0.0000
    26 H8      15.6252   0.2645  12.5541   H         1 RES1   0.0000
    27 H9      14.6924   1.1613  11.6735   H         1 RES1   0.0000
    28 C8      13.9409  -0.7160  11.9497   C.3       1 RES1   0.0000
    29 H10     14.3478  -1.0527  11.1356   H         1 RES1   0.0000
    30 H11     13.0326  -0.4532  11.7338   H         1 RES1   0.0000
    31 C9      13.8876  -1.8436  12.9632   C.3       1 RES1   0.0000
    32 H12     13.3492  -1.5631  13.7192   H         1 RES1   0.0000
    33 H13     14.7847  -2.0198  13.2872   H         1 RES1   0.0000
    34 C10     13.3058  -3.1266  12.3859   C.3       1 RES1   0.0000
    35 H14     13.2930  -3.8057  13.0650   H         1 RES1   0.0000
    36 H15     13.8467  -3.4202  11.6486   H         1 RES1   0.0000
    37 H16     12.4114  -2.9625  12.0806   H         1 RES1   0.0000
    38 C11     14.3827   5.2422  15.6236   C.2       1 RES1   0.0000
    39 H17     14.9693   4.5237  15.5571   H         1 RES1   0.0000
    40 C12     14.7188   6.5236  16.0078   C.2       1 RES1   0.0000
    41 H18     15.5654   6.8209  16.2549   H         1 RES1   0.0000
    42 C13     12.5806   6.4435  15.5488   C.2       1 RES1   0.0000
    43 C14     11.1489   6.6469  15.4221   C.2       1 RES1   0.0000
    44 H19     10.7400   7.4734  15.5426   H         1 RES1   0.0000
    45 C15      9.0307   5.7188  15.0088   C.3       1 RES1   0.0000
    46 H20      8.7569   6.5859  15.3473   H         1 RES1   0.0000
    47 H21      8.6045   5.0381  15.5529   H         1 RES1   0.0000
    48 C16      8.5639   5.5766  13.5800   C.3       1 RES1   0.0000
    49 H22      7.5968   5.6503  13.5655   H         1 RES1   0.0000
    50 H23      8.9196   6.3167  13.0650   H         1 RES1   0.0000
    51 C17     13.4181   8.6499  16.4356   C.3       1 RES1   0.0000
    52 H24     12.7068   9.0818  15.9351   H         1 RES1   0.0000
    53 H25     14.2392   9.1392  16.2653   H         1 RES1   0.0000
    54 C18     13.0960   8.7144  17.9163   C.3       1 RES1   0.0000
    55 H26     13.7504   8.1919  18.4064   H         1 RES1   0.0000
    56 H27     12.2239   8.3188  18.0679   H         1 RES1   0.0000
    57 C19     13.0971  10.1465  18.4521   C.3       1 RES1   0.0000
    58 H28     13.9828  10.5267  18.3441   H         1 RES1   0.0000
    59 H29     12.4777  10.6817  17.9308   H         1 RES1   0.0000
    60 C20     12.7081  10.2098  19.8975   C.3       1 RES1   0.0000
    61 H30     12.7182  11.1241  20.1904   H         1 RES1   0.0000
    62 H31     13.3293   9.6980  20.4188   H         1 RES1   0.0000
    63 H32     11.8247   9.8498  20.0055   H         1 RES1   0.0000
    64 C21     11.8816   4.1878  18.1821   C.2       1 RES1   0.0000
    65 H33     12.6210   4.7465  18.2610   H         1 RES1   0.0000
    66 C22     11.1320   3.7032  19.2288   C.2       1 RES1   0.0000
    67 H34     11.2596   3.8724  20.1343   H         1 RES1   0.0000
    68 C23     10.3251   2.9540  17.3493   C.2       1 RES1   0.0000
    69 C24      9.6145   2.3384  16.2694   C.2       1 RES1   0.0000
    70 H35      8.9088   1.7483  16.4106   H         1 RES1   0.0000
    71 C25      9.3249   2.0920  13.9414   C.3       1 RES1   0.0000
    72 H36      8.8341   1.3030  14.2176   H         1 RES1   0.0000
    73 H37      9.9769   1.8221  13.2768   H         1 RES1   0.0000
    74 C26      8.3495   3.1093  13.3183   C.3       1 RES1   0.0000
    75 H38      7.9457   2.7047  12.5333   H         1 RES1   0.0000
    76 H39      7.6390   3.2827  13.9559   H         1 RES1   0.0000
    77 C27      9.0123   2.3086  19.3867   C.3       1 RES1   0.0000
    78 H40      9.2162   2.2394  20.3316   H         1 RES1   0.0000
    79 H41      8.8588   1.4138  19.0461   H         1 RES1   0.0000
    80 C28      7.7462   3.1588  19.1935   C.3       1 RES1   0.0000
    81 H42      7.5309   3.1812  18.2465   H         1 RES1   0.0000
    82 H43      7.0086   2.7221  19.6483   H         1 RES1   0.0000
    83 C29      7.8486   4.5857  19.7003   C.3       1 RES1   0.0000
    84 H44      8.5089   5.0633  19.1728   H         1 RES1   0.0000
    85 H45      8.1531   4.5761  20.6203   H         1 RES1   0.0000
    86 C30      6.5130   5.3276  19.6213   C.3       1 RES1   0.0000
    87 H46      6.6225   6.2220  19.9536   H         1 RES1   0.0000
    88 H47      5.8587   4.8670  20.1509   H         1 RES1   0.0000
    89 H48      6.2187   5.3607  18.7076   H         1 RES1   0.0000
    90 P1       8.6618   9.2304  17.7900   P.3       2 RES2  -1.0000
    91 F1       8.1190  10.7310  17.6775   F         2 RES2   0.0000
    92 F2       7.8398   8.8388  16.4688   F         2 RES2   0.0000
    93 F3       9.9122   9.6397  16.8821   F         2 RES2   0.0000
    94 F4       9.4913   9.6232  19.0959   F         2 RES2   0.0000
    95 F5       7.4113   8.8292  18.6972   F         2 RES2   0.0000
    96 F6       9.2187   7.7319  17.8831   F         2 RES2   0.0000
    97 P2      10.6711   9.2947  12.2241   P.3       3 RES3  -1.0000
    98 F7      10.1480  10.6961  11.6777   F         3 RES3   0.0000
    99 F8       9.4891   8.5479  11.4077   F         3 RES3   0.0000
   100 F9      11.6318   9.1397  10.9570   F         3 RES3   0.0000
   101 F10     11.8415  10.0304  13.0276   F         3 RES3   0.0000
   102 F11      9.7000   9.4329  13.4951   F         3 RES3   0.0000
   103 F12     11.1762   7.8880  12.7742   F         3 RES3   0.0000
@<TRIPOS>BOND
     1     1     2    1
     2     2    64    1
     3     3     1    1
     4     4     1    1
     5     5     1    1
     6     6     1    1
     7     7     1    1
     8     8    22    1
     9     9    14    1
    10    10    40    1
    11    11    66    1
    12    12     4    1
    13    13    12    1
    14    14    12    2
    15    15    14    1
    16    16     4    2
    17    17     5    2
    18    18    17    1
    19    19     5    1
    20    20    19    1
    21    21    19    1
    22    22    19    1
    23    23    22    1
    24    24    22    1
    25    25     9    1
    26    26    25    1
    27    27    25    1
    28    28    25    1
    29    29    28    1
    30    30    28    1
    31    31    28    1
    32    32    31    1
    33    33    31    1
    34    34    31    1
    35    35    34    1
    36    36    34    1
    37    37    34    1
    38    38     6    1
    39    39    38    1
    40    40    38    2
    41    41    40    1
    42    42     6    2
    43    43     7    2
    44    44    43    1
    45    45     7    1
    46    46    45    1
    47    47    45    1
    48    48     8    1
    49    49    48    1
    50    50    48    1
    51    51    10    1
    52    52    51    1
    53    53    51    1
    54    54    51    1
    55    55    54    1
    56    56    54    1
    57    57    54    1
    58    58    57    1
    59    59    57    1
    60    60    57    1
    61    61    60    1
    62    62    60    1
    63    63    60    1
    64    64    65    1
    65    66    64    2
    66    67    66    1
    67    68     2    2
    68    69     3    2
    69    70    69    1
    70    71     3    1
    71    72    71    1
    72    73    71    1
    73    74     8    1
    74    75    74    1
    75    76    74    1
    76    77    11    1
    77    78    77    1
    78    79    77    1
    79    80    77    1
    80    81    80    1
    81    82    80    1
    82    83    80    1
    83    84    83    1
    84    85    83    1
    85    86    83    1
    86    87    86    1
    87    88    86    1
    88    89    86    1
    89     9    16    1
    90    10    42    1
    91    11    68    1
    92    16    17    1
    93    42    43    1
    94    45    48    1
    95    68    69    1
    96    71    74    1
    97    90    91    1
    98    92    90    1
    99    93    90    1
   100    94    90    1
   101    95    90    1
   102    96    90    1
   103    97    98    1
   104    99    97    1
   105   100    97    1
   106   101    97    1
   107   102    97    1
   108   103    97    1
@<TRIPOS>SUBSTRUCTURE
     1 RES1        1 GROUP             0 ****  ****    0  
     2 RES2       90 GROUP             0 ****  ****    0  
     3 RES3       97 GROUP             0 ****  ****    0  
@<TRIPOS>CRYSIN
    9.0541   10.6819   21.0930   86.8480   80.1320   83.2680     2     1
