@<TRIPOS>MOLECULE
GIGGUA01
   103   108     3     0     0
SMALL
USER_CHARGES
****
Generated from the CSD

@<TRIPOS>ATOM
     1 Fe1      0.9422   7.9080   6.0156   Fe        1 RES1   2.0000
     2 N1       0.9074   7.8075   3.8015   N.2       1 RES1   0.0000
     3 N2       2.5999   6.6126   5.4962   N.2       1 RES1   0.0000
     4 N3      -0.6119   6.3567   6.2268   N.2       1 RES1   0.0000
     5 N4       0.7591   7.6051   8.1897   N.2       1 RES1   0.0000
     6 N5      -0.5977   9.4039   5.7515   N.2       1 RES1   0.0000
     7 N6       2.0496   9.8015   5.8590   N.2       1 RES1   0.0000
     8 N7       3.4557   8.1361   7.6720   N.3       1 RES1   0.0000
     9 N8      -1.0484  11.4666   5.0771   N.pl3     1 RES1   0.0000
    10 N9       2.0591   7.2403   1.9943   N.pl3     1 RES1   0.0000
    11 N10     -1.7685   5.0968   7.6432   N.pl3     1 RES1   0.0000
    12 C1      -1.9403   9.5037   5.4758   C.2       1 RES1   0.0000
    13 H1      -2.5568   8.8119   5.5580   H         1 RES1   0.0000
    14 C2      -2.2279  10.7547   5.0687   C.2       1 RES1   0.0000
    15 H2      -3.0664  11.0781   4.8268   H         1 RES1   0.0000
    16 C3      -0.0889  10.5965   5.4947   C.2       1 RES1   0.0000
    17 C4       1.3469  10.8338   5.6085   C.2       1 RES1   0.0000
    18 H3       1.7221  11.6787   5.5061   H         1 RES1   0.0000
    19 C5       3.4913   9.9759   6.0416   C.3       1 RES1   0.0000
    20 H4       3.7244  10.9110   5.9302   H         1 RES1   0.0000
    21 H5       3.9709   9.4609   5.3741   H         1 RES1   0.0000
    22 C6       3.8876   9.5105   7.4355   C.3       1 RES1   0.0000
    23 H6       4.8507   9.5668   7.5333   H         1 RES1   0.0000
    24 H7       3.4842  10.0930   8.0980   H         1 RES1   0.0000
    25 C7      -0.8800  12.8264   4.5996   C.3       1 RES1   0.0000
    26 H8      -0.0105  13.1672   4.8636   H         1 RES1   0.0000
    27 H9      -1.5631  13.4012   4.9804   H         1 RES1   0.0000
    28 C8      -1.0074  12.8023   2.9727   C.3       1 RES1   0.0000
    29 H10     -0.2792  12.2855   2.5919   H         1 RES1   0.0000
    30 H11     -1.8440  12.3869   2.7130   H         1 RES1   0.0000
    31 C9      -0.9566  14.1789   2.4729   C.3       1 RES1   0.0000
    32 H12     -0.0925  14.5734   2.6676   H         1 RES1   0.0000
    33 H13     -1.6423  14.7147   2.9013   H         1 RES1   0.0000
    34 C10     -1.1843  14.1400   0.9844   C.3       1 RES1   0.0000
    35 H14     -1.1518  15.0329   0.6317   H         1 RES1   0.0000
    36 H15     -2.0454  13.7558   0.8027   H         1 RES1   0.0000
    37 H16     -0.5020  13.6073   0.5690   H         1 RES1   0.0000
    38 C11      0.2996   8.3358   2.6994   C.2       1 RES1   0.0000
    39 H17     -0.4735   8.8533   2.7087   H         1 RES1   0.0000
    40 C12      0.9998   7.9888   1.5826   C.2       1 RES1   0.0000
    41 H18      0.7940   8.2204   0.7053   H         1 RES1   0.0000
    42 C13      1.9716   7.1456   3.3417   C.2       1 RES1   0.0000
    43 C14      2.8556   6.4613   4.2586   C.2       1 RES1   0.0000
    44 H19      3.5678   5.9428   3.9614   H         1 RES1   0.0000
    45 C15      3.5069   6.0011   6.4784   C.3       1 RES1   0.0000
    46 H20      4.0928   5.3651   6.0405   H         1 RES1   0.0000
    47 H21      2.9962   5.5301   7.1547   H         1 RES1   0.0000
    48 C16      4.3243   7.1113   7.1192   C.3       1 RES1   0.0000
    49 H22      4.8778   6.7401   7.8254   H         1 RES1   0.0000
    50 H23      4.9102   7.5072   6.4537   H         1 RES1   0.0000
    51 C17      3.1691   6.7552   1.1475   C.3       1 RES1   0.0000
    52 H24      2.8181   6.4444   0.2986   H         1 RES1   0.0000
    53 H25      3.6083   6.0080   1.5837   H         1 RES1   0.0000
    54 C18      4.1687   7.8560   0.9087   C.3       1 RES1   0.0000
    55 H26      4.8619   7.4485   0.3635   H         1 RES1   0.0000
    56 H27      3.7117   8.4832   0.3267   H         1 RES1   0.0000
    57 C19      4.7900   8.5759   1.7308   C.3       1 RES1   0.0000
    58 H28      5.2123   7.9565   2.3474   H         1 RES1   0.0000
    59 H29      4.1033   9.0327   2.2414   H         1 RES1   0.0000
    60 C20      5.8138   9.6036   1.4452   C.3       1 RES1   0.0000
    61 H30      6.2621   9.8447   2.2587   H         1 RES1   0.0000
    62 H31      5.3924  10.3802   1.0688   H         1 RES1   0.0000
    63 H32      6.4525   9.2526   0.8200   H         1 RES1   0.0000
    64 C21     -1.4972   5.5858   5.5221   C.2       1 RES1   0.0000
    65 H33     -1.5992   5.5958   4.5974   H         1 RES1   0.0000
    66 C22     -2.2108   4.7995   6.3839   C.2       1 RES1   0.0000
    67 H34     -2.8686   4.1834   6.1573   H         1 RES1   0.0000
    68 C23     -0.8061   6.0408   7.5074   C.2       1 RES1   0.0000
    69 C24     -0.0716   6.7099   8.5586   C.2       1 RES1   0.0000
    70 H35     -0.1974   6.4984   9.4545   H         1 RES1   0.0000
    71 C25      1.5648   8.2760   9.2165   C.3       1 RES1   0.0000
    72 H36      1.2562   8.0196  10.0992   H         1 RES1   0.0000
    73 H37      1.4758   9.2388   9.1300   H         1 RES1   0.0000
    74 C26      3.0126   7.8714   9.0346   C.3       1 RES1   0.0000
    75 H38      3.5684   8.3661   9.6579   H         1 RES1   0.0000
    76 H39      3.1117   6.9254   9.2295   H         1 RES1   0.0000
    77 C27     -2.2252   4.4788   8.9071   C.3       1 RES1   0.0000
    78 H40     -3.1391   4.1740   8.7968   H         1 RES1   0.0000
    79 H41     -2.2180   5.1491   9.6081   H         1 RES1   0.0000
    80 C28     -1.3651   3.3108   9.3338   C.3       1 RES1   0.0000
    81 H42     -0.4673   3.6355   9.5086   H         1 RES1   0.0000
    82 H43     -1.7150   2.9553  10.1641   H         1 RES1   0.0000
    83 C29     -1.2852   2.1881   8.3204   C.3       1 RES1   0.0000
    84 H44     -0.7707   2.4872   7.5550   H         1 RES1   0.0000
    85 H45     -2.1802   1.9747   8.0115   H         1 RES1   0.0000
    86 C30     -0.6415   0.9283   8.8961   C.3       1 RES1   0.0000
    87 H46     -0.6125   0.2459   8.2213   H         1 RES1   0.0000
    88 H47     -1.1575   0.6173   9.6427   H         1 RES1   0.0000
    89 H48      0.2522   1.1288   9.1862   H         1 RES1   0.0000
    90 P1       5.2340   3.0989   3.0601   P.3       2 RES2  -1.0000
    91 F1       6.1443   2.8094   1.7942   F         2 RES2   0.0000
    92 F2       4.0507   3.5785   2.1187   F         2 RES2   0.0000
    93 F3       5.7307   4.6142   3.1258   F         2 RES2   0.0000
    94 F4       6.4138   2.6779   4.0282   F         2 RES2   0.0000
    95 F5       4.6890   1.6171   3.0313   F         2 RES2   0.0000
    96 F6       4.3223   3.4024   4.3363   F         2 RES2   0.0000
    97 P2       3.2202   2.8567   8.8968   P.3       3 RES3  -1.0000
    98 F7       4.2263   2.8307   7.6486   F         3 RES3   0.0000
    99 F8       2.7870   1.3531   8.5770   F         3 RES3   0.0000
   100 F9       2.0580   3.3978   7.9504   F         3 RES3   0.0000
   101 F10      3.6868   4.3477   9.2157   F         3 RES3   0.0000
   102 F11      4.4046   2.3071   9.8433   F         3 RES3   0.0000
   103 F12      2.2274   2.8750  10.1432   F         3 RES3   0.0000
@<TRIPOS>BOND
     1     1     2    1
     2     2    38    1
     3     3     1    1
     4     4     1    1
     5     5     1    1
     6     6     1    1
     7     7     1    1
     8     8    22    1
     9     9    14    1
    10    10    40    1
    11    11    66    1
    12    12     6    1
    13    13    12    1
    14    14    12    2
    15    15    14    1
    16    16     6    2
    17    17     7    2
    18    18    17    1
    19    19     7    1
    20    20    19    1
    21    21    19    1
    22    22    19    1
    23    23    22    1
    24    24    22    1
    25    25     9    1
    26    26    25    1
    27    27    25    1
    28    28    25    1
    29    29    28    1
    30    30    28    1
    31    31    28    1
    32    32    31    1
    33    33    31    1
    34    34    31    1
    35    35    34    1
    36    36    34    1
    37    37    34    1
    38    38    39    1
    39    40    38    2
    40    41    40    1
    41    42     2    2
    42    43     3    2
    43    44    43    1
    44    45     3    1
    45    46    45    1
    46    47    45    1
    47    48     8    1
    48    49    48    1
    49    50    48    1
    50    51    10    1
    51    52    51    1
    52    53    51    1
    53    54    51    1
    54    55    54    1
    55    56    54    1
    56    57    54    1
    57    58    57    1
    58    59    57    1
    59    60    57    1
    60    61    60    1
    61    62    60    1
    62    63    60    1
    63    64     4    1
    64    65    64    1
    65    66    64    2
    66    67    66    1
    67    68     4    2
    68    69     5    2
    69    70    69    1
    70    71     5    1
    71    72    71    1
    72    73    71    1
    73    74     8    1
    74    75    74    1
    75    76    74    1
    76    77    11    1
    77    78    77    1
    78    79    77    1
    79    80    77    1
    80    81    80    1
    81    82    80    1
    82    83    80    1
    83    84    83    1
    84    85    83    1
    85    86    83    1
    86    87    86    1
    87    88    86    1
    88    89    86    1
    89     9    16    1
    90    10    42    1
    91    11    68    1
    92    16    17    1
    93    42    43    1
    94    45    48    1
    95    68    69    1
    96    71    74    1
    97    90    91    1
    98    92    90    1
    99    93    90    1
   100    94    90    1
   101    95    90    1
   102    96    90    1
   103    97    98    1
   104    99    97    1
   105   100    97    1
   106   101    97    1
   107   102    97    1
   108   103    97    1
@<TRIPOS>SUBSTRUCTURE
     1 RES1        1 GROUP             0 ****  ****    0  
     2 RES2       90 GROUP             0 ****  ****    0  
     3 RES3       97 GROUP             0 ****  ****    0  
@<TRIPOS>CRYSIN
    9.2976   10.2975   22.1432   92.1360  101.6330   98.7210     2     1
