@<TRIPOS>MOLECULE
GIJXIH
    77    81     3     0     0
SMALL
USER_CHARGES
****
Generated from the CSD

@<TRIPOS>ATOM
     1 C1       0.5403  10.6533   2.7737   C.1       1 RES1  -1.0000
     2 C2      -1.2886  12.0691   4.2589   C.1       1 RES1   0.0000
     3 C3      -1.3204   9.4175   4.2230   C.1       1 RES1   0.0000
     4 C4      -3.3441  10.8333   3.0611   C.1       1 RES1   0.0000
     5 C5      -1.3726  13.4120   1.4790   C.ar      1 RES1   0.0000
     6 H1      -1.4161  13.7971   2.3255   H         1 RES1   0.0000
     7 C6      -1.2967  14.2333   0.3811   C.ar      1 RES1   0.0000
     8 H2      -1.2989  15.1571   0.4873   H         1 RES1   0.0000
     9 C7      -1.2183  13.6868  -0.8668   C.ar      1 RES1   0.0000
    10 H3      -1.1569  14.2349  -1.6149   H         1 RES1   0.0000
    11 C8      -1.2328  12.3144  -1.0058   C.ar      1 RES1   0.0000
    12 H4      -1.1762  11.9232  -1.8476   H         1 RES1   0.0000
    13 C9      -1.3311  11.5335   0.1281   C.ar      1 RES1   0.0000
    14 C10     -1.4338  10.0633   0.1156   C.ar      1 RES1   0.0000
    15 C11     -1.4463   9.3088  -1.0370   C.ar      1 RES1   0.0000
    16 H5      -1.3422   9.7155  -1.8679   H         1 RES1   0.0000
    17 C12     -1.6153   7.9426  -0.9449   C.ar      1 RES1   0.0000
    18 H6      -1.6447   7.4147  -1.7101   H         1 RES1   0.0000
    19 C13     -1.7398   7.3759   0.2967   C.ar      1 RES1   0.0000
    20 H7      -1.8646   6.4584   0.3795   H         1 RES1   0.0000
    21 C14     -1.6777   8.1646   1.4196   C.ar      1 RES1   0.0000
    22 H8      -1.7376   7.7672   2.2583   H         1 RES1   0.0000
    23 Fe1     -1.3999  10.7643   2.8674   Fe        1 RES1   0.0000
    24 N1       1.6741  10.5353   2.7222   N.1       1 RES1   0.0000
    25 N2      -1.2379  12.8764   5.0695   N.1       1 RES1   0.0000
    26 N3      -1.2521   8.5869   4.9992   N.1       1 RES1   0.0000
    27 N4      -4.4806  10.8659   3.1985   N.1       1 RES1   0.0000
    28 N5      -1.3879  12.0665   1.3729   N.ar      1 RES1   0.0000
    29 N6      -1.5310   9.4940   1.3327   N.ar      1 RES1   0.0000
    30 C15      4.5459  13.7365   4.0184   C.ar      2 RES2   0.0000
    31 C16      4.6435  15.0235   4.4916   C.ar      2 RES2   0.0000
    32 H9       5.4784  15.4086   4.6306   H         2 RES2   0.0000
    33 C17      3.4988  15.7408   4.7571   C.ar      2 RES2   0.0000
    34 H10      3.5652  16.6133   5.0757   H         2 RES2   0.0000
    35 C18      2.2913  15.1959   4.5635   C.ar      2 RES2   0.0000
    36 H11      1.5246  15.6942   4.7337   H         2 RES2   0.0000
    37 C19      2.1838  13.9088   4.1152   C.ar      2 RES2   0.0000
    38 H12      1.3417  13.5331   3.9934   H         2 RES2   0.0000
    39 C20      3.3067  13.1699   3.8451   C.ar      2 RES2   0.0000
    40 H13      3.2304  12.2927   3.5468   H         2 RES2   0.0000
    41 C21      6.6789  11.9310   5.3162   C.ar      2 RES2   0.0000
    42 C22      6.7039  12.7181   6.4407   C.ar      2 RES2   0.0000
    43 H14      6.4888  13.6216   6.3751   H         2 RES2   0.0000
    44 C23      7.0428  12.1871   7.6636   C.ar      2 RES2   0.0000
    45 H15      7.0788  12.7289   8.4179   H         2 RES2   0.0000
    46 C24      7.3251  10.8597   7.7557   C.ar      2 RES2   0.0000
    47 H16      7.5428  10.4949   8.5834   H         2 RES2   0.0000
    48 C25      7.2942  10.0664   6.6703   C.ar      2 RES2   0.0000
    49 H17      7.4751   9.1582   6.7546   H         2 RES2   0.0000
    50 C26      6.9884  10.6051   5.4146   C.ar      2 RES2   0.0000
    51 H18      6.9959  10.0664   4.6572   H         2 RES2   0.0000
    52 C27      7.5176  13.9430   3.1126   C.ar      2 RES2   0.0000
    53 C28      7.2115  14.9754   2.2427   C.ar      2 RES2   0.0000
    54 H19      6.3515  15.0841   1.9054   H         2 RES2   0.0000
    55 C29      8.2354  15.8433   1.8929   C.ar      2 RES2   0.0000
    56 H20      8.0668  16.5372   1.2963   H         2 RES2   0.0000
    57 C30      9.4887  15.6927   2.4098   C.ar      2 RES2   0.0000
    58 H21     10.1534  16.3075   2.1990   H         2 RES2   0.0000
    59 C31      9.7686  14.6509   3.2313   C.ar      2 RES2   0.0000
    60 H22     10.6319  14.5361   3.5546   H         2 RES2   0.0000
    61 C32      8.7846  13.7660   3.5889   C.ar      2 RES2   0.0000
    62 H23      8.9775  13.0519   4.1527   H         2 RES2   0.0000
    63 C33      5.8151  11.3643   2.3864   C.ar      2 RES2   0.0000
    64 C34      4.9675  10.3319   2.6784   C.ar      2 RES2   0.0000
    65 H24      4.5746  10.2791   3.5187   H         2 RES2   0.0000
    66 C35      4.6985   9.3771   1.7382   C.ar      2 RES2   0.0000
    67 H25      4.1389   8.6630   1.9413   H         2 RES2   0.0000
    68 C36      5.2523   9.4811   0.5138   C.ar      2 RES2   0.0000
    69 H26      5.0581   8.8368  -0.1281   H         2 RES2   0.0000
    70 C37      6.0810  10.4996   0.1952   C.ar      2 RES2   0.0000
    71 H27      6.4465  10.5508  -0.6591   H         2 RES2   0.0000
    72 C38      6.3913  11.4776   1.1479   C.ar      2 RES2   0.0000
    73 H28      6.9688  12.1778   0.9480   H         2 RES2   0.0000
    74 As1      6.1441  12.7384   3.6772   As        2 RES2   1.0000
    75 C39     -2.8292  12.4930  15.4911   C.3       3 RES3   0.0000
    76 C40     -1.8694  13.4819  15.9315   C.1       3 RES3   0.0000
    77 N7      -1.1321  14.2411  16.2939   N.1       3 RES3   0.0000
@<TRIPOS>BOND
     1     1    23    1
     2     2    23    1
     3     3    23    1
     4     4    23    1
     5     5     6    1
     6     7     5   ar
     7     8     7    1
     8     9     7   ar
     9    10     9    1
    10    11     9   ar
    11    12    11    1
    12    13    11   ar
    13    14    13    1
    14    15    14   ar
    15    16    15    1
    16    17    15   ar
    17    18    17    1
    18    19    17   ar
    19    20    19    1
    20    21    19   ar
    21    22    21    1
    22    23    28    1
    23    24     1    3
    24    25     2    3
    25    26     3    3
    26    27     4    3
    27    28     5   ar
    28    29    14   ar
    29    13    28   ar
    30    21    29   ar
    31    23    29    1
    32    30    31   ar
    33    31    32    1
    34    33    31   ar
    35    34    33    1
    36    35    33   ar
    37    36    35    1
    38    37    35   ar
    39    38    37    1
    40    39    30   ar
    41    40    39    1
    42    41    42   ar
    43    42    43    1
    44    44    42   ar
    45    45    44    1
    46    46    44   ar
    47    47    46    1
    48    48    46   ar
    49    49    48    1
    50    50    41   ar
    51    51    50    1
    52    52    53   ar
    53    53    54    1
    54    55    53   ar
    55    56    55    1
    56    57    55   ar
    57    58    57    1
    58    59    57   ar
    59    60    59    1
    60    61    52   ar
    61    62    61    1
    62    63    64   ar
    63    64    65    1
    64    66    64   ar
    65    67    66    1
    66    68    66   ar
    67    69    68    1
    68    70    68   ar
    69    71    70    1
    70    72    63   ar
    71    73    72    1
    72    74    30    1
    73    37    39   ar
    74    41    74    1
    75    48    50   ar
    76    52    74    1
    77    59    61   ar
    78    63    74    1
    79    70    72   ar
    80    75    76    1
    81    76    77    3
@<TRIPOS>SUBSTRUCTURE
     1 RES1        1 GROUP             0 ****  ****    0  
     2 RES2       30 GROUP             0 ****  ****    0  
     3 RES3       75 GROUP             0 ****  ****    0  
@<TRIPOS>CRYSIN
   14.6500   15.5250   16.4890   90.0000  108.7100   90.0000    14     1
