@<TRIPOS>MOLECULE
GIKDIR
    89    95     1     0     0
SMALL
USER_CHARGES
****
Generated from the CSD

@<TRIPOS>ATOM
     1 Fe1      1.1231   1.6892  11.3631   Fe        1 RES1   2.0000
     2 P1       1.3626   3.1332  13.0353   P.3       1 RES1   0.0000
     3 P2       1.1249   0.0397   9.8904   P.3       1 RES1   0.0000
     4 C1       2.7098   1.2481   7.9929   C.3       1 RES1   0.0000
     5 H1       2.7431   2.0036   8.6162   H         1 RES1   0.0000
     6 H2       2.8240   1.5755   7.0763   H         1 RES1   0.0000
     7 H3       3.4286   0.6169   8.2061   H         1 RES1   0.0000
     8 C2       3.3231   3.2190  15.0980   C.ar      1 RES1   0.0000
     9 H4       2.8840   3.9960  15.4233   H         1 RES1   0.0000
    10 C3       2.8262   2.5612  13.9703   C.ar      1 RES1   0.0000
    11 C4       1.3564   0.5419   8.1180   C.3       1 RES1   0.0000
    12 H5       0.6544   1.2253   7.9175   H         1 RES1   0.0000
    13 C5       1.8366   4.8944  12.6956   C.3       1 RES1   0.0000
    14 H6       1.9698   5.3449  13.5785   H         1 RES1   0.0000
    15 C6       3.1679   4.9453  11.9490   C.3       1 RES1   0.0000
    16 H7       3.8600   4.5042  12.4848   H         1 RES1   0.0000
    17 H8       3.4203   5.8796  11.7947   H         1 RES1   0.0000
    18 H9       3.0778   4.4848  11.0887   H         1 RES1   0.0000
    19 C7      -0.0514   3.2314  14.2320   C.3       1 RES1   0.0000
    20 H10     -0.8441   3.5346  13.7028   H         1 RES1   0.0000
    21 C8       0.7724   5.6836  11.9337   C.3       1 RES1   0.0000
    22 H11      0.6210   5.2676  11.0595   H         1 RES1   0.0000
    23 H12      1.0780   6.6063  11.8079   H         1 RES1   0.0000
    24 H13     -0.0634   5.6830  12.4452   H         1 RES1   0.0000
    25 O1      -1.2145   2.1961   9.4266   O.3       1 RES1   0.0000
    26 O2      -1.2691   3.6113  11.2291   O.3       1 RES1   0.0000
    27 C9       3.4061  -0.4903  11.3312   C.ar      1 RES1   0.0000
    28 C10      5.0969   1.6357  15.2538   C.ar      1 RES1   0.0000
    29 H14      5.8703   1.3049  15.6953   H         1 RES1   0.0000
    30 C11      3.4834   1.4372  13.4376   C.ar      1 RES1   0.0000
    31 C12     -0.4043  -1.7554  11.3411   C.3       1 RES1   0.0000
    32 H15      0.4660  -2.0007  11.7199   H         1 RES1   0.0000
    33 H16     -0.9897  -2.5410  11.3323   H         1 RES1   0.0000
    34 H17     -0.8109  -1.0506  11.8872   H         1 RES1   0.0000
    35 C13      4.6236   0.9955  14.1150   C.ar      1 RES1   0.0000
    36 H18      5.0888   0.2349  13.7870   H         1 RES1   0.0000
    37 C14      2.5933  -0.9828  10.2915   C.ar      1 RES1   0.0000
    38 C15      1.2307  -0.5477   7.0496   C.3       1 RES1   0.0000
    39 H19      1.9721  -1.1822   7.1417   H         1 RES1   0.0000
    40 H20      1.2603  -0.1378   6.1600   H         1 RES1   0.0000
    41 H21      0.3801  -1.0205   7.1636   H         1 RES1   0.0000
    42 C16     -2.5787   3.6658  10.6180   C.3       1 RES1   0.0000
    43 C17     -0.2119  -1.2452   9.9089   C.3       1 RES1   0.0000
    44 H22      0.1090  -2.0162   9.3588   H         1 RES1   0.0000
    45 B1      -0.5600   2.5638  10.6203   B         1 RES1  -1.0000
    46 C18      2.9051  -2.1610   9.6227   C.ar      1 RES1   0.0000
    47 H23      2.3220  -2.4878   8.9478   H         1 RES1   0.0000
    48 C19     -2.2770   3.1454   9.1876   C.3       1 RES1   0.0000
    49 C20      4.5810  -1.2042  11.5816   C.ar      1 RES1   0.0000
    50 H24      5.1811  -0.8798  12.2429   H         1 RES1   0.0000
    51 C21      4.0609  -2.8641   9.9322   C.ar      1 RES1   0.0000
    52 H25      4.2664  -3.6752   9.4823   H         1 RES1   0.0000
    53 C22     -3.0799   5.0960  10.6905   C.3       1 RES1   0.0000
    54 H26     -3.2370   5.3401  11.6264   H         1 RES1   0.0000
    55 H27     -3.9175   5.1743  10.1875   H         1 RES1   0.0000
    56 H28     -2.4095   5.6971  10.3040   H         1 RES1   0.0000
    57 C23     -1.5568  -0.8007   9.3290   C.3       1 RES1   0.0000
    58 H29     -1.9651  -0.1366   9.9229   H         1 RES1   0.0000
    59 H30     -2.1504  -1.5763   9.2492   H         1 RES1   0.0000
    60 H31     -1.4160  -0.4046   8.4438   H         1 RES1   0.0000
    61 C24     -3.4277   2.4274   8.5056   C.3       1 RES1   0.0000
    62 H32     -3.1420   2.1210   7.6198   H         1 RES1   0.0000
    63 H33     -4.1850   3.0422   8.4102   H         1 RES1   0.0000
    64 H34     -3.6983   1.6569   9.0468   H         1 RES1   0.0000
    65 C25     -3.4878   2.7343  11.4094   C.3       1 RES1   0.0000
    66 H35     -3.1668   1.8123  11.3226   H         1 RES1   0.0000
    67 H36     -4.4020   2.7956  11.0609   H         1 RES1   0.0000
    68 H37     -3.4807   2.9949  12.3541   H         1 RES1   0.0000
    69 C26      4.9050  -2.3692  10.9003   C.ar      1 RES1   0.0000
    70 H38      5.7121  -2.8270  11.1030   H         1 RES1   0.0000
    71 C27     -1.7228   4.2319   8.2756   C.3       1 RES1   0.0000
    72 H39     -1.0105   4.7177   8.7416   H         1 RES1   0.0000
    73 H40     -2.4403   4.8549   8.0359   H         1 RES1   0.0000
    74 H41     -1.3606   3.8224   7.4621   H         1 RES1   0.0000
    75 C28      4.4511   2.7451  15.7438   C.ar      1 RES1   0.0000
    76 H42      4.7776   3.1839  16.5209   H         1 RES1   0.0000
    77 B2       2.8530   0.8010  12.1056   B         1 RES1  -1.0000
    78 C29     -0.3931   1.8379  14.7492   C.3       1 RES1   0.0000
    79 H43     -0.5660   1.2414  13.9909   H         1 RES1   0.0000
    80 H44     -1.1908   1.8860  15.3157   H         1 RES1   0.0000
    81 H45      0.3593   1.4905  15.2727   H         1 RES1   0.0000
    82 C30      0.0792   4.2103  15.4048   C.3       1 RES1   0.0000
    83 H46      0.7745   3.8930  16.0187   H         1 RES1   0.0000
    84 H47     -0.7755   4.2662  15.8804   H         1 RES1   0.0000
    85 H48      0.3233   5.0964  15.0651   H         1 RES1   0.0000
    86 H49      2.6490   1.7554  11.2539   H         1 RES1   0.0000
    87 H50     -0.3369   1.5541  11.5076   H         1 RES1   0.0000
    88 H51      1.5953   0.5939  12.3850   H         1 RES1   0.0000
    89 H52      0.7495   2.7606  10.3646   H         1 RES1   0.0000
@<TRIPOS>BOND
     1     1     2    1
     2     2    10    1
     3     3     1    1
     4     4     5    1
     5     6     4    1
     6     7     4    1
     7     8     9    1
     8    10     8   ar
     9    11     3    1
    10    12    11    1
    11    13     2    1
    12    14    13    1
    13    15    13    1
    14    16    15    1
    15    17    15    1
    16    18    15    1
    17    19     2    1
    18    20    19    1
    19    21    13    1
    20    22    21    1
    21    23    21    1
    22    24    21    1
    23    25    45    1
    24    26    42    1
    25    27    37   ar
    26    28    29    1
    27    30    10   ar
    28    31    32    1
    29    33    31    1
    30    34    31    1
    31    35    28   ar
    32    36    35    1
    33    37     3    1
    34    38    11    1
    35    39    38    1
    36    40    38    1
    37    41    38    1
    38    42    48    1
    39    43     3    1
    40    44    43    1
    41    45    26    1
    42    46    37   ar
    43    47    46    1
    44    48    25    1
    45    49    27   ar
    46    50    49    1
    47    51    46   ar
    48    52    51    1
    49    53    42    1
    50    54    53    1
    51    55    53    1
    52    56    53    1
    53    57    43    1
    54    58    57    1
    55    59    57    1
    56    60    57    1
    57    61    48    1
    58    62    61    1
    59    63    61    1
    60    64    61    1
    61    65    42    1
    62    66    65    1
    63    67    65    1
    64    68    65    1
    65    69    49   ar
    66    70    69    1
    67    71    48    1
    68    72    71    1
    69    73    71    1
    70    74    71    1
    71    75     8   ar
    72    76    75    1
    73    77    27    1
    74    78    19    1
    75    79    78    1
    76    80    78    1
    77    81    78    1
    78    82    19    1
    79    83    82    1
    80    84    82    1
    81    85    82    1
    82    86     1    1
    83    87     1    1
    84    88     1    1
    85    89     1    1
    86     4    11    1
    87    28    75   ar
    88    30    35   ar
    89    30    77    1
    90    31    43    1
    91    45    87    1
    92    45    89    1
    93    51    69   ar
    94    77    86    1
    95    77    88    1
@<TRIPOS>SUBSTRUCTURE
     1 RES1        1 GROUP             0 ****  ****    0  
@<TRIPOS>CRYSIN
    9.6026   10.9986   29.9514   90.0000   94.8690   90.0000   231     1
