@<TRIPOS>MOLECULE
GILLIX
    85    90     4     0     0
SMALL
USER_CHARGES
****
Generated from the CSD

@<TRIPOS>ATOM
     1 Fe1      0.0000   0.0000   0.0000   Fe        1 RES1   0.0000
     2 C1      -0.2010  -0.3579   1.9013   C.1       1 RES1  -1.0000
     3 N1      -0.2888  -0.5704   3.0079   N.1       1 RES1   0.0000
     4 C2       0.7803   1.7319   0.4054   C.1       1 RES1   0.0000
     5 N2       1.2272   2.7589   0.6440   N.1       1 RES1   0.0000
     6 C3       1.7676  -0.8107   0.0922   C.1       1 RES1  -1.0000
     7 N3       2.8050  -1.2913   0.1874   N.1       1 RES1   0.0000
     8 C1A      0.2010   0.3579  -1.9013   C.1       1 RES1   0.0000
     9 N1A      0.2888   0.5704  -3.0079   N.1       1 RES1   0.0000
    10 C2A     -0.7803  -1.7319  -0.4054   C.1       1 RES1  -1.0000
    11 N2A     -1.2272  -2.7589  -0.6440   N.1       1 RES1   0.0000
    12 C3A     -1.7676   0.8107  -0.0922   C.1       1 RES1   0.0000
    13 N3A     -2.8050   1.2913  -0.1874   N.1       1 RES1   0.0000
    14 S1      -4.9373   2.9889   7.2586   S.3       2 RES2   0.0000
    15 S2      -4.8311   0.0629   6.9856   S.3       2 RES2   0.0000
    16 S3      -3.9335   3.5725   4.5714   S.3       2 RES2   0.0000
    17 S4      -3.7069   0.1319   4.2377   S.3       2 RES2   0.0000
    18 S5      -6.0315   2.6755  10.2729   S.3       2 RES2   1.0000
    19 S6      -5.9846  -0.2598   9.9926   S.3       2 RES2   0.0000
    20 C4      -5.1805   1.4237   7.9990   C.2       2 RES2   0.0000
    21 C5      -5.6553   1.2983   9.2798   C.2       2 RES2   0.0000
    22 C6      -4.3421   2.3577   5.7274   C.2       2 RES2   0.0000
    23 C7      -4.2706   1.0122   5.6235   C.2       2 RES2   0.0000
    24 C8      -6.5826   1.7225  11.6436   C.2       2 RES2   0.0000
    25 C9      -6.5459   0.3945  11.4855   C.2       2 RES2   0.0000
    26 H1      -6.8198  -0.1703  12.1735   H         2 RES2   0.0000
    27 C10     -7.0950   2.5165  12.7780   C.2       2 RES2   0.0000
    28 C11     -3.6750   2.6514   3.0386   C.3       2 RES2   0.0000
    29 H2      -4.0798   3.1597   2.3199   H         2 RES2   0.0000
    30 H3      -2.7201   2.6279   2.8688   H         2 RES2   0.0000
    31 C12     -4.1763   1.2675   2.9420   C.3       2 RES2   0.0000
    32 H4      -3.8763   0.8981   2.0975   H         2 RES2   0.0000
    33 H5      -5.1462   1.3021   2.9127   H         2 RES2   0.0000
    34 O1      -7.1941   3.7354  12.6638   O.2       2 RES2   0.0000
    35 N4      -7.4386   1.8625  13.8860   N.am      2 RES2   0.0000
    36 H6      -7.7455   2.2943  14.5622   H         2 RES2   0.0000
    37 H7      -7.3531   1.0071  13.9241   H         2 RES2   0.0000
    38 S7      -2.2034   2.3876  10.5413   S.3       3 RES3   0.0000
    39 S8      -2.2510  -0.4838  10.0241   S.3       3 RES3   0.0000
    40 S9      -3.1254   2.2116  13.3103   S.3       3 RES3   0.0000
    41 S10     -3.1751  -1.2295  12.7350   S.3       3 RES3   0.0000
    42 S11     -1.1479   2.8308   7.4246   S.3       3 RES3   0.0000
    43 S12     -1.1216  -0.0902   7.1374   S.3       3 RES3   0.0000
    44 C13     -1.9298   1.1002   9.4261   C.2       3 RES3   0.0000
    45 C14     -1.4436   1.2913   8.1352   C.2       3 RES3   0.0000
    46 C15     -2.7183   1.3574  11.8500   C.2       3 RES3   0.0000
    47 C16     -2.7416   0.0356  11.6085   C.2       3 RES3   0.0000
    48 C17     -0.7080   2.1549   5.8665   C.2       3 RES3   0.0000
    49 C18     -0.6755   0.8212   5.7611   C.2       3 RES3   0.0000
    50 H8      -0.4211   0.4056   4.9692   H         3 RES3   0.0000
    51 C19     -0.3621   3.1986   4.8565   C.2       3 RES3   0.0000
    52 C20     -3.6428   0.9212  14.4129   C.3       3 RES3   0.0000
    53 H9      -3.5276   1.2363  15.3233   H         3 RES3   0.0000
    54 H10     -4.5900   0.7683  14.2768   H         3 RES3   0.0000
    55 C21     -2.9392  -0.3856  14.2841   C.3       3 RES3   0.0000
    56 H11     -3.2391  -0.9681  14.9999   H         3 RES3   0.0000
    57 H12     -1.9893  -0.2355  14.4100   H         3 RES3   0.0000
    58 O2      -0.2677   4.3672   5.1858   O.2       3 RES3   0.0000
    59 N5      -0.1966   2.7596   3.5992   N.am      3 RES3   0.0000
    60 H13     -0.0111   3.3161   2.9698   H         3 RES3   0.0000
    61 H14     -0.2756   1.9214   3.4221   H         3 RES3   0.0000
    62 S13      2.4142   2.9225   7.5411   S.3       4 RES4   0.0000
    63 S14      2.6538   0.0364   7.0788   S.3       4 RES4   0.0000
    64 S15      3.3345   3.7161   4.8890   S.3       4 RES4   0.0000
    65 S16      3.6751   0.3312   4.2994   S.3       4 RES4   0.0000
    66 S17      1.3816   2.2731  10.6008   S.3       4 RES4   1.0000
    67 S18      1.6070  -0.5998   9.9822   S.3       4 RES4   0.0000
    68 C22      2.2496   1.3072   8.1820   C.2       4 RES4   0.0000
    69 C23      1.8135   1.0583   9.4598   C.2       4 RES4   0.0000
    70 C24      2.9833   2.4250   5.9718   C.2       4 RES4   0.0000
    71 C25      3.1052   1.0881   5.7581   C.2       4 RES4   0.0000
    72 C26      1.0472   1.1446  11.8881   C.2       4 RES4   0.0000
    73 C27      1.1513  -0.1758  11.5851   C.2       4 RES4   0.0000
    74 H15      0.9815  -0.8297  12.2247   H         4 RES4   0.0000
    75 C28      0.6295   1.7515  13.1542   C.2       4 RES4   0.0000
    76 C29      3.5792   2.9191   3.2991   C.3       4 RES4   0.0000
    77 H16      3.1795   3.4857   2.6200   H         4 RES4   0.0000
    78 H17      4.5327   2.8941   3.1250   H         4 RES4   0.0000
    79 C30      3.0415   1.5290   3.1074   C.3       4 RES4   0.0000
    80 H18      3.2656   1.2267   2.2131   H         4 RES4   0.0000
    81 H19      2.0747   1.5552   3.1762   H         4 RES4   0.0000
    82 O3       0.4593   2.9832  13.1615   O.2       4 RES4   0.0000
    83 N6       0.4527   0.9960  14.2344   N.am      4 RES4   0.0000
    84 H20      0.2113   1.3558  14.9764   H         4 RES4   0.0000
    85 H21      0.5793   0.1466  14.1904   H         4 RES4   0.0000
@<TRIPOS>BOND
     1     1     2    1
     2     2     3    3
     3     4     1    1
     4     5     4    3
     5     6     1    1
     6     7     6    3
     7     8     1    1
     8     9     8    3
     9    10     1    1
    10    11    10    3
    11    12     1    1
    12    13    12    3
    13    14    20    1
    14    15    20    1
    15    16    22    1
    16    17    23    1
    17    18    21    1
    18    19    21    1
    19    20    21    2
    20    22    14    1
    21    23    15    1
    22    24    18    1
    23    25    19    1
    24    26    25    1
    25    27    24    1
    26    28    16    1
    27    29    28    1
    28    30    28    1
    29    31    17    1
    30    32    31    1
    31    33    31    1
    32    34    27    2
    33    35    27   am
    34    36    35    1
    35    37    35    1
    36    22    23    2
    37    24    25    2
    38    28    31    1
    39    38    44    1
    40    39    44    1
    41    40    46    1
    42    41    47    1
    43    42    45    1
    44    43    45    1
    45    44    45    2
    46    46    38    1
    47    47    39    1
    48    48    42    1
    49    49    43    1
    50    50    49    1
    51    51    48    1
    52    52    40    1
    53    53    52    1
    54    54    52    1
    55    55    41    1
    56    56    55    1
    57    57    55    1
    58    58    51    2
    59    59    51   am
    60    60    59    1
    61    61    59    1
    62    46    47    2
    63    48    49    2
    64    52    55    1
    65    62    68    1
    66    63    68    1
    67    64    70    1
    68    65    71    1
    69    66    69    1
    70    67    69    1
    71    68    69    2
    72    70    62    1
    73    71    63    1
    74    72    66    1
    75    73    67    1
    76    74    73    1
    77    75    72    1
    78    76    64    1
    79    77    76    1
    80    78    76    1
    81    79    65    1
    82    80    79    1
    83    81    79    1
    84    82    75    2
    85    83    75   am
    86    84    83    1
    87    85    83    1
    88    70    71    2
    89    72    73    2
    90    76    79    1
@<TRIPOS>SUBSTRUCTURE
     1 RES1        1 GROUP             0 ****  ****    0  
     2 RES2       14 GROUP             0 ****  ****    0  
     3 RES3       38 GROUP             0 ****  ****    0  
     4 RES4       62 GROUP             0 ****  ****    0  
@<TRIPOS>CRYSIN
   11.3170   13.3000   16.9340   92.7200  117.5700  107.6100     2     1
