@<TRIPOS>MOLECULE
GISJUR
   107   118     1     0     0
SMALL
NO_CHARGES
****
Generated from the CSD

@<TRIPOS>ATOM
     1 Fe1      8.2506   0.0000   6.0988   Fe        1 RES1   0.0000
     2 C1       9.2659   0.2618   4.4852   C.1       1 RES1   0.0000
     3 N1       9.9480   0.6671   3.6409   N.1       1 RES1   0.0000
     4 C2      10.8190   1.5125   2.8232   C.3       1 RES1   0.0000
     5 C3      10.0753   2.8187   2.5918   C.3       1 RES1   0.0000
     6 H1      10.6268   3.4170   2.0456   H         1 RES1   0.0000
     7 H2       9.8873   3.2443   3.4544   H         1 RES1   0.0000
     8 H3       9.2315   2.6368   2.1273   H         1 RES1   0.0000
     9 C4      12.0914   1.7494   3.6203   C.3       1 RES1   0.0000
    10 H4      12.7019   2.3135   3.1019   H         1 RES1   0.0000
    11 H5      12.5238   0.8902   3.8093   H         1 RES1   0.0000
    12 H6      11.8700   2.1967   4.4644   H         1 RES1   0.0000
    13 C5      11.1134   0.8044   1.5074   C.3       1 RES1   0.0000
    14 H7      11.6973   1.3675   0.9575   H         1 RES1   0.0000
    15 H8      10.2740   0.6397   1.0307   H         1 RES1   0.0000
    16 H9      11.5604  -0.0491   1.6882   H         1 RES1   0.0000
    17 N2       6.6834   0.9418   5.2705   N.2       1 RES1   0.0000
    18 N3       9.0565   1.7772   6.5730   N.2       1 RES1   0.0000
    19 C6       5.5649   0.3527   4.7121   C.2       1 RES1   0.0000
    20 C7       4.6607   1.3617   4.2309   C.2       1 RES1   0.0000
    21 H10      3.8349   1.2118   3.7849   H         1 RES1   0.0000
    22 C8       5.2026   2.5592   4.5299   C.2       1 RES1   0.0000
    23 H11      4.8248   3.4119   4.3497   H         1 RES1   0.0000
    24 C9       6.4660   2.2973   5.1762   C.2       1 RES1   0.0000
    25 C10      7.3219   3.2941   5.6703   C.2       1 RES1   0.0000
    26 C11      8.5578   3.0226   6.2695   C.2       1 RES1   0.0000
    27 C12      9.5447   4.0333   6.5619   C.2       1 RES1   0.0000
    28 H12      9.4469   4.9706   6.4416   H         1 RES1   0.0000
    29 C13     10.6341   3.3938   7.0381   C.2       1 RES1   0.0000
    30 H13     11.4499   3.7961   7.3125   H         1 RES1   0.0000
    31 C14     10.3277   1.9935   7.0525   C.2       1 RES1   0.0000
    32 C15      5.2959  -1.0112   4.6771   C.2       1 RES1   0.0000
    33 C16      6.9291   4.7309   5.5331   C.ar      1 RES1   0.0000
    34 C17      6.6447   5.2986   4.2892   C.ar      1 RES1   0.0000
    35 H14      6.6268   4.7438   3.5178   H         1 RES1   0.0000
    36 C18      6.3878   6.6601   4.1576   C.ar      1 RES1   0.0000
    37 H15      6.1752   7.0336   3.3105   H         1 RES1   0.0000
    38 C19      6.4476   7.4589   5.2826   C.ar      1 RES1   0.0000
    39 C20      6.6736   6.9228   6.5402   C.ar      1 RES1   0.0000
    40 H16      6.6772   7.4804   7.3089   H         1 RES1   0.0000
    41 C21      6.8952   5.5580   6.6593   C.ar      1 RES1   0.0000
    42 H17      7.0258   5.1787   7.5211   H         1 RES1   0.0000
    43 C22      3.9709  -1.4644   4.1228   C.ar      1 RES1   0.0000
    44 C23      3.8135  -1.7560   2.7719   C.ar      1 RES1   0.0000
    45 H18      4.5495  -1.6467   2.1809   H         1 RES1   0.0000
    46 C24      2.5953  -2.2062   2.2708   C.ar      1 RES1   0.0000
    47 H19      2.4985  -2.4032   1.3466   H         1 RES1   0.0000
    48 C25      1.5331  -2.3631   3.1298   C.ar      1 RES1   0.0000
    49 C26      1.6476  -2.0669   4.4626   C.ar      1 RES1   0.0000
    50 H20      0.9033  -2.1663   5.0450   H         1 RES1   0.0000
    51 C27      2.8733  -1.6178   4.9510   C.ar      1 RES1   0.0000
    52 H21      2.9577  -1.4115   5.8744   H         1 RES1   0.0000
    53 Cl1     -0.0024  -2.9285   2.5057   Cl        1 RES1   0.0000
    54 Cl2      6.3186   9.1885   5.0952   Cl        1 RES1   0.0000
    55 N2B      9.8178  -0.9418   6.9272   N.2       1 RES1   0.0000
    56 N3B      7.4447  -1.7772   5.6247   N.2       1 RES1   0.0000
    57 C6B     10.9363  -0.3527   7.4856   C.2       1 RES1   0.0000
    58 C7B     11.8405  -1.3617   7.9668   C.2       1 RES1   0.0000
    59 H10B    12.6663  -1.2118   8.4128   H         1 RES1   0.0000
    60 C8B     11.2986  -2.5592   7.6678   C.2       1 RES1   0.0000
    61 H11B    11.6764  -3.4119   7.8480   H         1 RES1   0.0000
    62 C9B     10.0352  -2.2973   7.0215   C.2       1 RES1   0.0000
    63 C10B     9.1793  -3.2941   6.5274   C.2       1 RES1   0.0000
    64 C11B     7.9434  -3.0226   5.9282   C.2       1 RES1   0.0000
    65 C12B     6.9565  -4.0333   5.6358   C.2       1 RES1   0.0000
    66 H12B     7.0543  -4.9706   5.7561   H         1 RES1   0.0000
    67 C13B     5.8671  -3.3938   5.1596   C.2       1 RES1   0.0000
    68 H13B     5.0513  -3.7961   4.8852   H         1 RES1   0.0000
    69 C14B     6.1735  -1.9935   5.1452   C.2       1 RES1   0.0000
    70 C15B    11.2053   1.0112   7.5206   C.2       1 RES1   0.0000
    71 C16B     9.5721  -4.7309   6.6646   C.ar      1 RES1   0.0000
    72 C17B     9.8565  -5.2986   7.9085   C.ar      1 RES1   0.0000
    73 H14B     9.8744  -4.7438   8.6799   H         1 RES1   0.0000
    74 C18B    10.1134  -6.6601   8.0401   C.ar      1 RES1   0.0000
    75 H15B    10.3260  -7.0336   8.8872   H         1 RES1   0.0000
    76 C19B    10.0536  -7.4589   6.9151   C.ar      1 RES1   0.0000
    77 C20B     9.8276  -6.9228   5.6575   C.ar      1 RES1   0.0000
    78 H16B     9.8240  -7.4804   4.8888   H         1 RES1   0.0000
    79 C21B     9.6060  -5.5580   5.5384   C.ar      1 RES1   0.0000
    80 H17B     9.4754  -5.1787   4.6766   H         1 RES1   0.0000
    81 C22B    12.5303   1.4644   8.0749   C.ar      1 RES1   0.0000
    82 C23B    12.6877   1.7560   9.4258   C.ar      1 RES1   0.0000
    83 H18B    11.9517   1.6467  10.0167   H         1 RES1   0.0000
    84 C24B    13.9060   2.2062   9.9269   C.ar      1 RES1   0.0000
    85 H19B    14.0028   2.4032  10.8511   H         1 RES1   0.0000
    86 C25B    14.9681   2.3631   9.0679   C.ar      1 RES1   0.0000
    87 C26B    14.8536   2.0669   7.7350   C.ar      1 RES1   0.0000
    88 H20B    15.5979   2.1663   7.1527   H         1 RES1   0.0000
    89 C27B    13.6279   1.6178   7.2467   C.ar      1 RES1   0.0000
    90 H21B    13.5435   1.4115   6.3233   H         1 RES1   0.0000
    91 Cl1B    16.5036   2.9285   9.6920   Cl        1 RES1   0.0000
    92 Cl2B    10.1826  -9.1885   7.1025   Cl        1 RES1   0.0000
    93 C1B      7.2353  -0.2618   7.7125   C.1       1 RES1   0.0000
    94 N1B      6.5532  -0.6671   8.5568   N.1       1 RES1   0.0000
    95 C2B      5.6822  -1.5125   9.3745   C.3       1 RES1   0.0000
    96 C3B      6.4259  -2.8187   9.6059   C.3       1 RES1   0.0000
    97 H1B      5.8744  -3.4170  10.1521   H         1 RES1   0.0000
    98 H2B      6.6139  -3.2443   8.7433   H         1 RES1   0.0000
    99 H3B      7.2697  -2.6368  10.0704   H         1 RES1   0.0000
   100 C4B      4.4098  -1.7494   8.5774   C.3       1 RES1   0.0000
   101 H4B      3.7993  -2.3135   9.0958   H         1 RES1   0.0000
   102 H5B      3.9775  -0.8902   8.3884   H         1 RES1   0.0000
   103 H6B      4.6312  -2.1967   7.7333   H         1 RES1   0.0000
   104 C5B      5.3878  -0.8044  10.6903   C.3       1 RES1   0.0000
   105 H7B      4.8039  -1.3675  11.2402   H         1 RES1   0.0000
   106 H8B      6.2272  -0.6397  11.1670   H         1 RES1   0.0000
   107 H9B      4.9408   0.0491  10.5095   H         1 RES1   0.0000
@<TRIPOS>BOND
     1     1     2    1
     2     2     3    3
     3     3     4    1
     4     4     5    1
     5     5     6    1
     6     7     5    1
     7     8     5    1
     8     9     4    1
     9    10     9    1
    10    11     9    1
    11    12     9    1
    12    13     4    1
    13    14    13    1
    14    15    13    1
    15    16    13    1
    16    17     1    1
    17    18     1    1
    18    19    17    2
    19    20    19    1
    20    21    20    1
    21    22    20    2
    22    23    22    1
    23    24    17    1
    24    25    24    2
    25    26    18    1
    26    27    26    2
    27    28    27    1
    28    29    27    1
    29    30    29    1
    30    31    18    1
    31    32    19    1
    32    33    25    1
    33    34    33   ar
    34    35    34    1
    35    36    34   ar
    36    37    36    1
    37    38    36   ar
    38    39    38   ar
    39    40    39    1
    40    41    33   ar
    41    42    41    1
    42    43    32    1
    43    44    43   ar
    44    45    44    1
    45    46    44   ar
    46    47    46    1
    47    48    46   ar
    48    49    48   ar
    49    50    49    1
    50    51    43   ar
    51    52    51    1
    52    53    48    1
    53    54    38    1
    54    55     1    1
    55    56     1    1
    56    57    55    1
    57    58    57    1
    58    59    58    1
    59    60    58    2
    60    61    60    1
    61    62    55    2
    62    63    62    1
    63    64    56    1
    64    65    64    1
    65    66    65    1
    66    67    65    2
    67    68    67    1
    68    69    32    2
    69    70    31    1
    70    71    63    1
    71    72    71   ar
    72    73    72    1
    73    74    72   ar
    74    75    74    1
    75    76    74   ar
    76    77    76   ar
    77    78    77    1
    78    79    71   ar
    79    80    79    1
    80    81    70    1
    81    82    81   ar
    82    83    82    1
    83    84    82   ar
    84    85    84    1
    85    86    84   ar
    86    87    86   ar
    87    88    87    1
    88    89    81   ar
    89    90    89    1
    90    91    86    1
    91    92    76    1
    92    93     1    1
    93    94    93    3
    94    95    94    1
    95    96    95    1
    96    97    96    1
    97    98    96    1
    98    99    96    1
    99   100    95    1
   100   101   100    1
   101   102   100    1
   102   103   100    1
   103   104    95    1
   104   105   104    1
   105   106   104    1
   106   107   104    1
   107    22    24    1
   108    25    26    1
   109    29    31    2
   110    39    41   ar
   111    49    51   ar
   112    56    69    1
   113    57    70    2
   114    60    62    1
   115    63    64    2
   116    67    69    1
   117    77    79   ar
   118    87    89   ar
@<TRIPOS>SUBSTRUCTURE
     1 RES1        1 GROUP             0 ****  ****    0  
@<TRIPOS>CRYSIN
   10.9679   16.9240   13.3536   90.0000  114.0150   90.0000   231     1
