@<TRIPOS>MOLECULE
GIVBIW
    44    47     2     0     0
SMALL
USER_CHARGES
****
Generated from the CSD

@<TRIPOS>ATOM
     1 Fe1      4.5678   2.3504   0.2739   Fe        1 RES1   1.0000
     2 P1       3.4788   3.0942   2.0701   P.3       1 RES1   0.0000
     3 P2       2.7149   1.6662  -0.8626   P.3       1 RES1   0.0000
     4 P3       6.0199   1.6340  -1.2997   P.3       1 RES1   0.0000
     5 S1       4.5268   4.4682  -0.5101   S.3       1 RES1   0.0000
     6 C1       5.0216   0.9139   1.1129   C.1       1 RES1   0.0000
     7 C2       5.7689   3.7859   0.5970   C.2       1 RES1   0.0000
     8 C3       6.8080   4.4955   1.0337   C.2       1 RES1   0.0000
     9 C4       3.0429   4.8064   1.7288   C.2       1 RES1   0.0000
    10 C5       3.4797   5.4053   0.6412   C.2       1 RES1   0.0000
    11 C6       3.2585   6.8523   0.2242   C.3       1 RES1   0.0000
    12 C7       4.6001   7.5689   0.1308   C.3       1 RES1   0.0000
    13 C8       2.4481   7.5793   1.2893   C.3       1 RES1   0.0000
    14 C9       2.5801   6.8971  -1.0906   C.3       1 RES1   0.0000
    15 C10      1.1663   2.5454  -0.5247   C.3       1 RES1   0.0000
    16 C11      2.7852   1.8995  -2.6652   C.3       1 RES1   0.0000
    17 C12      2.2257  -0.0761  -0.6914   C.3       1 RES1   0.0000
    18 C13      5.8135  -0.0657  -1.8800   C.3       1 RES1   0.0000
    19 C14      6.2046   2.6101  -2.8205   C.3       1 RES1   0.0000
    20 C15      7.7283   1.6022  -0.6908   C.3       1 RES1   0.0000
    21 O1       5.3263  -0.0612   1.6432   O.2       1 RES1   0.0000
    22 C16      0.8412   3.0187   3.0528   C.ar      1 RES1   0.0000
    23 C17     -0.2764   2.3693   3.5773   C.ar      1 RES1   0.0000
    24 C18     -0.2632   0.9847   3.7468   C.ar      1 RES1   0.0000
    25 C19      0.8681   0.2495   3.3915   C.ar      1 RES1   0.0000
    26 C20      1.9859   0.8988   2.8670   C.ar      1 RES1   0.0000
    27 C21      1.9725   2.2834   2.6975   C.ar      1 RES1   0.0000
    28 C22      5.0077   4.4277   4.0084   C.ar      1 RES1   0.0000
    29 C23      5.8227   4.4927   5.1381   C.ar      1 RES1   0.0000
    30 C24      6.1159   3.3319   5.8539   C.ar      1 RES1   0.0000
    31 C25      5.5941   2.1063   5.4401   C.ar      1 RES1   0.0000
    32 C26      4.7790   2.0414   4.3103   C.ar      1 RES1   0.0000
    33 C27      4.4859   3.2021   3.5946   C.ar      1 RES1   0.0000
    34 C28      8.9361   4.9229   2.1585   C.ar      1 RES1   0.0000
    35 C29      9.9632   4.5615   3.0298   C.ar      1 RES1   0.0000
    36 C30      9.9164   3.3347   3.6922   C.ar      1 RES1   0.0000
    37 C31      8.8426   2.4694   3.4833   C.ar      1 RES1   0.0000
    38 C32      7.8153   2.8307   2.6120   C.ar      1 RES1   0.0000
    39 C33      7.8621   4.0576   1.9497   C.ar      1 RES1   0.0000
    40 B1      12.8906   1.2502   5.2190   B         2 RES2  -1.0000
    41 F1      11.6661   0.6314   5.1211   F         2 RES2   0.0000
    42 F2      13.4650   1.2548   3.9555   F         2 RES2   0.0000
    43 F3      12.7146   2.5359   5.5856   F         2 RES2   0.0000
    44 F4      13.6707   0.6475   6.1013   F         2 RES2   0.0000
@<TRIPOS>BOND
     1     1     2    1
     2     2     9    1
     3     3     1    1
     4     4     1    1
     5     5     1    1
     6     6     1    1
     7     7     1    1
     8     8     7    2
     9     9    10    2
    10    10     5    1
    11    11    10    1
    12    12    11    1
    13    13    11    1
    14    14    11    1
    15    15     3    1
    16    16     3    1
    17    17     3    1
    18    18     4    1
    19    19     4    1
    20    20     4    1
    21    21     6    3
    22    22    23   ar
    23    23    24   ar
    24    24    25   ar
    25    25    26   ar
    26    26    27   ar
    27    27     2    1
    28    28    29   ar
    29    29    30   ar
    30    30    31   ar
    31    31    32   ar
    32    32    33   ar
    33    33     2    1
    34    34    35   ar
    35    35    36   ar
    36    36    37   ar
    37    37    38   ar
    38    38    39   ar
    39    39     8    1
    40     5     7    1
    41    22    27   ar
    42    28    33   ar
    43    34    39   ar
    44    40    41    1
    45    42    40    1
    46    43    40    1
    47    44    40    1
@<TRIPOS>SUBSTRUCTURE
     1 RES1        1 GROUP             0 ****  ****    0  
     2 RES2       40 GROUP             0 ****  ****    0  
@<TRIPOS>CRYSIN
   17.0010   11.1420   20.4250   90.0000  113.4900   90.0000    14     1
