@<TRIPOS>MOLECULE
GIXBAQ
   111   120     3     0     0
SMALL
USER_CHARGES
****
Generated from the CSD

@<TRIPOS>ATOM
     1 Fe1      6.6593   0.0000  14.5076   Fe        1 RES1   3.0000
     2 N1       7.7793   1.5556  14.6010   N.ar      1 RES1   0.0000
     3 N2       7.9418  -0.4821  13.1419   N.2       1 RES1  -1.0000
     4 N3       9.8490   0.0972  12.0582   N.2       1 RES1   0.0000
     5 N4       5.6843   0.9563  15.8792   N.2       1 RES1  -1.0000
     6 N5       5.6710   2.7236  17.2741   N.2       1 RES1   0.0000
     7 C1       8.9047   1.5769  13.8422   C.ar      1 RES1   0.0000
     8 C2       9.7385   2.6570  13.9784   C.ar      1 RES1   0.0000
     9 C3       9.4708   3.6399  14.8772   C.ar      1 RES1   0.0000
    10 C4       8.3400   3.5773  15.6788   C.ar      1 RES1   0.0000
    11 C5       7.4797   2.4959  15.5329   C.ar      1 RES1   0.0000
    12 C6       8.9407   0.4169  13.0037   C.2       1 RES1   0.0000
    13 C7       8.2015  -1.4424  12.1983   C.2       1 RES1   0.0000
    14 C8       9.3523  -1.0815  11.5543   C.2       1 RES1   0.0000
    15 C9       6.2757   2.1350  16.2508   C.2       1 RES1   0.0000
    16 C10      4.6268   0.8084  16.6963   C.2       1 RES1   0.0000
    17 C11      4.6015   1.8966  17.5504   C.2       1 RES1   0.0000
    18 H1      10.6282   2.7170  13.4064   H         1 RES1   0.0000
    19 H2      10.1087   4.4617  14.9706   H         1 RES1   0.0000
    20 H3       8.1509   4.2886  16.3325   H         1 RES1   0.0000
    21 H4       7.6315  -2.2908  12.0232   H         1 RES1   0.0000
    22 H5       9.7758  -1.5849  10.8248   H         1 RES1   0.0000
    23 H6       3.9423  -0.0266  16.6768   H         1 RES1   0.0000
    24 H7       3.8490   2.0644  18.3344   H         1 RES1   0.0000
    25 N1B      5.5392  -1.5556  14.6010   N.ar      1 RES1   0.0000
    26 C1B      4.4138  -1.5769  13.8422   C.ar      1 RES1   0.0000
    27 C2B      3.5800  -2.6570  13.9784   C.ar      1 RES1   0.0000
    28 C3B      3.8477  -3.6399  14.8772   C.ar      1 RES1   0.0000
    29 C4B      4.9785  -3.5773  15.6788   C.ar      1 RES1   0.0000
    30 C5B      5.8388  -2.4959  15.5329   C.ar      1 RES1   0.0000
    31 C9B      7.0428  -2.1350  16.2508   C.2       1 RES1   0.0000
    32 N4B      7.6342  -0.9563  15.8792   N.2       1 RES1  -1.0000
    33 N2B      5.3767   0.4821  13.1419   N.2       1 RES1  -1.0000
    34 C6B      4.3778  -0.4169  13.0037   C.2       1 RES1   0.0000
    35 N3B      3.4695  -0.0972  12.0582   N.2       1 RES1   0.0000
    36 C8B      3.9662   1.0815  11.5543   C.2       1 RES1   0.0000
    37 C7B      5.1170   1.4424  12.1983   C.2       1 RES1   0.0000
    38 H4B      5.6870   2.2908  12.0232   H         1 RES1   0.0000
    39 H5B      3.5427   1.5849  10.8248   H         1 RES1   0.0000
    40 C10B     8.6917  -0.8084  16.6963   C.2       1 RES1   0.0000
    41 C11B     8.7170  -1.8966  17.5504   C.2       1 RES1   0.0000
    42 N5B      7.6475  -2.7236  17.2741   N.2       1 RES1   0.0000
    43 H7B      9.4695  -2.0644  18.3344   H         1 RES1   0.0000
    44 H6B      9.3762   0.0266  16.6768   H         1 RES1   0.0000
    45 H3B      5.1676  -4.2886  16.3325   H         1 RES1   0.0000
    46 H2B      3.2098  -4.4617  14.9706   H         1 RES1   0.0000
    47 H1B      2.6903  -2.7170  13.4064   H         1 RES1   0.0000
    48 Na1      6.6593   6.6593   0.0000   Na        2 RES2   1.0000
    49 O2       8.0084   8.0830  -1.0486   O.3       2 RES2   0.0000
    50 H15      7.7913   9.0566  -1.5175   H         2 RES2   0.0000
    51 H16      8.8968   7.6848  -1.4397   H         2 RES2   0.0000
    52 O2B      5.3101   5.2355  -1.0486   O.3       2 RES2   0.0000
    53 H15B     5.5272   4.2619  -1.5175   H         2 RES2   0.0000
    54 H16B     4.4217   5.6337  -1.4397   H         2 RES2   0.0000
    55 O2E      5.2355   8.0084   1.0486   O.3       2 RES2   0.0000
    56 H15E     4.2619   7.7913   1.5175   H         2 RES2   0.0000
    57 H16E     5.6337   8.8968   1.4397   H         2 RES2   0.0000
    58 O2F      8.0830   5.3101   1.0486   O.3       2 RES2   0.0000
    59 H15F     9.0566   5.5272   1.5175   H         2 RES2   0.0000
    60 H16F     7.6848   4.4217   1.4397   H         2 RES2   0.0000
    61 Na2      6.6593   6.6593   9.7275   Na        3 RES3   1.0000
    62 O1       6.6593   6.6593  12.1030   O.3       3 RES3   0.0000
    63 C12      6.0373   5.7123  12.9298   C.3       3 RES3   0.0000
    64 C13      6.0533   6.1864  14.2761   C.3       3 RES3   0.0000
    65 N6       5.7975   9.0539   9.7508   N.1       3 RES3   0.0000
    66 C14      5.4593  10.0821   9.6964   C.1       3 RES3   0.0000
    67 C15      5.0171  11.4473   9.6186   C.3       3 RES3   0.0000
    68 H8       5.0360   5.5408  12.6568   H         3 RES3   0.0000
    69 H9       6.6241   4.7825  12.9238   H         3 RES3   0.0000
    70 H10      5.1435   6.7229  14.5428   H         3 RES3   0.0000
    71 H11      6.2051   5.3763  15.0198   H         3 RES3   0.0000
    72 H12      4.7813  11.6803   8.6380   H         3 RES3   0.0000
    73 H13      4.1421  11.5605  10.2139   H         3 RES3   0.0000
    74 H14      5.7536  12.0666   9.9415   H         3 RES3   0.0000
    75 C13B     7.2652   7.1321  14.2761   C.3       3 RES3   0.0000
    76 C12B     7.2812   7.6062  12.9298   C.3       3 RES3   0.0000
    77 H8B      8.2825   7.7777  12.6568   H         3 RES3   0.0000
    78 H9B      6.6944   8.5360  12.9238   H         3 RES3   0.0000
    79 H10B     8.1750   6.5956  14.5428   H         3 RES3   0.0000
    80 H11B     7.1134   7.9422  15.0198   H         3 RES3   0.0000
    81 O1E      6.6593   6.6593   7.3520   O.3       3 RES3   0.0000
    82 C12E     7.6062   6.0373   6.5252   C.3       3 RES3   0.0000
    83 C13E     7.1321   6.0533   5.1789   C.3       3 RES3   0.0000
    84 C13F     6.1864   7.2652   5.1789   C.3       3 RES3   0.0000
    85 C12F     5.7123   7.2812   6.5252   C.3       3 RES3   0.0000
    86 H8F      5.5408   8.2825   6.7982   H         3 RES3   0.0000
    87 H9F      4.7825   6.6944   6.5312   H         3 RES3   0.0000
    88 H10F     6.7229   8.1750   4.9122   H         3 RES3   0.0000
    89 H11F     5.3763   7.1134   4.4352   H         3 RES3   0.0000
    90 H10E     6.5956   5.1435   4.9122   H         3 RES3   0.0000
    91 H11E     7.9422   6.2051   4.4352   H         3 RES3   0.0000
    92 H8E      7.7777   5.0360   6.7982   H         3 RES3   0.0000
    93 H9E      8.5360   6.6241   6.5312   H         3 RES3   0.0000
    94 N6B      7.5210   4.2646   9.7508   N.1       3 RES3   0.0000
    95 C14B     7.8592   3.2364   9.6964   C.1       3 RES3   0.0000
    96 C15B     8.3014   1.8712   9.6186   C.3       3 RES3   0.0000
    97 H12B     8.5372   1.6382   8.6380   H         3 RES3   0.0000
    98 H13B     9.1764   1.7580  10.2139   H         3 RES3   0.0000
    99 H14B     7.5649   1.2519   9.9415   H         3 RES3   0.0000
   100 N6E      4.2646   5.7975   9.7042   N.1       3 RES3   0.0000
   101 C14E     3.2364   5.4593   9.7586   C.1       3 RES3   0.0000
   102 C15E     1.8712   5.0171   9.8364   C.3       3 RES3   0.0000
   103 H12E     1.6382   4.7813  10.8170   H         3 RES3   0.0000
   104 H13E     1.7580   4.1421   9.2411   H         3 RES3   0.0000
   105 H14E     1.2519   5.7536   9.5135   H         3 RES3   0.0000
   106 N6F      9.0539   7.5210   9.7042   N.1       3 RES3   0.0000
   107 C14F    10.0821   7.8592   9.7586   C.1       3 RES3   0.0000
   108 C15F    11.4473   8.3014   9.8364   C.3       3 RES3   0.0000
   109 H12F    11.6803   8.5372  10.8170   H         3 RES3   0.0000
   110 H13F    11.5605   9.1764   9.2411   H         3 RES3   0.0000
   111 H14F    12.0666   7.5649   9.5135   H         3 RES3   0.0000
@<TRIPOS>BOND
     1     1     2    1
     2     2     7   ar
     3     3     1    1
     4     4    12    2
     5     5     1    1
     6     6    15    2
     7     7     8   ar
     8     8     9   ar
     9     9    10   ar
    10    10    11   ar
    11    11     2   ar
    12    12     3    1
    13    13     3    1
    14    14     4    1
    15    15     5    1
    16    16     5    1
    17    17     6    1
    18    18     8    1
    19    19     9    1
    20    20    10    1
    21    21    13    1
    22    22    14    1
    23    23    16    1
    24    24    17    1
    25    25     1    1
    26    26    25   ar
    27    27    26   ar
    28    28    27   ar
    29    29    28   ar
    30    30    25   ar
    31    31    30    1
    32    32     1    1
    33    33     1    1
    34    34    26    1
    35    35    34    2
    36    36    35    1
    37    37    33    1
    38    38    37    1
    39    39    36    1
    40    40    32    1
    41    41    40    2
    42    42    31    2
    43    43    41    1
    44    44    40    1
    45    45    29    1
    46    46    28    1
    47    47    27    1
    48     7    12    1
    49    11    15    1
    50    13    14    2
    51    16    17    2
    52    29    30   ar
    53    31    32    1
    54    33    34    1
    55    36    37    2
    56    41    42    1
    57    48    49    1
    58    49    50    1
    59    51    49    1
    60    52    48    1
    61    53    52    1
    62    54    52    1
    63    55    48    1
    64    56    55    1
    65    57    55    1
    66    58    48    1
    67    59    58    1
    68    60    58    1
    69    61    62    1
    70    62    63    1
    71    63    64    1
    72    64    70    1
    73    65    61    1
    74    66    65    3
    75    67    66    1
    76    68    63    1
    77    69    63    1
    78    71    64    1
    79    72    67    1
    80    73    67    1
    81    74    67    1
    82    75    64    1
    83    76    62    1
    84    77    76    1
    85    78    76    1
    86    79    75    1
    87    80    75    1
    88    81    61    1
    89    82    81    1
    90    83    82    1
    91    84    83    1
    92    85    81    1
    93    86    85    1
    94    87    85    1
    95    88    84    1
    96    89    84    1
    97    90    83    1
    98    91    83    1
    99    92    82    1
   100    93    82    1
   101    94    61    1
   102    95    94    3
   103    96    95    1
   104    97    96    1
   105    98    96    1
   106    99    96    1
   107   100    61    1
   108   101   100    3
   109   102   101    1
   110   103   102    1
   111   104   102    1
   112   105   102    1
   113   106    61    1
   114   107   106    3
   115   108   107    1
   116   109   108    1
   117   110   108    1
   118   111   108    1
   119    75    76    1
   120    84    85    1
@<TRIPOS>SUBSTRUCTURE
     1 RES1        1 GROUP             0 ****  ****    0  
     2 RES2       48 GROUP             0 ****  ****    0  
     3 RES3       61 GROUP             0 ****  ****    0  
@<TRIPOS>CRYSIN
   13.3185   13.3185   19.4550   90.0000   90.0000   90.0000   114     1
