@<TRIPOS>MOLECULE
GIYDUO
    78    83     2     0     0
SMALL
NO_CHARGES
****
Generated from the CSD

@<TRIPOS>ATOM
     1 Fe1      3.0456   9.1434   4.1535   Fe        1 RES1   0.0000
     2 N1       0.9283   9.0928   3.3967   N.ar      1 RES1   0.0000
     3 C1       0.3936   9.6184   2.2670   C.ar      1 RES1   0.0000
     4 C2      -0.9673   9.4764   1.9803   C.ar      1 RES1   0.0000
     5 H1      -1.3262   9.8439   1.1809   H         1 RES1   0.0000
     6 C3      -1.7831   8.8065   2.8538   C.ar      1 RES1   0.0000
     7 H2      -2.7091   8.7062   2.6641   H         1 RES1   0.0000
     8 C4      -1.2476   8.2795   4.0095   C.ar      1 RES1   0.0000
     9 H3      -1.7968   7.8118   4.6281   H         1 RES1   0.0000
    10 C5       0.1068   8.4456   4.2519   C.ar      1 RES1   0.0000
    11 C6       0.7062   7.9095   5.5207   C.3       1 RES1   0.0000
    12 H4       0.6448   8.5991   6.2280   H         1 RES1   0.0000
    13 H5       0.1893   7.1198   5.8178   H         1 RES1   0.0000
    14 N2       2.1295   7.5238   5.3306   N.3       1 RES1   0.0000
    15 C7       2.7278   7.1497   6.6372   C.3       1 RES1   0.0000
    16 H6       2.4416   7.7810   7.3434   H         1 RES1   0.0000
    17 H7       3.7161   7.1623   6.5833   H         1 RES1   0.0000
    18 C8       2.2259   5.7426   6.9406   C.3       1 RES1   0.0000
    19 H8       1.3628   5.7724   7.4248   H         1 RES1   0.0000
    20 H9       2.8833   5.2431   7.4866   H         1 RES1   0.0000
    21 C9       2.0596   5.0998   5.5659   C.3       1 RES1   0.0000
    22 H10      1.1710   4.6698   5.4890   H         1 RES1   0.0000
    23 H11      2.7584   4.4147   5.4165   H         1 RES1   0.0000
    24 C10      2.1974   6.2503   4.5332   C.3       1 RES1   0.0000
    25 H12      1.4410   6.2151   3.8803   H         1 RES1   0.0000
    26 C11      3.5282   6.1747   3.7916   C.3       1 RES1   0.0000
    27 H13      4.2726   6.0715   4.4513   H         1 RES1   0.0000
    28 C12      3.5613   4.9954   2.7845   C.3       1 RES1   0.0000
    29 H14      4.4139   4.4982   2.8603   H         1 RES1   0.0000
    30 H15      2.8126   4.3707   2.9558   H         1 RES1   0.0000
    31 C13      3.4271   5.6298   1.3888   C.3       1 RES1   0.0000
    32 H16      4.2726   5.5466   0.8804   H         1 RES1   0.0000
    33 H17      2.6991   5.1991   0.8733   H         1 RES1   0.0000
    34 C14      3.1003   7.1013   1.6729   C.3       1 RES1   0.0000
    35 H18      3.4612   7.6828   0.9564   H         1 RES1   0.0000
    36 H19      2.1211   7.2371   1.7289   H         1 RES1   0.0000
    37 N3       3.7478   7.4133   2.9761   N.3       1 RES1   0.0000
    38 C15      5.2044   7.6235   2.7829   C.3       1 RES1   0.0000
    39 H20      5.3451   8.3176   2.0913   H         1 RES1   0.0000
    40 H21      5.6151   6.7825   2.4590   H         1 RES1   0.0000
    41 C16      5.8830   8.0461   4.0509   C.ar      1 RES1   0.0000
    42 C17      7.1999   7.6881   4.2945   C.ar      1 RES1   0.0000
    43 H22      7.6719   7.1374   3.6806   H         1 RES1   0.0000
    44 C18      7.8136   8.1449   5.4439   C.ar      1 RES1   0.0000
    45 H23      8.7117   7.9042   5.6393   H         1 RES1   0.0000
    46 C19      7.1088   8.9510   6.2985   C.ar      1 RES1   0.0000
    47 H24      7.5230   9.2853   7.0853   H         1 RES1   0.0000
    48 C20      5.7847   9.2811   6.0155   C.ar      1 RES1   0.0000
    49 N4       5.1720   8.8156   4.9030   N.ar      1 RES1   0.0000
    50 C21      1.2900  10.3894   1.3517   C.3       1 RES1   0.0000
    51 H25      2.0719   9.8439   1.1243   H         1 RES1   0.0000
    52 H26      1.5836  11.2119   1.7979   H         1 RES1   0.0000
    53 H27      0.8025  10.6181   0.5339   H         1 RES1   0.0000
    54 C22      5.0196  10.1844   6.9326   C.3       1 RES1   0.0000
    55 H28      5.5457  10.3498   7.7430   H         1 RES1   0.0000
    56 H29      4.1703   9.7604   7.1755   H         1 RES1   0.0000
    57 H30      4.8416  11.0345   6.4790   H         1 RES1   0.0000
    58 O1       3.9581  10.6936   3.0735   O.3       1 RES1   0.0000
    59 S1       4.6529  11.4017   2.0199   S.o2      1 RES1   0.0000
    60 O2       4.1542  12.7055   1.7678   O.2       1 RES1   0.0000
    61 O3       4.9480  10.5889   0.8857   O.2       1 RES1   0.0000
    62 C23      6.2902  11.6989   2.7818   C.3       1 RES1   0.0000
    63 F1       6.1725  12.0929   4.0426   F         1 RES1   0.0000
    64 F2       6.9589  12.6436   2.1249   F         1 RES1   0.0000
    65 F3       7.0368  10.6003   2.7864   F         1 RES1   0.0000
    66 O4       2.3293  10.5980   5.5168   O.3       1 RES1   0.0000
    67 S2       1.9484  12.0118   5.5037   S.o2      1 RES1   0.0000
    68 O5       1.1242  12.4005   4.4022   O.2       1 RES1   0.0000
    69 O6       3.0005  12.9047   5.8742   O.2       1 RES1   0.0000
    70 C24      0.8285  12.0381   6.9409   C.3       1 RES1   0.0000
    71 F4       0.3815  13.2724   7.1896   F         1 RES1   0.0000
    72 F5      -0.2409  11.2781   6.7346   F         1 RES1   0.0000
    73 F6       1.4231  11.5962   8.0380   F         1 RES1   0.0000
    74 C25      2.6587   0.2799  -0.0097   C.3       2 RES2   0.0000
    75 H31      3.0372   0.5997  -0.8680   H         2 RES2   0.0000
    76 H32      3.3893  -0.1481   0.5038   H         2 RES2   0.0000
    77 Cl1      2.0387   1.6607   0.9019   Cl        2 RES2   0.0000
    78 Cl2      1.4069  -0.9117  -0.3368   Cl        2 RES2   0.0000
@<TRIPOS>BOND
     1     1     2    1
     2     2     3   ar
     3     3     4   ar
     4     4     5    1
     5     6     4   ar
     6     7     6    1
     7     8     6   ar
     8     9     8    1
     9    10     2   ar
    10    11    10    1
    11    12    11    1
    12    13    11    1
    13    14     1    1
    14    15    14    1
    15    16    15    1
    16    17    15    1
    17    18    15    1
    18    19    18    1
    19    20    18    1
    20    21    18    1
    21    22    21    1
    22    23    21    1
    23    24    14    1
    24    25    24    1
    25    26    24    1
    26    27    26    1
    27    28    26    1
    28    29    28    1
    29    30    28    1
    30    31    28    1
    31    32    31    1
    32    33    31    1
    33    34    31    1
    34    35    34    1
    35    36    34    1
    36    37     1    1
    37    38    37    1
    38    39    38    1
    39    40    38    1
    40    41    38    1
    41    42    41   ar
    42    43    42    1
    43    44    42   ar
    44    45    44    1
    45    46    44   ar
    46    47    46    1
    47    48    46   ar
    48    49     1    1
    49    50     3    1
    50    51    50    1
    51    52    50    1
    52    53    50    1
    53    54    48    1
    54    55    54    1
    55    56    54    1
    56    57    54    1
    57    58     1    1
    58    59    58    1
    59    60    59    2
    60    61    59    2
    61    62    59    1
    62    63    62    1
    63    64    62    1
    64    65    62    1
    65    66     1    1
    66    67    66    1
    67    68    67    2
    68    69    67    2
    69    70    67    1
    70    71    70    1
    71    72    70    1
    72    73    70    1
    73     8    10   ar
    74    11    14    1
    75    21    24    1
    76    26    37    1
    77    34    37    1
    78    41    49   ar
    79    48    49   ar
    80    74    75    1
    81    76    74    1
    82    77    74    1
    83    78    74    1
@<TRIPOS>SUBSTRUCTURE
     1 RES1        1 GROUP             0 ****  ****    0  
     2 RES2       74 GROUP             0 ****  ****    0  
@<TRIPOS>CRYSIN
   12.6183   14.6618   17.6780   90.0000   90.0000   90.0000    19     1
