@<TRIPOS>MOLECULE
GOCDAH
    94   103     3     0     0
SMALL
NO_CHARGES
****
Generated from the CSD

@<TRIPOS>ATOM
     1 Fe1      6.3598   7.8596  27.5512   Fe        1 RES1   0.0000
     2 N1       8.4547   7.9112  28.0586   N.ar      1 RES1   0.0000
     3 O1       8.2499   1.1628  20.7182   O.3       1 RES1   0.0000
     4 N2       7.2857   6.4616  26.2181   N.2       1 RES1   0.0000
     5 N3       7.9522   9.5654  29.5691   N.pl3     1 RES1   0.0000
     6 N4       6.9283   5.5970  25.2245   N.2       1 RES1   0.0000
     7 O2       6.2822   2.8293  20.8104   O.3       1 RES1   0.0000
     8 N5       6.6319   9.3876  29.1911   N.2       1 RES1   0.0000
     9 N6       9.1135   5.2464  25.6925   N.2       1 RES1   0.0000
    10 C1       8.5920   6.2210  26.4529   C.2       1 RES1   0.0000
    11 C2       9.2929   7.0713  27.4183   C.ar      1 RES1   0.0000
    12 C3       8.2702   2.0315  21.7651   C.ar      1 RES1   0.0000
    13 C4       8.9380   8.7789  28.9288   C.ar      1 RES1   0.0000
    14 C5       7.1153   3.8564  22.8543   C.ar      1 RES1   0.0000
    15 H1       6.3827   4.4602  22.8861   H         1 RES1   0.0000
    16 C6       8.0527  10.4352  30.5914   C.2       1 RES1   0.0000
    17 H2       8.8588  10.7135  31.0109   H         1 RES1   0.0000
    18 C7       9.1568   2.9918  23.7855   C.ar      1 RES1   0.0000
    19 H3       9.8356   3.0020  24.4506   H         1 RES1   0.0000
    20 C8      10.6577   7.1216  27.6464   C.ar      1 RES1   0.0000
    21 H4      11.2474   6.5276  27.1965   H         1 RES1   0.0000
    22 C9       8.0438   4.9020  24.9251   C.2       1 RES1   0.0000
    23 C10     10.2990   8.9167  29.2113   C.ar      1 RES1   0.0000
    24 H5      10.6275   9.5628  29.8254   H         1 RES1   0.0000
    25 C11      5.9553  10.1617  30.0191   C.2       1 RES1   0.0000
    26 H6       5.0089  10.2471  30.0092   H         1 RES1   0.0000
    27 C12      9.2305   2.0716  22.7588   C.ar      1 RES1   0.0000
    28 H7       9.9538   1.4565  22.7345   H         1 RES1   0.0000
    29 C13      8.1112   3.9016  23.8660   C.ar      1 RES1   0.0000
    30 C14      6.7960  10.8444  30.9187   C.2       1 RES1   0.0000
    31 H8       6.5427  11.4548  31.6016   H         1 RES1   0.0000
    32 C15      7.2043   2.9383  21.8239   C.ar      1 RES1   0.0000
    33 C16     11.1385   8.0449  28.5346   C.ar      1 RES1   0.0000
    34 H9      12.0747   8.0908  28.6917   H         1 RES1   0.0000
    35 C17      9.2636   0.1614  20.6778   C.3       1 RES1   0.0000
    36 H10      9.1598  -0.3755  19.8649   H         1 RES1   0.0000
    37 H11      9.1822  -0.4170  21.4645   H         1 RES1   0.0000
    38 H12     10.1449   0.5897  20.6767   H         1 RES1   0.0000
    39 C18      5.1667   3.7341  20.8622   C.3       1 RES1   0.0000
    40 H13      4.5497   3.5345  20.1277   H         1 RES1   0.0000
    41 H14      5.4896   4.6556  20.7763   H         1 RES1   0.0000
    42 H15      4.7010   3.6298  21.7180   H         1 RES1   0.0000
    43 N1B      4.2648   7.9112  27.0439   N.ar      1 RES1   0.0000
    44 O1B      4.4696   1.1628  34.3843   O.3       1 RES1   0.0000
    45 N2B      5.4338   6.4616  28.8844   N.2       1 RES1   0.0000
    46 N3B      4.7673   9.5654  25.5334   N.pl3     1 RES1   0.0000
    47 N4B      5.7912   5.5970  29.8780   N.2       1 RES1   0.0000
    48 O2B      6.4373   2.8293  34.2921   O.3       1 RES1   0.0000
    49 N5B      6.0876   9.3876  25.9114   N.2       1 RES1   0.0000
    50 N6B      3.6060   5.2464  29.4100   N.2       1 RES1   0.0000
    51 C1B      4.1275   6.2210  28.6496   C.2       1 RES1   0.0000
    52 C2B      3.4266   7.0713  27.6842   C.ar      1 RES1   0.0000
    53 C3B      4.4493   2.0315  33.3374   C.ar      1 RES1   0.0000
    54 C4B      3.7815   8.7789  26.1737   C.ar      1 RES1   0.0000
    55 C5B      5.6042   3.8564  32.2482   C.ar      1 RES1   0.0000
    56 H1B      6.3368   4.4602  32.2164   H         1 RES1   0.0000
    57 C6B      4.6668  10.4352  24.5111   C.2       1 RES1   0.0000
    58 H2B      3.8607  10.7135  24.0916   H         1 RES1   0.0000
    59 C7B      3.5627   2.9918  31.3170   C.ar      1 RES1   0.0000
    60 H3B      2.8839   3.0020  30.6519   H         1 RES1   0.0000
    61 C8B      2.0618   7.1216  27.4561   C.ar      1 RES1   0.0000
    62 H4B      1.4721   6.5276  27.9060   H         1 RES1   0.0000
    63 C9B      4.6757   4.9020  30.1774   C.2       1 RES1   0.0000
    64 C10B     2.4205   8.9167  25.8912   C.ar      1 RES1   0.0000
    65 H5B      2.0920   9.5628  25.2771   H         1 RES1   0.0000
    66 C11B     6.7642  10.1617  25.0834   C.2       1 RES1   0.0000
    67 H6B      7.7106  10.2471  25.0933   H         1 RES1   0.0000
    68 C12B     3.4890   2.0716  32.3437   C.ar      1 RES1   0.0000
    69 H7B      2.7657   1.4565  32.3680   H         1 RES1   0.0000
    70 C13B     4.6083   3.9016  31.2365   C.ar      1 RES1   0.0000
    71 C14B     5.9235  10.8444  24.1838   C.2       1 RES1   0.0000
    72 H8B      6.1768  11.4548  23.5009   H         1 RES1   0.0000
    73 C15B     5.5152   2.9383  33.2786   C.ar      1 RES1   0.0000
    74 C16B     1.5810   8.0449  26.5679   C.ar      1 RES1   0.0000
    75 H9B      0.6448   8.0908  26.4108   H         1 RES1   0.0000
    76 C17B     3.4559   0.1614  34.4247   C.3       1 RES1   0.0000
    77 H10B     3.5597  -0.3755  35.2376   H         1 RES1   0.0000
    78 H11B     3.5373  -0.4170  33.6380   H         1 RES1   0.0000
    79 H12B     2.5746   0.5897  34.4258   H         1 RES1   0.0000
    80 C18B     7.5528   3.7341  34.2403   C.3       1 RES1   0.0000
    81 H13B     8.1698   3.5345  34.9748   H         1 RES1   0.0000
    82 H14B     7.2299   4.6556  34.3262   H         1 RES1   0.0000
    83 H15B     8.0185   3.6298  33.3845   H         1 RES1   0.0000
    84 Cl1      8.5079   3.1565  17.8132   Cl        2 RES2   0.0000
    85 Cl2      5.7362   2.6474  17.2618   Cl        2 RES2   0.0000
    86 Cl3      7.6626   0.5427  16.9690   Cl        2 RES2   0.0000
    87 C19      7.2183   1.9770  17.8944   C.3       2 RES2   0.0000
    88 H16      7.0758   1.7166  18.8494   H         2 RES2   0.0000
    89 O3       4.6668   6.3681  23.8127   O.3       3 RES3   0.0000
    90 H17      5.3561   6.1118  24.2188   H         3 RES3   0.0000
    91 C20      5.0267   7.2615  22.8047   C.3       3 RES3   0.0000
    92 H18      5.5148   6.7829  22.1028   H         3 RES3   0.0000
    93 H19      5.5978   7.9641  23.1793   H         3 RES3   0.0000
    94 H20      4.2192   7.6659  22.4233   H         3 RES3   0.0000
@<TRIPOS>BOND
     1     1     2    1
     2     2    11   ar
     3     3    12    1
     4     4     1    1
     5     5     8    1
     6     6     4    1
     7     7    32    1
     8     8     1    1
     9     9    10    2
    10    10     4    1
    11    11    10    1
    12    12    27   ar
    13    13     2   ar
    14    14    15    1
    15    16     5    1
    16    17    16    1
    17    18    19    1
    18    20    11   ar
    19    21    20    1
    20    22     6    2
    21    23    13   ar
    22    24    23    1
    23    25     8    2
    24    26    25    1
    25    27    18   ar
    26    28    27    1
    27    29    14   ar
    28    30    16    2
    29    31    30    1
    30    32    12   ar
    31    33    20   ar
    32    34    33    1
    33    35     3    1
    34    36    35    1
    35    37    35    1
    36    38    35    1
    37    39     7    1
    38    40    39    1
    39    41    39    1
    40    42    39    1
    41    43     1    1
    42    44    53    1
    43    45     1    1
    44    46    49    1
    45    47    45    1
    46    48    73    1
    47    49     1    1
    48    50    51    2
    49    51    45    1
    50    52    43   ar
    51    53    68   ar
    52    54    43   ar
    53    55    56    1
    54    57    46    1
    55    58    57    1
    56    59    60    1
    57    61    52   ar
    58    62    61    1
    59    63    47    2
    60    64    54   ar
    61    65    64    1
    62    66    49    2
    63    67    66    1
    64    68    59   ar
    65    69    68    1
    66    70    55   ar
    67    71    57    2
    68    72    71    1
    69    73    53   ar
    70    74    61   ar
    71    75    74    1
    72    76    44    1
    73    77    76    1
    74    78    76    1
    75    79    76    1
    76    80    48    1
    77    81    80    1
    78    82    80    1
    79    83    80    1
    80     5    13    1
    81     9    22    1
    82    14    32   ar
    83    18    29   ar
    84    22    29    1
    85    23    33   ar
    86    25    30    1
    87    46    54    1
    88    50    63    1
    89    51    52    1
    90    55    73   ar
    91    59    70   ar
    92    63    70    1
    93    64    74   ar
    94    66    71    1
    95    84    87    1
    96    85    87    1
    97    86    87    1
    98    87    88    1
    99    89    90    1
   100    91    89    1
   101    92    91    1
   102    93    91    1
   103    94    91    1
@<TRIPOS>SUBSTRUCTURE
     1 RES1        1 GROUP             0 ****  ****    0  
     2 RES2       84 GROUP             0 ****  ****    0  
     3 RES3       89 GROUP             0 ****  ****    0  
@<TRIPOS>CRYSIN
   12.7195   10.2810   36.7350   90.0000   90.0000   90.0000    60     1
