@<TRIPOS>MOLECULE
GOCDEH
    75    76     1     0     0
SMALL
NO_CHARGES
****
Generated from the CSD

@<TRIPOS>ATOM
     1 Fe1      0.0000   0.0000   0.0000   Fe        1 RES1   0.0000
     2 I1      -2.1627   1.6241   0.0655   I         1 RES1   0.0000
     3 C1       2.5423   0.9720   2.2890   C.3       1 RES1   0.0000
     4 C2       3.2086   1.9389   3.2423   C.3       1 RES1   0.0000
     5 C3      -0.1283   1.6985   3.1678   C.3       1 RES1   0.0000
     6 C4      -0.0284   3.0638   3.8171   C.3       1 RES1   0.0000
     7 P1       0.8567   1.3497   1.6471   P.3       1 RES1   0.0000
     8 C5       1.1366   3.0153   0.9120   C.3       1 RES1   0.0000
     9 C6       1.8869   2.7982  -0.3926   C.3       1 RES1   0.0000
    10 P2       1.0414   1.5179  -1.4176   P.3       1 RES1   0.0000
    11 C7       2.4287   0.9988  -2.5226   C.3       1 RES1   0.0000
    12 C8       3.2320   2.0974  -3.2021   C.3       1 RES1   0.0000
    13 C9       0.0835   2.6421  -2.5316   C.3       1 RES1   0.0000
    14 C10     -0.5743   1.9895  -3.7346   C.3       1 RES1   0.0000
    15 H1       2.5124   0.2130   2.6041   H         1 RES1   0.0000
    16 H2       3.1488   0.8238   1.4314   H         1 RES1   0.0000
    17 H3       2.7048   1.9310   4.1362   H         1 RES1   0.0000
    18 H4       4.0426   1.6513   3.3621   H         1 RES1   0.0000
    19 H5       3.1215   2.8400   2.8638   H         1 RES1   0.0000
    20 H6       0.2256   0.9442   3.8654   H         1 RES1   0.0000
    21 H7      -1.1382   1.5724   2.8679   H         1 RES1   0.0000
    22 H8      -0.6754   3.1437   4.4885   H         1 RES1   0.0000
    23 H9      -0.1698   3.6212   3.1980   H         1 RES1   0.0000
    24 H10      1.1527   2.9590   4.4382   H         1 RES1   0.0000
    25 H11      1.7042   3.5226   1.5945   H         1 RES1   0.0000
    26 H12      0.2951   3.4916   0.8325   H         1 RES1   0.0000
    27 H13      2.8374   2.6699  -0.1701   H         1 RES1   0.0000
    28 H14      2.0528   3.5936  -0.8748   H         1 RES1   0.0000
    29 H15      2.1364   0.3475  -3.0490   H         1 RES1   0.0000
    30 H16      3.1355   0.5610  -1.8703   H         1 RES1   0.0000
    31 H17      2.7626   2.7105  -3.6993   H         1 RES1   0.0000
    32 H18      3.8067   2.5404  -2.5135   H         1 RES1   0.0000
    33 H19      4.0705   1.6579  -3.7819   H         1 RES1   0.0000
    34 H20      0.5221   3.3029  -2.9212   H         1 RES1   0.0000
    35 H21     -0.6645   3.2318  -1.9659   H         1 RES1   0.0000
    36 H22     -1.0512   2.6947  -4.4553   H         1 RES1   0.0000
    37 H23      0.2868   1.3848  -4.4281   H         1 RES1   0.0000
    38 H24     -1.2629   1.4344  -3.4356   H         1 RES1   0.0000
    39 I1A      2.1627  -1.6241  -0.0655   I         1 RES1   0.0000
    40 P1A     -0.8567  -1.3497  -1.6471   P.3       1 RES1   0.0000
    41 P2A     -1.0414  -1.5179   1.4176   P.3       1 RES1   0.0000
    42 C1A     -2.5423  -0.9720  -2.2890   C.3       1 RES1   0.0000
    43 C3A      0.1283  -1.6985  -3.1678   C.3       1 RES1   0.0000
    44 C5A     -1.1366  -3.0153  -0.9120   C.3       1 RES1   0.0000
    45 C6A     -1.8869  -2.7982   0.3926   C.3       1 RES1   0.0000
    46 C7A     -2.4287  -0.9988   2.5226   C.3       1 RES1   0.0000
    47 C9A     -0.0835  -2.6421   2.5316   C.3       1 RES1   0.0000
    48 C2A     -3.2086  -1.9389  -3.2423   C.3       1 RES1   0.0000
    49 H1A     -2.5124  -0.2130  -2.6041   H         1 RES1   0.0000
    50 H2A     -3.1488  -0.8238  -1.4314   H         1 RES1   0.0000
    51 C4A      0.0284  -3.0638  -3.8171   C.3       1 RES1   0.0000
    52 H6A     -0.2256  -0.9442  -3.8654   H         1 RES1   0.0000
    53 H7A      1.1382  -1.5724  -2.8679   H         1 RES1   0.0000
    54 H11A    -1.7042  -3.5226  -1.5945   H         1 RES1   0.0000
    55 H12A    -0.2951  -3.4916  -0.8325   H         1 RES1   0.0000
    56 H13A    -2.8374  -2.6699   0.1701   H         1 RES1   0.0000
    57 H14A    -2.0528  -3.5936   0.8748   H         1 RES1   0.0000
    58 C8A     -3.2320  -2.0974   3.2021   C.3       1 RES1   0.0000
    59 H15A    -2.1364  -0.3475   3.0490   H         1 RES1   0.0000
    60 H16A    -3.1355  -0.5610   1.8703   H         1 RES1   0.0000
    61 C10A     0.5743  -1.9895   3.7346   C.3       1 RES1   0.0000
    62 H20A    -0.5221  -3.3029   2.9212   H         1 RES1   0.0000
    63 H21A     0.6645  -3.2318   1.9659   H         1 RES1   0.0000
    64 H3A     -2.7048  -1.9310  -4.1362   H         1 RES1   0.0000
    65 H4A     -4.0426  -1.6513  -3.3621   H         1 RES1   0.0000
    66 H5A     -3.1215  -2.8400  -2.8638   H         1 RES1   0.0000
    67 H8A      0.6754  -3.1437  -4.4885   H         1 RES1   0.0000
    68 H9A      0.1698  -3.6212  -3.1980   H         1 RES1   0.0000
    69 H10A    -1.1527  -2.9590  -4.4382   H         1 RES1   0.0000
    70 H17A    -2.7626  -2.7105   3.6993   H         1 RES1   0.0000
    71 H18A    -3.8067  -2.5404   2.5135   H         1 RES1   0.0000
    72 H19A    -4.0705  -1.6579   3.7819   H         1 RES1   0.0000
    73 H22A     1.0512  -2.6947   4.4553   H         1 RES1   0.0000
    74 H23A    -0.2868  -1.3848   4.4281   H         1 RES1   0.0000
    75 H24A     1.2629  -1.4344   3.4356   H         1 RES1   0.0000
@<TRIPOS>BOND
     1     1     2    1
     2     3     4    1
     3     4    17    1
     4     5     6    1
     5     6    22    1
     6     7     1    1
     7     8     7    1
     8     9     8    1
     9    10     1    1
    10    11    10    1
    11    12    11    1
    12    13    10    1
    13    14    13    1
    14    15     3    1
    15    16     3    1
    16    18     4    1
    17    19     4    1
    18    20     5    1
    19    21     5    1
    20    23     6    1
    21    24     6    1
    22    25     8    1
    23    26     8    1
    24    27     9    1
    25    28     9    1
    26    29    11    1
    27    30    11    1
    28    31    12    1
    29    32    12    1
    30    33    12    1
    31    34    13    1
    32    35    13    1
    33    36    14    1
    34    37    14    1
    35    38    14    1
    36    39     1    1
    37    40     1    1
    38    41     1    1
    39    42    40    1
    40    43    40    1
    41    44    40    1
    42    45    41    1
    43    46    41    1
    44    47    41    1
    45    48    42    1
    46    49    42    1
    47    50    42    1
    48    51    43    1
    49    52    43    1
    50    53    43    1
    51    54    44    1
    52    55    44    1
    53    56    45    1
    54    57    45    1
    55    58    46    1
    56    59    46    1
    57    60    46    1
    58    61    47    1
    59    62    47    1
    60    63    47    1
    61    64    48    1
    62    65    48    1
    63    66    48    1
    64    67    51    1
    65    68    51    1
    66    69    51    1
    67    70    58    1
    68    71    58    1
    69    72    58    1
    70    73    61    1
    71    74    61    1
    72    75    61    1
    73     3     7    1
    74     5     7    1
    75     9    10    1
    76    44    45    1
@<TRIPOS>SUBSTRUCTURE
     1 RES1        1 GROUP             0 ****  ****    0  
@<TRIPOS>CRYSIN
    8.1420    8.7610   10.3090   95.5700   99.2700  104.9700     2     1
