@<TRIPOS>MOLECULE
GOCDOR
   122   132     2     0     0
SMALL
USER_CHARGES
****
Generated from the CSD

@<TRIPOS>ATOM
     1 Fe1      6.6430   8.2400   0.0000   Fe        1 RES1   2.0000
     2 P1       7.8246   6.3082   0.5773   P.3       1 RES1   0.0000
     3 P2       5.0519   6.6398  -0.6285   P.3       1 RES1   0.0000
     4 C1       7.1824   4.9325  -0.4293   C.ar      1 RES1   0.0000
     5 C2       7.8634   3.7245  -0.5568   C.ar      1 RES1   0.0000
     6 C3       7.2727   2.6780  -1.2289   C.ar      1 RES1   0.0000
     7 C4       7.5531   5.7252   2.2767   C.ar      1 RES1   0.0000
     8 C5       8.0155   6.4750   3.3460   C.ar      1 RES1   0.0000
     9 C6       7.7721   6.0943   4.6567   C.ar      1 RES1   0.0000
    10 C7       7.0389   4.9456   4.9103   C.ar      1 RES1   0.0000
    11 C8       6.5896   4.1909   3.8571   C.ar      1 RES1   0.0000
    12 C9       6.8243   4.5518   2.5571   C.ar      1 RES1   0.0000
    13 C10      9.6179   6.0960   0.2831   C.ar      1 RES1   0.0000
    14 C11     10.5315   5.9855   1.3040   C.ar      1 RES1   0.0000
    15 C12     11.8959   5.9015   1.0062   C.ar      1 RES1   0.0000
    16 C13     12.3324   5.8817  -0.2858   C.ar      1 RES1   0.0000
    17 C14     11.4306   5.9509  -1.2987   C.ar      1 RES1   0.0000
    18 C15     10.0854   6.0333  -1.0330   C.ar      1 RES1   0.0000
    19 C16      5.9301   5.0841  -0.9995   C.ar      1 RES1   0.0000
    20 C17      5.3439   4.0244  -1.6891   C.ar      1 RES1   0.0000
    21 C18      6.0054   2.8379  -1.7830   C.ar      1 RES1   0.0000
    22 C19      3.8426   6.1207   0.6238   C.ar      1 RES1   0.0000
    23 C20      3.0443   7.0848   1.2343   C.ar      1 RES1   0.0000
    24 C21      2.1293   6.7420   2.2069   C.ar      1 RES1   0.0000
    25 C22      2.0028   5.4466   2.6081   C.ar      1 RES1   0.0000
    26 C23      2.7822   4.4727   2.0218   C.ar      1 RES1   0.0000
    27 C24      3.6753   4.7858   1.0384   C.ar      1 RES1   0.0000
    28 C25      4.0715   6.8705  -2.1425   C.ar      1 RES1   0.0000
    29 C26      2.7548   7.3089  -2.1130   C.ar      1 RES1   0.0000
    30 C27      2.0489   7.5116  -3.3111   C.ar      1 RES1   0.0000
    31 C28      2.6229   7.3122  -4.4971   C.ar      1 RES1   0.0000
    32 C29      3.9386   6.8606  -4.5722   C.ar      1 RES1   0.0000
    33 C30      4.6883   6.6348  -3.3956   C.ar      1 RES1   0.0000
    34 N1       5.9324   8.3455   1.7521   N.1       1 RES1   0.0000
    35 C31      5.5173   8.3537   2.8026   C.1       1 RES1   0.0000
    36 C32      4.9409   8.2697   4.1550   C.3       1 RES1   0.0000
    37 H1       8.7571   3.6190  -0.1690   H         1 RES1   0.0000
    38 H2       7.7435   1.8243  -1.3188   H         1 RES1   0.0000
    39 H3       8.5270   7.2924   3.1716   H         1 RES1   0.0000
    40 H4       8.1149   6.6348   5.3986   H         1 RES1   0.0000
    41 H5       6.8427   4.6754   5.8320   H         1 RES1   0.0000
    42 H6       6.0883   3.3685   4.0409   H         1 RES1   0.0000
    43 H7       6.4867   3.9964   1.8232   H         1 RES1   0.0000
    44 H8      10.2286   5.9691   2.2351   H         1 RES1   0.0000
    45 H9      12.5462   5.8537   1.7374   H         1 RES1   0.0000
    46 H10     13.2903   5.8191  -0.4816   H         1 RES1   0.0000
    47 H11     11.7426   5.9410  -2.2284   H         1 RES1   0.0000
    48 H12      9.4450   6.0465  -1.7749   H         1 RES1   0.0000
    49 H13      4.4617   4.1332  -2.1036   H         1 RES1   0.0000
    50 H14      5.5837   2.0847  -2.2459   H         1 RES1   0.0000
    51 H15      3.1342   8.0241   0.9673   H         1 RES1   0.0000
    52 H16      1.5663   7.4341   2.6121   H         1 RES1   0.0000
    53 H17      1.3619   5.2077   3.3097   H         1 RES1   0.0000
    54 H18      2.6940   3.5416   2.3156   H         1 RES1   0.0000
    55 H19      4.2026   4.0755   0.6171   H         1 RES1   0.0000
    56 H20      2.3161   7.4770  -1.2531   H         1 RES1   0.0000
    57 H23      4.3484   6.6975  -5.4483   H         1 RES1   0.0000
    58 H24      5.6157   6.3234  -3.4466   H         1 RES1   0.0000
    59 H25      5.5316   8.5927   4.8781   H         1 RES1   0.0000
    60 H26      4.6959   7.3320   4.4126   H         1 RES1   0.0000
    61 H27      4.0817   8.7608   4.2542   H         1 RES1   0.0000
    62 P1B      5.4614  10.1718  -0.5773   P.3       1 RES1   0.0000
    63 P2B      8.2341   9.8402   0.6285   P.3       1 RES1   0.0000
    64 N1B      7.3536   8.1345  -1.7521   N.1       1 RES1   0.0000
    65 C1B      6.1036  11.5475   0.4293   C.ar      1 RES1   0.0000
    66 C4B      5.7329  10.7548  -2.2767   C.ar      1 RES1   0.0000
    67 C10B     3.6681  10.3840  -0.2831   C.ar      1 RES1   0.0000
    68 C16B     7.3559  11.3959   0.9995   C.ar      1 RES1   0.0000
    69 C19B     9.4434  10.3593  -0.6238   C.ar      1 RES1   0.0000
    70 C25B     9.2145   9.6095   2.1425   C.ar      1 RES1   0.0000
    71 C31B     7.7687   8.1263  -2.8026   C.1       1 RES1   0.0000
    72 C2B      5.4226  12.7555   0.5568   C.ar      1 RES1   0.0000
    73 C5B      5.2705  10.0050  -3.3460   C.ar      1 RES1   0.0000
    74 C9B      6.4617  11.9282  -2.5571   C.ar      1 RES1   0.0000
    75 C11B     2.7545  10.4945  -1.3040   C.ar      1 RES1   0.0000
    76 C15B     3.2006  10.4467   1.0330   C.ar      1 RES1   0.0000
    77 C17B     7.9421  12.4556   1.6891   C.ar      1 RES1   0.0000
    78 C20B    10.2417   9.3952  -1.2343   C.ar      1 RES1   0.0000
    79 C24B     9.6107  11.6942  -1.0384   C.ar      1 RES1   0.0000
    80 C26B    10.5312   9.1711   2.1130   C.ar      1 RES1   0.0000
    81 C30B     8.5977   9.8452   3.3956   C.ar      1 RES1   0.0000
    82 C32B     8.3451   8.2103  -4.1550   C.3       1 RES1   0.0000
    83 C3B      6.0133  13.8020   1.2289   C.ar      1 RES1   0.0000
    84 H1B      4.5289  12.8610   0.1690   H         1 RES1   0.0000
    85 C6B      5.5139  10.3857  -4.6567   C.ar      1 RES1   0.0000
    86 H3B      4.7590   9.1876  -3.1716   H         1 RES1   0.0000
    87 C8B      6.6964  12.2891  -3.8571   C.ar      1 RES1   0.0000
    88 H7B      6.7993  12.4836  -1.8232   H         1 RES1   0.0000
    89 C12B     1.3901  10.5785  -1.0062   C.ar      1 RES1   0.0000
    90 H8B      3.0574  10.5109  -2.2351   H         1 RES1   0.0000
    91 C14B     1.8554  10.5291   1.2987   C.ar      1 RES1   0.0000
    92 H12B     3.8410  10.4335   1.7749   H         1 RES1   0.0000
    93 C18B     7.2806  13.6421   1.7830   C.ar      1 RES1   0.0000
    94 H13B     8.8243  12.3468   2.1036   H         1 RES1   0.0000
    95 C21B    11.1567   9.7380  -2.2069   C.ar      1 RES1   0.0000
    96 H15B    10.1518   8.4559  -0.9673   H         1 RES1   0.0000
    97 C23B    10.5038  12.0073  -2.0218   C.ar      1 RES1   0.0000
    98 H19B     9.0834  12.4045  -0.6171   H         1 RES1   0.0000
    99 C27B    11.2371   8.9684   3.3111   C.ar      1 RES1   0.0000
   100 H20B    10.9699   9.0030   1.2531   H         1 RES1   0.0000
   101 C29B     9.3474   9.6194   4.5722   C.ar      1 RES1   0.0000
   102 H24B     7.6703  10.1566   3.4466   H         1 RES1   0.0000
   103 H25B     7.7544   7.8873  -4.8781   H         1 RES1   0.0000
   104 H26B     8.5901   9.1480  -4.4126   H         1 RES1   0.0000
   105 H27B     9.2043   7.7192  -4.2542   H         1 RES1   0.0000
   106 H2B      5.5425  14.6557   1.3188   H         1 RES1   0.0000
   107 C7B      6.2471  11.5344  -4.9103   C.ar      1 RES1   0.0000
   108 H4B      5.1711   9.8452  -5.3986   H         1 RES1   0.0000
   109 H6B      7.1977  13.1115  -4.0409   H         1 RES1   0.0000
   110 C13B     0.9536  10.5983   0.2858   C.ar      1 RES1   0.0000
   111 H9B      0.7398  10.6263  -1.7374   H         1 RES1   0.0000
   112 H11B     1.5434  10.5390   2.2284   H         1 RES1   0.0000
   113 H14B     7.7023  14.3953   2.2459   H         1 RES1   0.0000
   114 C22B    11.2832  11.0334  -2.6081   C.ar      1 RES1   0.0000
   115 H16B    11.7197   9.0459  -2.6121   H         1 RES1   0.0000
   116 H18B    10.5920  12.9384  -2.3156   H         1 RES1   0.0000
   117 C28B    10.6631   9.1678   4.4971   C.ar      1 RES1   0.0000
   118 H23B     8.9376   9.7825   5.4483   H         1 RES1   0.0000
   119 H5B      6.4433  11.8046  -5.8320   H         1 RES1   0.0000
   120 H10B    -0.0043  10.6609   0.4816   H         1 RES1   0.0000
   121 H17B    11.9241  11.2723  -3.3097   H         1 RES1   0.0000
   122 I1       9.2234  -0.8713  -1.3951   I         2 RES2  -1.0000
@<TRIPOS>BOND
     1     1     2    1
     2     2     4    1
     3     3     1    1
     4     4     5   ar
     5     5     6   ar
     6     6    21   ar
     7     7     2    1
     8     8     7   ar
     9     9     8   ar
    10    10     9   ar
    11    11    10   ar
    12    12     7   ar
    13    13     2    1
    14    14    13   ar
    15    15    14   ar
    16    16    15   ar
    17    17    16   ar
    18    18    13   ar
    19    19     3    1
    20    20    19   ar
    21    21    20   ar
    22    22     3    1
    23    23    22   ar
    24    24    23   ar
    25    25    24   ar
    26    26    25   ar
    27    27    22   ar
    28    28     3    1
    29    29    28   ar
    30    30    29   ar
    31    31    30   ar
    32    32    31   ar
    33    33    28   ar
    34    34     1    1
    35    35    34    3
    36    36    35    1
    37    37     5    1
    38    38     6    1
    39    39     8    1
    40    40     9    1
    41    41    10    1
    42    42    11    1
    43    43    12    1
    44    44    14    1
    45    45    15    1
    46    46    16    1
    47    47    17    1
    48    48    18    1
    49    49    20    1
    50    50    21    1
    51    51    23    1
    52    52    24    1
    53    53    25    1
    54    54    26    1
    55    55    27    1
    56    56    29    1
    57    57    32    1
    58    58    33    1
    59    59    36    1
    60    60    36    1
    61    61    36    1
    62    62     1    1
    63    63     1    1
    64    64     1    1
    65    65    62    1
    66    66    62    1
    67    67    62    1
    68    68    63    1
    69    69    63    1
    70    70    63    1
    71    71    64    3
    72    72    65   ar
    73    73    66   ar
    74    74    66   ar
    75    75    67   ar
    76    76    67   ar
    77    77    68   ar
    78    78    69   ar
    79    79    69   ar
    80    80    70   ar
    81    81    70   ar
    82    82    71    1
    83    83    72   ar
    84    84    72    1
    85    85    73   ar
    86    86    73    1
    87    87    74   ar
    88    88    74    1
    89    89    75   ar
    90    90    75    1
    91    91    76   ar
    92    92    76    1
    93    93    77   ar
    94    94    77    1
    95    95    78   ar
    96    96    78    1
    97    97    79   ar
    98    98    79    1
    99    99    80   ar
   100   100    80    1
   101   101    81   ar
   102   102    81    1
   103   103    82    1
   104   104    82    1
   105   105    82    1
   106   106    83    1
   107   107    85   ar
   108   108    85    1
   109   109    87    1
   110   110    89   ar
   111   111    89    1
   112   112    91    1
   113   113    93    1
   114   114    95   ar
   115   115    95    1
   116   116    97    1
   117   117    99   ar
   118   118   101    1
   119   119   107    1
   120   120   110    1
   121   121   114    1
   122     4    19   ar
   123    11    12   ar
   124    17    18   ar
   125    26    27   ar
   126    32    33   ar
   127    65    68   ar
   128    83    93   ar
   129    87   107   ar
   130    91   110   ar
   131    97   114   ar
   132   101   117   ar
@<TRIPOS>SUBSTRUCTURE
     1 RES1        1 GROUP             0 ****  ****    0  
     2 RES2      122 GROUP             0 ****  ****    0  
@<TRIPOS>CRYSIN
   13.2860   16.4800   13.6380   90.0000  100.3500   90.0000   231     1
