@<TRIPOS>MOLECULE
GOCMER
    99   108     3     0     0
SMALL
USER_CHARGES
****
Generated from the CSD

@<TRIPOS>ATOM
     1 Fe1      5.0397   7.6047  12.4819   Fe        1 RES1   2.0000
     2 N1       4.1867   9.3768  12.4371   N.ar      1 RES1   0.0000
     3 N2       4.8440   7.7847  10.6216   N.ar      1 RES1   0.0000
     4 N3       5.8523   5.9083  11.9050   N.ar      1 RES1   0.0000
     5 N4       3.2881   6.7705  12.8808   N.ar      1 RES1   0.0000
     6 N5       5.1995   7.4349  14.3394   N.ar      1 RES1   0.0000
     7 N6       6.8511   8.4019  12.7363   N.ar      1 RES1   0.0000
     8 N7       4.3314   8.2211   6.5042   N.pl3     1 RES1   0.0000
     9 N8       5.0732   7.4440   5.6644   N.2       1 RES1   0.0000
    10 N9       5.3697   7.3091  18.5112   N.pl3     1 RES1   0.0000
    11 N10      4.6887   6.2988  19.1555   N.2       1 RES1   0.0000
    12 C1       3.8541  10.1447  13.4860   C.ar      1 RES1   0.0000
    13 C2       3.2082  11.3829  13.3466   C.ar      1 RES1   0.0000
    14 C3       2.8556  11.8075  12.0937   C.ar      1 RES1   0.0000
    15 C4       3.1924  11.0055  10.9836   C.ar      1 RES1   0.0000
    16 C5       3.8570   9.8131  11.2046   C.ar      1 RES1   0.0000
    17 C6       4.2836   8.9038  10.1184   C.ar      1 RES1   0.0000
    18 C7       4.1329   9.0807   8.7669   C.ar      1 RES1   0.0000
    19 C8       4.5134   8.0730   7.9118   C.ar      1 RES1   0.0000
    20 C9       5.0962   6.9356   8.4218   C.ar      1 RES1   0.0000
    21 C10      5.2582   6.7863   9.7886   C.ar      1 RES1   0.0000
    22 C11      5.8584   5.6764  10.5400   C.ar      1 RES1   0.0000
    23 C12      6.4319   4.5416   9.9943   C.ar      1 RES1   0.0000
    24 C13      7.0332   3.6244  10.8154   C.ar      1 RES1   0.0000
    25 C14      7.0453   3.8563  12.1702   C.ar      1 RES1   0.0000
    26 C15      6.4410   4.9741  12.6853   C.ar      1 RES1   0.0000
    27 C16      2.2889   6.4849  12.0036   C.ar      1 RES1   0.0000
    28 C17      1.1037   5.9542  12.3589   C.ar      1 RES1   0.0000
    29 C18      0.8833   5.6672  13.7104   C.ar      1 RES1   0.0000
    30 C19      1.8817   5.9647  14.6420   C.ar      1 RES1   0.0000
    31 C20      3.0518   6.5137  14.1932   C.ar      1 RES1   0.0000
    32 C21      4.1817   6.9016  15.0738   C.ar      1 RES1   0.0000
    33 C22      4.2261   6.8177  16.4406   C.ar      1 RES1   0.0000
    34 C23      5.3596   7.3117  17.1087   C.ar      1 RES1   0.0000
    35 C24      6.4261   7.8280  16.3641   C.ar      1 RES1   0.0000
    36 C25      6.3107   7.8896  14.9922   C.ar      1 RES1   0.0000
    37 C26      7.2862   8.4137  14.0164   C.ar      1 RES1   0.0000
    38 C27      8.5477   8.9378  14.3411   C.ar      1 RES1   0.0000
    39 C28      9.3452   9.4030  13.3585   C.ar      1 RES1   0.0000
    40 C29      8.9253   9.3571  12.0648   C.ar      1 RES1   0.0000
    41 C30      7.6661   8.8396  11.7622   C.ar      1 RES1   0.0000
    42 C31      5.2231   7.1243   3.2266   C.3       1 RES1   0.0000
    43 C32      4.7107   7.7900   4.4336   C.2       1 RES1   0.0000
    44 C33      3.7319   8.8029   4.4897   C.2       1 RES1   0.0000
    45 C34      3.4943   9.0623   5.8038   C.2       1 RES1   0.0000
    46 C35      2.4421   9.9953   6.3971   C.3       1 RES1   0.0000
    47 C36      4.1368   5.7367  21.4879   C.3       1 RES1   0.0000
    48 C37      4.7827   6.6434  20.4492   C.2       1 RES1   0.0000
    49 C38      5.4690   7.8529  20.6175   C.2       1 RES1   0.0000
    50 C39      5.8383   8.2682  19.3731   C.2       1 RES1   0.0000
    51 C40      6.4376   9.5406  18.9345   C.3       1 RES1   0.0000
    52 H1       4.0695   9.8446  14.3496   H         1 RES1   0.0000
    53 H2       3.0170  11.9097  14.0895   H         1 RES1   0.0000
    54 H3       2.4069  12.6042  11.9781   H         1 RES1   0.0000
    55 H4       2.9685  11.2755  10.1167   H         1 RES1   0.0000
    56 H5       3.7813   9.8760   8.4388   H         1 RES1   0.0000
    57 H6       5.3864   6.2621   7.8489   H         1 RES1   0.0000
    58 H7       6.4200   4.4106   9.0763   H         1 RES1   0.0000
    59 H8       7.4119   2.8500  10.4686   H         1 RES1   0.0000
    60 H9       7.4546   3.2536  12.7448   H         1 RES1   0.0000
    61 H10      6.4378   5.1025  13.6084   H         1 RES1   0.0000
    62 H11      2.4310   6.6696  11.1077   H         1 RES1   0.0000
    63 H12      0.4504   5.7694  11.7197   H         1 RES1   0.0000
    64 H13      0.0856   5.2754  13.9807   H         1 RES1   0.0000
    65 H14      1.7498   5.7904  15.5498   H         1 RES1   0.0000
    66 H15      3.5258   6.4521  16.9268   H         1 RES1   0.0000
    67 H16      7.1962   8.1280  16.7942   H         1 RES1   0.0000
    68 H17      8.8271   8.9614  15.2319   H         1 RES1   0.0000
    69 H18     10.1647   9.7778  13.5744   H         1 RES1   0.0000
    70 H19      9.4747   9.6821  11.3780   H         1 RES1   0.0000
    71 H20      7.3840   8.8199  10.8749   H         1 RES1   0.0000
    72 H21      4.5855   7.1689   2.5126   H         1 RES1   0.0000
    73 H22      6.0348   7.5489   2.9359   H         1 RES1   0.0000
    74 H23      5.4119   6.2045   3.4119   H         1 RES1   0.0000
    75 H24      3.3222   9.2169   3.7553   H         1 RES1   0.0000
    76 H25      1.8190  10.2403   5.7120   H         1 RES1   0.0000
    77 H26      2.8688  10.7815   6.7439   H         1 RES1   0.0000
    78 H27      1.9777   9.5498   7.1043   H         1 RES1   0.0000
    79 H28      3.5726   6.2634  22.0727   H         1 RES1   0.0000
    80 H29      4.8320   5.3108  21.9962   H         1 RES1   0.0000
    81 H30      3.6109   5.0632  21.0391   H         1 RES1   0.0000
    82 H31      5.6434   8.2931  21.4114   H         1 RES1   0.0000
    83 H32      6.4654  10.1695  19.6672   H         1 RES1   0.0000
    84 H33      7.3297   9.3755  18.6132   H         1 RES1   0.0000
    85 H34      5.9015   9.9062  18.2222   H         1 RES1   0.0000
    86 P1      -1.0093   3.7450  16.7405   P.3       2 RES2  -1.0000
    87 F1      -1.6557   2.8565  15.6501   F         2 RES2   0.0000
    88 F2      -0.3411   4.6111  17.8363   F         2 RES2   0.0000
    89 F3      -2.4404   3.9507  17.3858   F         2 RES2   0.0000
    90 F4       0.4167   3.5536  16.0615   F         2 RES2   0.0000
    91 F5      -0.7625   2.5801  17.7190   F         2 RES2   0.0000
    92 F6      -1.2747   4.9793  15.8371   F         2 RES2   0.0000
    93 P2       0.1601   6.9854   8.4292   P.3       3 RES3  -1.0000
    94 F7      -1.1189   7.7795   8.0376   F         3 RES3   0.0000
    95 F8       1.4470   6.1599   8.8621   F         3 RES3   0.0000
    96 F9      -0.5046   6.6788   9.8430   F         3 RES3   0.0000
    97 F10      0.8200   7.2855   7.0159   F         3 RES3   0.0000
    98 F11     -0.4515   5.6515   7.8370   F         3 RES3   0.0000
    99 F12      0.8276   8.2774   9.0593   F         3 RES3   0.0000
@<TRIPOS>BOND
     1     1     2    1
     2     2    12   ar
     3     3     1    1
     4     4     1    1
     5     5     1    1
     6     6     1    1
     7     7     1    1
     8     8     9    1
     9     9    43    2
    10    10    11    1
    11    11    48    2
    12    12    13   ar
    13    13    14   ar
    14    14    15   ar
    15    15    16   ar
    16    16     2   ar
    17    17     3   ar
    18    18    17   ar
    19    19     8    1
    20    20    19   ar
    21    21     3   ar
    22    22     4   ar
    23    23    22   ar
    24    24    23   ar
    25    25    24   ar
    26    26     4   ar
    27    27     5   ar
    28    28    27   ar
    29    29    28   ar
    30    30    29   ar
    31    31     5   ar
    32    32     6   ar
    33    33    32   ar
    34    34    10    1
    35    35    34   ar
    36    36     6   ar
    37    37     7   ar
    38    38    37   ar
    39    39    38   ar
    40    40    39   ar
    41    41     7   ar
    42    42    43    1
    43    43    44    1
    44    44    45    2
    45    45     8    1
    46    46    45    1
    47    47    48    1
    48    48    49    1
    49    49    50    2
    50    50    10    1
    51    51    50    1
    52    52    12    1
    53    53    13    1
    54    54    14    1
    55    55    15    1
    56    56    18    1
    57    57    20    1
    58    58    23    1
    59    59    24    1
    60    60    25    1
    61    61    26    1
    62    62    27    1
    63    63    28    1
    64    64    29    1
    65    65    30    1
    66    66    33    1
    67    67    35    1
    68    68    38    1
    69    69    39    1
    70    70    40    1
    71    71    41    1
    72    72    42    1
    73    73    42    1
    74    74    42    1
    75    75    44    1
    76    76    46    1
    77    77    46    1
    78    78    46    1
    79    79    47    1
    80    80    47    1
    81    81    47    1
    82    82    49    1
    83    83    51    1
    84    84    51    1
    85    85    51    1
    86    16    17    1
    87    18    19   ar
    88    20    21   ar
    89    21    22    1
    90    25    26   ar
    91    30    31   ar
    92    31    32    1
    93    33    34   ar
    94    35    36   ar
    95    36    37    1
    96    40    41   ar
    97    86    87    1
    98    88    86    1
    99    89    86    1
   100    90    86    1
   101    91    86    1
   102    92    86    1
   103    93    94    1
   104    95    93    1
   105    96    93    1
   106    97    93    1
   107    98    93    1
   108    99    93    1
@<TRIPOS>SUBSTRUCTURE
     1 RES1        1 GROUP             0 ****  ****    0  
     2 RES2       86 GROUP             0 ****  ****    0  
     3 RES3       93 GROUP             0 ****  ****    0  
@<TRIPOS>CRYSIN
    9.2578   13.1034   17.4632   90.0000  103.2270   90.0000     4     1
