@<TRIPOS>MOLECULE
GOGBAF
    81    92     1     0     0
SMALL
NO_CHARGES
****
Generated from the CSD

@<TRIPOS>ATOM
     1 Fe1     -0.2336   1.8947   4.9350   Fe        1 RES1   0.0000
     2 S1       2.9238  -0.8728   3.5946   S.3       1 RES1   0.0000
     3 N1       1.4244   1.8319   5.8371   N.2       1 RES1   0.0000
     4 N2       0.7267   0.4864   3.8828   N.2       1 RES1   0.0000
     5 N3      -0.4624   3.2912   6.2595   N.2       1 RES1   0.0000
     6 N4       2.3926   0.9513   5.4897   N.2       1 RES1   0.0000
     7 N5       0.5406   3.5246   7.0570   N.2       1 RES1   0.0000
     8 C1      -0.6203  -0.3962   1.9760   C.ar      1 RES1   0.0000
     9 C2      -0.6131  -1.2592   0.8922   C.ar      1 RES1   0.0000
    10 C3       0.4826  -2.0399   0.5843   C.ar      1 RES1   0.0000
    11 C4       1.6262  -1.9908   1.3601   C.ar      1 RES1   0.0000
    12 C5       1.6293  -1.1376   2.4576   C.ar      1 RES1   0.0000
    13 C6       0.5215  -0.3295   2.7695   C.ar      1 RES1   0.0000
    14 C7       1.9342   0.2903   4.4119   C.2       1 RES1   0.0000
    15 C8       1.5854   2.6636   6.8754   C.2       1 RES1   0.0000
    16 C9       3.6011   1.6986   8.0164   C.ar      1 RES1   0.0000
    17 C10      4.6121   1.8064   8.9540   C.ar      1 RES1   0.0000
    18 C11      4.7718   2.9578   9.6923   C.ar      1 RES1   0.0000
    19 C12      3.8923   3.9836   9.5225   C.ar      1 RES1   0.0000
    20 C13      2.8676   3.8875   8.6007   C.ar      1 RES1   0.0000
    21 C14      2.7100   2.7460   7.8190   C.ar      1 RES1   0.0000
    22 C15     -1.1489   5.6273   6.4530   C.ar      1 RES1   0.0000
    23 C16     -2.1524   6.5766   6.4806   C.ar      1 RES1   0.0000
    24 C17     -3.4624   6.1941   6.3898   C.ar      1 RES1   0.0000
    25 C18     -3.8013   4.8682   6.2773   C.ar      1 RES1   0.0000
    26 C19     -2.8039   3.9032   6.2240   C.ar      1 RES1   0.0000
    27 C20     -1.4831   4.2876   6.3187   C.ar      1 RES1   0.0000
    28 H1      -1.3673   0.1255   2.1674   H         1 RES1   0.0000
    29 H2      -1.3706  -1.3141   0.3553   H         1 RES1   0.0000
    30 H3       0.4505  -2.6067  -0.1520   H         1 RES1   0.0000
    31 H4       2.3693  -2.5086   1.1528   H         1 RES1   0.0000
    32 H5       3.5174   0.9199   7.5150   H         1 RES1   0.0000
    33 H6       5.1923   1.0925   9.0882   H         1 RES1   0.0000
    34 H7       5.4717   3.0323  10.3003   H         1 RES1   0.0000
    35 H8       3.9819   4.7544  10.0338   H         1 RES1   0.0000
    36 H9       2.2749   4.5975   8.5000   H         1 RES1   0.0000
    37 H10     -0.2573   5.8822   6.5221   H         1 RES1   0.0000
    38 H11     -1.9368   7.4769   6.5596   H         1 RES1   0.0000
    39 H12     -4.1313   6.8414   6.4056   H         1 RES1   0.0000
    40 H13     -4.6960   4.6152   6.2358   H         1 RES1   0.0000
    41 H14     -3.0250   3.0068   6.1253   H         1 RES1   0.0000
    42 N1A     -1.8916   1.8319   4.0329   N.2       1 RES1   0.0000
    43 N4A     -2.8598   0.9513   4.3803   N.2       1 RES1   0.0000
    44 C7A     -2.4014   0.2903   5.4581   C.2       1 RES1   0.0000
    45 S1A     -3.3909  -0.8728   6.2753   S.3       1 RES1   0.0000
    46 C5A     -2.0965  -1.1376   7.4123   C.ar      1 RES1   0.0000
    47 C4A     -2.0934  -1.9908   8.5099   C.ar      1 RES1   0.0000
    48 C3A     -0.9498  -2.0399   9.2856   C.ar      1 RES1   0.0000
    49 C2A      0.1459  -1.2592   8.9777   C.ar      1 RES1   0.0000
    50 C1A      0.1532  -0.3962   7.8940   C.ar      1 RES1   0.0000
    51 C6A     -0.9886  -0.3295   7.1004   C.ar      1 RES1   0.0000
    52 N2A     -1.1938   0.4864   5.9871   N.2       1 RES1   0.0000
    53 N3A     -0.0048   3.2912   3.6104   N.2       1 RES1   0.0000
    54 N5A     -1.0078   3.5246   2.8129   N.2       1 RES1   0.0000
    55 C8A     -2.0526   2.6636   2.9945   C.2       1 RES1   0.0000
    56 C14A    -3.1772   2.7460   2.0510   C.ar      1 RES1   0.0000
    57 C9A     -4.0682   1.6986   1.8536   C.ar      1 RES1   0.0000
    58 C10A    -5.0793   1.8064   0.9159   C.ar      1 RES1   0.0000
    59 C11A    -5.2390   2.9578   0.1777   C.ar      1 RES1   0.0000
    60 C12A    -4.3595   3.9836   0.3474   C.ar      1 RES1   0.0000
    61 C13A    -3.3348   3.8875   1.2693   C.ar      1 RES1   0.0000
    62 H9A     -2.7421   4.5975   1.3699   H         1 RES1   0.0000
    63 H8A     -4.4491   4.7544  -0.1638   H         1 RES1   0.0000
    64 H7A     -5.9389   3.0323  -0.4303   H         1 RES1   0.0000
    65 H6A     -5.6594   1.0925   0.7817   H         1 RES1   0.0000
    66 H5A     -3.9846   0.9199   2.3550   H         1 RES1   0.0000
    67 C20A     1.0159   4.2876   3.5512   C.ar      1 RES1   0.0000
    68 C15A     0.6817   5.6273   3.4170   C.ar      1 RES1   0.0000
    69 C16A     1.6853   6.5766   3.3893   C.ar      1 RES1   0.0000
    70 C17A     2.9953   6.1941   3.4801   C.ar      1 RES1   0.0000
    71 C18A     3.3341   4.8682   3.5927   C.ar      1 RES1   0.0000
    72 C19A     2.3367   3.9032   3.6460   C.ar      1 RES1   0.0000
    73 H14A     2.5578   3.0068   3.7447   H         1 RES1   0.0000
    74 H13A     4.2288   4.6152   3.6341   H         1 RES1   0.0000
    75 H12A     3.6642   6.8414   3.4644   H         1 RES1   0.0000
    76 H11A     1.4696   7.4769   3.3104   H         1 RES1   0.0000
    77 H10A    -0.2099   5.8822   3.3479   H         1 RES1   0.0000
    78 H1A      0.9001   0.1255   7.7025   H         1 RES1   0.0000
    79 H2A      0.9034  -1.3141   9.5146   H         1 RES1   0.0000
    80 H3A     -0.9177  -2.6067  10.0219   H         1 RES1   0.0000
    81 H4A     -2.8365  -2.5086   8.7171   H         1 RES1   0.0000
@<TRIPOS>BOND
     1     1     3    1
     2     2    12    1
     3     3     6    2
     4     4     1    1
     5     5     1    1
     6     6    14    1
     7     7     5    1
     8     8     9   ar
     9     9    10   ar
    10    10    11   ar
    11    11    12   ar
    12    12    13   ar
    13    13     4    1
    14    14     2    1
    15    15     3    1
    16    16    17   ar
    17    17    18   ar
    18    18    19   ar
    19    19    20   ar
    20    20    21   ar
    21    21    15    1
    22    22    23   ar
    23    23    24   ar
    24    24    25   ar
    25    25    26   ar
    26    26    27   ar
    27    27     5    1
    28    28     8    1
    29    29     9    1
    30    30    10    1
    31    31    11    1
    32    32    16    1
    33    33    17    1
    34    34    18    1
    35    35    19    1
    36    36    20    1
    37    37    22    1
    38    38    23    1
    39    39    24    1
    40    40    25    1
    41    41    26    1
    42    42     1    1
    43    43    42    2
    44    44    43    1
    45    45    44    1
    46    46    45    1
    47    47    46   ar
    48    48    47   ar
    49    49    48   ar
    50    50    49   ar
    51    51    46   ar
    52    52     1    1
    53    53     1    1
    54    54    53    1
    55    55    42    1
    56    56    55    1
    57    57    56   ar
    58    58    57   ar
    59    59    58   ar
    60    60    59   ar
    61    61    56   ar
    62    62    61    1
    63    63    60    1
    64    64    59    1
    65    65    58    1
    66    66    57    1
    67    67    53    1
    68    68    67   ar
    69    69    68   ar
    70    70    69   ar
    71    71    70   ar
    72    72    67   ar
    73    73    72    1
    74    74    71    1
    75    75    70    1
    76    76    69    1
    77    77    68    1
    78    78    50    1
    79    79    49    1
    80    80    48    1
    81    81    47    1
    82     4    14    2
    83     7    15    2
    84     8    13   ar
    85    16    21   ar
    86    22    27   ar
    87    44    52    2
    88    50    51   ar
    89    51    52    1
    90    54    55    2
    91    60    61   ar
    92    71    72   ar
@<TRIPOS>SUBSTRUCTURE
     1 RES1        1 GROUP             0 ****  ****    0  
@<TRIPOS>CRYSIN
    9.1780   19.6140   19.7620   90.0000   92.7100   90.0000    15     1
