@<TRIPOS>MOLECULE
GOGSAZ
   197   217     4     0     0
SMALL
USER_CHARGES
****
Generated from the CSD

@<TRIPOS>ATOM
     1 C1       2.0788  -2.3709  -0.1323   C.2       1 RES1   0.0000
     2 H1       2.5201  -2.0980   0.6395   H         1 RES1   0.0000
     3 C2       1.4143  -3.5499  -1.7996   C.2       1 RES1   0.0000
     4 H2       1.3097  -4.2568  -2.3952   H         1 RES1   0.0000
     5 C3       4.4824  -4.3761  -0.8311   C.2       1 RES1   0.0000
     6 C4       5.4503  -5.3321  -0.3227   C.ar      1 RES1   0.0000
     7 C5       6.7520  -5.3049  -0.7666   C.ar      1 RES1   0.0000
     8 H3       7.0077  -4.6845  -1.4094   H         1 RES1   0.0000
     9 C6       7.6837  -6.1903  -0.2567   C.ar      1 RES1   0.0000
    10 H4       8.5556  -6.1750  -0.5819   H         1 RES1   0.0000
    11 C7       7.3454  -7.0790   0.6989   C.ar      1 RES1   0.0000
    12 H5       7.9961  -7.6478   1.0429   H         1 RES1   0.0000
    13 C8       6.0236  -7.1656   1.1938   C.ar      1 RES1   0.0000
    14 C9       5.6136  -8.0816   2.1714   C.ar      1 RES1   0.0000
    15 H6       6.2364  -8.6799   2.5165   H         1 RES1   0.0000
    16 C10      4.3327  -8.1265   2.6314   C.ar      1 RES1   0.0000
    17 H7       4.0970  -8.7329   3.2967   H         1 RES1   0.0000
    18 C11      3.3839  -7.2699   2.1090   C.ar      1 RES1   0.0000
    19 H8       2.5033  -7.3138   2.4054   H         1 RES1   0.0000
    20 C12      3.7412  -6.3491   1.1499   C.ar      1 RES1   0.0000
    21 C13      2.7298  -5.4220   0.6361   C.2       1 RES1   0.0000
    22 C14      5.0539  -6.2786   0.6696   C.ar      1 RES1   0.0000
    23 C15      2.1331   1.1470   2.0174   C.2       1 RES1   0.0000
    24 H9       2.4613   1.7621   1.4017   H         1 RES1   0.0000
    25 C16      1.7903   0.0642   3.8223   C.2       1 RES1   0.0000
    26 H10      1.8274  -0.2050   4.7117   H         1 RES1   0.0000
    27 C17      2.9892   3.1537   4.4110   C.2       1 RES1   0.0000
    28 C18      4.0620   3.9734   5.0221   C.ar      1 RES1   0.0000
    29 C19      3.7592   5.2327   5.4675   C.ar      1 RES1   0.0000
    30 H11      2.8889   5.5545   5.4085   H         1 RES1   0.0000
    31 C20      4.7959   6.0460   6.0259   C.ar      1 RES1   0.0000
    32 H12      4.6059   6.9106   6.3110   H         1 RES1   0.0000
    33 C21      6.0512   5.5583   6.1364   C.ar      1 RES1   0.0000
    34 H13      6.7086   6.0926   6.5205   H         1 RES1   0.0000
    35 C22      6.3947   4.2862   5.6967   C.ar      1 RES1   0.0000
    36 C23      7.7089   3.7617   5.7656   C.ar      1 RES1   0.0000
    37 H14      8.3945   4.2903   6.1046   H         1 RES1   0.0000
    38 C24      7.9754   2.5393   5.3627   C.ar      1 RES1   0.0000
    39 H15      8.8405   2.2096   5.4492   H         1 RES1   0.0000
    40 C25      6.9922   1.7276   4.8032   C.ar      1 RES1   0.0000
    41 H16      7.2063   0.8706   4.5111   H         1 RES1   0.0000
    42 C26      5.7116   2.1912   4.6852   C.ar      1 RES1   0.0000
    43 C27      4.6887   1.3394   4.0291   C.2       1 RES1   0.0000
    44 C28      5.3807   3.4697   5.1320   C.ar      1 RES1   0.0000
    45 C29      2.1198   1.2592  -1.9554   C.2       1 RES1   0.0000
    46 H17      2.5220   0.4374  -2.1233   H         1 RES1   0.0000
    47 C30      1.6069   3.3382  -2.0231   C.2       1 RES1   0.0000
    48 H18      1.6019   4.2377  -2.2609   H         1 RES1   0.0000
    49 C31      2.9029   2.2907  -4.8998   C.2       1 RES1   0.0000
    50 C32      3.9159   2.4896  -5.9396   C.ar      1 RES1   0.0000
    51 C33      3.5760   2.2939  -7.2449   C.ar      1 RES1   0.0000
    52 H19      2.7116   2.0245  -7.4583   H         1 RES1   0.0000
    53 C34      4.5009   2.4928  -8.2615   C.ar      1 RES1   0.0000
    54 H20      4.2520   2.3603  -9.1464   H         1 RES1   0.0000
    55 C35      5.7476   2.8730  -7.9727   C.ar      1 RES1   0.0000
    56 H21      6.3562   2.9915  -8.6638   H         1 RES1   0.0000
    57 C36      6.1690   3.1008  -6.6334   C.ar      1 RES1   0.0000
    58 C37      7.4626   3.5130  -6.2647   C.ar      1 RES1   0.0000
    59 H22      8.0938   3.6521  -6.9346   H         1 RES1   0.0000
    60 C38      7.8297   3.7152  -4.9597   C.ar      1 RES1   0.0000
    61 H23      8.6934   3.9868  -4.7474   H         1 RES1   0.0000
    62 C39      6.8803   3.5066  -3.9550   C.ar      1 RES1   0.0000
    63 H24      7.1246   3.6330  -3.0667   H         1 RES1   0.0000
    64 C40      5.6073   3.1232  -4.2445   C.ar      1 RES1   0.0000
    65 C41      4.6197   2.9356  -3.1741   C.2       1 RES1   0.0000
    66 C42      5.2268   2.9003  -5.5880   C.ar      1 RES1   0.0000
    67 N1       1.2036  -1.6747  -0.7666   N.2       1 RES1   0.0000
    68 N2       1.2989   0.2230   1.7493   N.2       1 RES1   0.0000
    69 N3       1.1925   1.4710  -1.0722   N.2       1 RES1   0.0000
    70 N4       0.7708  -2.4254  -1.8566   N.2       1 RES1   0.0000
    71 N5       1.0788  -0.5149   2.9170   N.2       1 RES1   0.0000
    72 N6       0.8572   2.8136  -1.1150   N.2       1 RES1   0.0000
    73 N7       2.2605  -3.5435  -0.7452   N.pl3     1 RES1   0.0000
    74 N8       3.1580  -4.5365  -0.3783   N.am      1 RES1   0.0000
    75 N9       2.4721   1.1068   3.3153   N.pl3     1 RES1   0.0000
    76 N10      3.4216   1.9009   3.9475   N.am      1 RES1   0.0000
    77 N11      2.4049   2.3950  -2.5829   N.pl3     1 RES1   0.0000
    78 N12      3.3425   2.5618  -3.5955   N.am      1 RES1   0.0000
    79 O1       4.7215  -3.4633  -1.5995   O.2       1 RES1   0.0000
    80 O2       1.5652  -5.3867   0.9880   O.2       1 RES1   0.0000
    81 O3       4.8936   0.2358   3.5856   O.2       1 RES1   0.0000
    82 O4       1.8482   3.4890   4.2702   O.2       1 RES1   0.0000
    83 O5       1.7739   1.9153  -5.0788   O.2       1 RES1   0.0000
    84 O6       4.8583   3.0847  -1.9907   O.2       1 RES1   0.0000
    85 Fe1      0.0000   0.0000   0.0000   Fe        1 RES1   2.0000
    86 C1B     -2.0788   2.3709   0.1323   C.2       1 RES1   0.0000
    87 H1B     -2.5201   2.0980  -0.6395   H         1 RES1   0.0000
    88 C2B     -1.4143   3.5499   1.7996   C.2       1 RES1   0.0000
    89 H2B     -1.3097   4.2568   2.3952   H         1 RES1   0.0000
    90 C3B     -4.4824   4.3761   0.8311   C.2       1 RES1   0.0000
    91 C4B     -5.4503   5.3321   0.3227   C.ar      1 RES1   0.0000
    92 C5B     -6.7520   5.3049   0.7666   C.ar      1 RES1   0.0000
    93 H3B     -7.0077   4.6845   1.4094   H         1 RES1   0.0000
    94 C6B     -7.6837   6.1903   0.2567   C.ar      1 RES1   0.0000
    95 H4B     -8.5556   6.1750   0.5819   H         1 RES1   0.0000
    96 C7B     -7.3454   7.0790  -0.6989   C.ar      1 RES1   0.0000
    97 H5B     -7.9961   7.6478  -1.0429   H         1 RES1   0.0000
    98 C8B     -6.0236   7.1656  -1.1938   C.ar      1 RES1   0.0000
    99 C9B     -5.6136   8.0816  -2.1714   C.ar      1 RES1   0.0000
   100 H6B     -6.2364   8.6799  -2.5165   H         1 RES1   0.0000
   101 C10B    -4.3327   8.1265  -2.6314   C.ar      1 RES1   0.0000
   102 H7B     -4.0970   8.7329  -3.2967   H         1 RES1   0.0000
   103 C11B    -3.3839   7.2699  -2.1090   C.ar      1 RES1   0.0000
   104 H8B     -2.5033   7.3138  -2.4054   H         1 RES1   0.0000
   105 C12B    -3.7412   6.3491  -1.1499   C.ar      1 RES1   0.0000
   106 C13B    -2.7298   5.4220  -0.6361   C.2       1 RES1   0.0000
   107 C14B    -5.0539   6.2786  -0.6696   C.ar      1 RES1   0.0000
   108 C15B    -2.1331  -1.1470  -2.0174   C.2       1 RES1   0.0000
   109 H9B     -2.4613  -1.7621  -1.4017   H         1 RES1   0.0000
   110 C16B    -1.7903  -0.0642  -3.8223   C.2       1 RES1   0.0000
   111 H10B    -1.8274   0.2050  -4.7117   H         1 RES1   0.0000
   112 C17B    -2.9892  -3.1537  -4.4110   C.2       1 RES1   0.0000
   113 C18B    -4.0620  -3.9734  -5.0221   C.ar      1 RES1   0.0000
   114 C19B    -3.7592  -5.2327  -5.4675   C.ar      1 RES1   0.0000
   115 H11B    -2.8889  -5.5545  -5.4085   H         1 RES1   0.0000
   116 C20B    -4.7959  -6.0460  -6.0259   C.ar      1 RES1   0.0000
   117 H12B    -4.6059  -6.9106  -6.3110   H         1 RES1   0.0000
   118 C21B    -6.0512  -5.5583  -6.1364   C.ar      1 RES1   0.0000
   119 H13B    -6.7086  -6.0926  -6.5205   H         1 RES1   0.0000
   120 C22B    -6.3947  -4.2862  -5.6967   C.ar      1 RES1   0.0000
   121 C23B    -7.7089  -3.7617  -5.7656   C.ar      1 RES1   0.0000
   122 H14B    -8.3945  -4.2903  -6.1046   H         1 RES1   0.0000
   123 C24B    -7.9754  -2.5393  -5.3627   C.ar      1 RES1   0.0000
   124 H15B    -8.8405  -2.2096  -5.4492   H         1 RES1   0.0000
   125 C25B    -6.9922  -1.7276  -4.8032   C.ar      1 RES1   0.0000
   126 H16B    -7.2063  -0.8706  -4.5111   H         1 RES1   0.0000
   127 C26B    -5.7116  -2.1912  -4.6852   C.ar      1 RES1   0.0000
   128 C27B    -4.6887  -1.3394  -4.0291   C.2       1 RES1   0.0000
   129 C28B    -5.3807  -3.4697  -5.1320   C.ar      1 RES1   0.0000
   130 C29B    -2.1198  -1.2592   1.9554   C.2       1 RES1   0.0000
   131 H17B    -2.5220  -0.4374   2.1233   H         1 RES1   0.0000
   132 C30B    -1.6069  -3.3382   2.0231   C.2       1 RES1   0.0000
   133 H18B    -1.6019  -4.2377   2.2609   H         1 RES1   0.0000
   134 C31B    -2.9029  -2.2907   4.8998   C.2       1 RES1   0.0000
   135 C32B    -3.9159  -2.4896   5.9396   C.ar      1 RES1   0.0000
   136 C33B    -3.5760  -2.2939   7.2449   C.ar      1 RES1   0.0000
   137 H19B    -2.7116  -2.0245   7.4583   H         1 RES1   0.0000
   138 C34B    -4.5009  -2.4928   8.2615   C.ar      1 RES1   0.0000
   139 H20B    -4.2520  -2.3603   9.1464   H         1 RES1   0.0000
   140 C35B    -5.7476  -2.8730   7.9727   C.ar      1 RES1   0.0000
   141 H21B    -6.3562  -2.9915   8.6638   H         1 RES1   0.0000
   142 C36B    -6.1690  -3.1008   6.6334   C.ar      1 RES1   0.0000
   143 C37B    -7.4626  -3.5130   6.2647   C.ar      1 RES1   0.0000
   144 H22B    -8.0938  -3.6521   6.9346   H         1 RES1   0.0000
   145 C38B    -7.8297  -3.7152   4.9597   C.ar      1 RES1   0.0000
   146 H23B    -8.6934  -3.9868   4.7474   H         1 RES1   0.0000
   147 C39B    -6.8803  -3.5066   3.9550   C.ar      1 RES1   0.0000
   148 H24B    -7.1246  -3.6330   3.0667   H         1 RES1   0.0000
   149 C40B    -5.6073  -3.1232   4.2445   C.ar      1 RES1   0.0000
   150 C41B    -4.6197  -2.9356   3.1741   C.2       1 RES1   0.0000
   151 C42B    -5.2268  -2.9003   5.5880   C.ar      1 RES1   0.0000
   152 N1B     -1.2036   1.6747   0.7666   N.2       1 RES1   0.0000
   153 N2B     -1.2989  -0.2230  -1.7493   N.2       1 RES1   0.0000
   154 N3B     -1.1925  -1.4710   1.0722   N.2       1 RES1   0.0000
   155 N4B     -0.7708   2.4254   1.8566   N.2       1 RES1   0.0000
   156 N5B     -1.0788   0.5149  -2.9170   N.2       1 RES1   0.0000
   157 N6B     -0.8572  -2.8136   1.1150   N.2       1 RES1   0.0000
   158 N7B     -2.2605   3.5435   0.7452   N.pl3     1 RES1   0.0000
   159 N8B     -3.1580   4.5365   0.3783   N.am      1 RES1   0.0000
   160 N9B     -2.4721  -1.1068  -3.3153   N.pl3     1 RES1   0.0000
   161 N10B    -3.4216  -1.9009  -3.9475   N.am      1 RES1   0.0000
   162 N11B    -2.4049  -2.3950   2.5829   N.pl3     1 RES1   0.0000
   163 N12B    -3.3425  -2.5618   3.5955   N.am      1 RES1   0.0000
   164 O1B     -4.7215   3.4633   1.5995   O.2       1 RES1   0.0000
   165 O2B     -1.5652   5.3867  -0.9880   O.2       1 RES1   0.0000
   166 O3B     -4.8936  -0.2358  -3.5856   O.2       1 RES1   0.0000
   167 O4B     -1.8482  -3.4890  -4.2702   O.2       1 RES1   0.0000
   168 O5B     -1.7739  -1.9153   5.0788   O.2       1 RES1   0.0000
   169 O6B     -4.8583  -3.0847   1.9907   O.2       1 RES1   0.0000
   170 C43      2.9730   5.6915  30.2968   C.1       2 RES2   0.0000
   171 C44      3.8156   6.1198  29.2232   C.2       2 RES2   0.0000
   172 C45      5.1155   6.5432  29.6158   C.1       2 RES2   0.0000
   173 C46      3.3670   6.1871  27.8915   C.2       2 RES2   0.0000
   174 C47      4.1707   6.4438  26.7976   C.2       2 RES2  -1.0000
   175 C48      5.5884   6.2513  26.7883   C.1       2 RES2   0.0000
   176 C49      3.6276   6.9058  25.5842   C.1       2 RES2   0.0000
   177 C50      1.3924   4.9728  26.3426   C.3       2 RES2   0.0000
   178 H25      2.1160   4.3440  26.3034   H         2 RES2   0.0000
   179 H26      1.3722   5.4893  25.5336   H         2 RES2   0.0000
   180 H27      0.5624   4.5011  26.4419   H         2 RES2   0.0000
   181 N13      2.3611   5.3610  31.1989   N.1       2 RES2   0.0000
   182 N14      6.1009   6.9379  30.0258   N.1       2 RES2   0.0000
   183 N15      6.7144   6.0363  26.7205   N.1       2 RES2   0.0000
   184 N16      3.1845   7.3004  24.6179   N.1       2 RES2   0.0000
   185 S1       1.6261   6.0609  27.7346   S.3       2 RES2   0.0000
   186 C51      0.1149   8.9158  31.6125   C.1       3 RES3   0.0000
   187 C52     -0.0354   7.8442  30.6890   C.3       3 RES3   0.0000
   188 H28      0.7450   7.7881  30.1345   H         3 RES3   0.0000
   189 H29     -0.8085   7.9982  30.1428   H         3 RES3   0.0000
   190 H30     -0.1442   7.0208  31.1729   H         3 RES3   0.0000
   191 N17      0.2828   9.7002  32.3684   N.1       3 RES3   0.0000
   192 C53      8.8965   9.1724  26.5922   C.1       4 RES4   0.0000
   193 C54      8.9289   8.3752  25.4298   C.3       4 RES4   0.0000
   194 H31      8.8375   8.9343  24.6537   H         4 RES4   0.0000
   195 H32      8.2061   7.7431  25.4538   H         4 RES4   0.0000
   196 H33      9.7640   7.9039  25.3868   H         4 RES4   0.0000
   197 N18      8.8602   9.8349  27.4586   N.1       4 RES4   0.0000
@<TRIPOS>BOND
     1     1     2    1
     2     3     4    1
     3     5     6    1
     4     6     7   ar
     5     7     8    1
     6     9     7   ar
     7    10     9    1
     8    11     9   ar
     9    12    11    1
    10    13    11   ar
    11    14    13   ar
    12    15    14    1
    13    16    14   ar
    14    17    16    1
    15    18    16   ar
    16    19    18    1
    17    20    18   ar
    18    21    20    1
    19    22     6   ar
    20    23    24    1
    21    25    26    1
    22    27    28    1
    23    28    29   ar
    24    29    30    1
    25    31    29   ar
    26    32    31    1
    27    33    31   ar
    28    34    33    1
    29    35    33   ar
    30    36    35   ar
    31    37    36    1
    32    38    36   ar
    33    39    38    1
    34    40    38   ar
    35    41    40    1
    36    42    40   ar
    37    43    42    1
    38    44    28   ar
    39    45    46    1
    40    47    48    1
    41    49    50    1
    42    50    51   ar
    43    51    52    1
    44    53    51   ar
    45    54    53    1
    46    55    53   ar
    47    56    55    1
    48    57    55   ar
    49    58    57   ar
    50    59    58    1
    51    60    58   ar
    52    61    60    1
    53    62    60   ar
    54    63    62    1
    55    64    62   ar
    56    65    64    1
    57    66    50   ar
    58    67     1    2
    59    68    23    2
    60    69    45    2
    61    70     3    2
    62    71    25    2
    63    72    47    2
    64    73     1    1
    65    74     5   am
    66    75    23    1
    67    76    27   am
    68    77    45    1
    69    78    49   am
    70    79     5    2
    71    80    21    2
    72    81    43    2
    73    82    27    2
    74    83    49    2
    75    84    65    2
    76    85    67    1
    77    86    87    1
    78    88    89    1
    79    90    91    1
    80    91    92   ar
    81    92    93    1
    82    94    92   ar
    83    95    94    1
    84    96    94   ar
    85    97    96    1
    86    98    96   ar
    87    99    98   ar
    88   100    99    1
    89   101    99   ar
    90   102   101    1
    91   103   101   ar
    92   104   103    1
    93   105   103   ar
    94   106   105    1
    95   107    91   ar
    96   108   109    1
    97   110   111    1
    98   112   113    1
    99   113   114   ar
   100   114   115    1
   101   116   114   ar
   102   117   116    1
   103   118   116   ar
   104   119   118    1
   105   120   118   ar
   106   121   120   ar
   107   122   121    1
   108   123   121   ar
   109   124   123    1
   110   125   123   ar
   111   126   125    1
   112   127   125   ar
   113   128   127    1
   114   129   113   ar
   115   130   131    1
   116   132   133    1
   117   134   135    1
   118   135   136   ar
   119   136   137    1
   120   138   136   ar
   121   139   138    1
   122   140   138   ar
   123   141   140    1
   124   142   140   ar
   125   143   142   ar
   126   144   143    1
   127   145   143   ar
   128   146   145    1
   129   147   145   ar
   130   148   147    1
   131   149   147   ar
   132   150   149    1
   133   151   135   ar
   134   152    85    1
   135   153    85    1
   136   154    85    1
   137   155    88    2
   138   156   110    2
   139   157   132    2
   140   158    86    1
   141   159    90   am
   142   160   108    1
   143   161   112   am
   144   162   130    1
   145   163   134   am
   146   164    90    2
   147   165   106    2
   148   166   128    2
   149   167   112    2
   150   168   134    2
   151   169   150    2
   152     3    73    1
   153    13    22   ar
   154    20    22   ar
   155    21    74   am
   156    25    75    1
   157    35    44   ar
   158    42    44   ar
   159    43    76   am
   160    47    77    1
   161    57    66   ar
   162    64    66   ar
   163    65    78   am
   164    67    70    1
   165    68    71    1
   166    68    85    1
   167    69    72    1
   168    69    85    1
   169    73    74    1
   170    75    76    1
   171    77    78    1
   172    86   152    2
   173    88   158    1
   174    98   107   ar
   175   105   107   ar
   176   106   159   am
   177   108   153    2
   178   110   160    1
   179   120   129   ar
   180   127   129   ar
   181   128   161   am
   182   130   154    2
   183   132   162    1
   184   142   151   ar
   185   149   151   ar
   186   150   163   am
   187   152   155    1
   188   153   156    1
   189   154   157    1
   190   158   159    1
   191   160   161    1
   192   162   163    1
   193   170   171    1
   194   171   172    1
   195   172   182    3
   196   173   171    2
   197   174   173    1
   198   175   174    1
   199   176   174    1
   200   177   178    1
   201   179   177    1
   202   180   177    1
   203   181   170    3
   204   183   175    3
   205   184   176    3
   206   185   173    1
   207   177   185    1
   208   186   187    1
   209   187   188    1
   210   189   187    1
   211   190   187    1
   212   191   186    3
   213   192   193    1
   214   193   194    1
   215   195   193    1
   216   196   193    1
   217   197   192    3
@<TRIPOS>SUBSTRUCTURE
     1 RES1        1 GROUP             0 ****  ****    0  
     2 RES2      170 GROUP             0 ****  ****    0  
     3 RES3      186 GROUP             0 ****  ****    0  
     4 RES4      192 GROUP             0 ****  ****    0  
@<TRIPOS>CRYSIN
    9.0646   16.0413   35.6560   90.0000   90.1220   90.0000    14     1
