@<TRIPOS>MOLECULE
GOJZIP
   102   108     3     0     0
SMALL
USER_CHARGES
****
Generated from the CSD

@<TRIPOS>ATOM
     1 Fe1      1.8093   5.9393   8.8669   Fe        1 RES1   0.0000
     2 N1       2.7681   4.7742  10.2352   N.2       1 RES1   0.0000
     3 N2       3.2714   3.5726   9.7890   N.pl3     1 RES1   0.0000
     4 N3       3.3114   5.4722   7.5719   N.2       1 RES1   0.0000
     5 N4       3.7412   4.1704   7.5494   N.pl3     1 RES1   0.0000
     6 N5       1.6972   3.1200   8.0668   N.pl3     1 RES1  -1.0000
     7 N6       0.9195   4.2362   8.2573   N.2       1 RES1   0.0000
     8 N7       3.3221   8.4381   9.8021   N.1       1 RES1   0.0000
     9 N8      -0.4602   6.6032  10.8317   N.1       1 RES1   0.0000
    10 N9       0.3220   7.4760   6.6824   N.1       1 RES1   0.0000
    11 C1       3.0937   3.2221   8.4010   C.3       1 RES1   0.0000
    12 H1       3.5069   2.3464   8.2525   H         1 RES1   0.0000
    13 C2       3.0269   4.7978  11.5437   C.2       1 RES1   0.0000
    14 C3       3.7159   3.6315  11.9177   C.2       1 RES1   0.0000
    15 H2       4.0199   3.4243  12.7732   H         1 RES1   0.0000
    16 C4       3.8601   2.8608  10.8035   C.2       1 RES1   0.0000
    17 C5       4.0260   6.0848   6.6133   C.2       1 RES1   0.0000
    18 C6       4.8879   5.1630   5.9960   C.2       1 RES1   0.0000
    19 H3       5.4767   5.3475   5.3019   H         1 RES1   0.0000
    20 C7       4.7122   3.9554   6.5928   C.2       1 RES1   0.0000
    21 C8      -0.3366   3.8298   7.9118   C.2       1 RES1   0.0000
    22 C9      -0.3071   2.4926   7.4943   C.2       1 RES1   0.0000
    23 H4      -1.0349   1.9978   7.1947   H         1 RES1   0.0000
    24 C10      0.9811   2.0450   7.6019   C.2       1 RES1   0.0000
    25 C11      2.6442   5.9533  12.3966   C.3       1 RES1   0.0000
    26 H5       2.1758   6.6012  11.8665   H         1 RES1   0.0000
    27 H6       3.4343   6.3538  12.7655   H         1 RES1   0.0000
    28 H7       2.0753   5.6509  13.1087   H         1 RES1   0.0000
    29 C12      4.5184   1.5256  10.5807   C.3       1 RES1   0.0000
    30 H8       4.4247   1.2723   9.6586   H         1 RES1   0.0000
    31 H9       4.1023   0.8649  11.1391   H         1 RES1   0.0000
    32 H10      5.4517   1.5885  10.8010   H         1 RES1   0.0000
    33 C13      3.8489   7.5339   6.2982   C.3       1 RES1   0.0000
    34 H11      3.1881   7.9099   6.8848   H         1 RES1   0.0000
    35 H12      3.5594   7.6301   5.3864   H         1 RES1   0.0000
    36 H13      4.6836   7.9923   6.4186   H         1 RES1   0.0000
    37 C14      5.3172   2.5987   6.3802   C.3       1 RES1   0.0000
    38 H14      4.9345   1.9772   7.0051   H         1 RES1   0.0000
    39 H15      6.2658   2.6458   6.5159   H         1 RES1   0.0000
    40 H16      5.1360   2.3041   5.4863   H         1 RES1   0.0000
    41 C15     -1.5255   4.7173   8.0220   C.3       1 RES1   0.0000
    42 H17     -1.2519   5.5822   8.3370   H         1 RES1   0.0000
    43 H18     -2.1550   4.3363   8.6392   H         1 RES1   0.0000
    44 H19     -1.9373   4.8076   7.1588   H         1 RES1   0.0000
    45 C16      1.6380   0.7275   7.3022   C.3       1 RES1   0.0000
    46 H20      2.5756   0.7844   7.4995   H         1 RES1   0.0000
    47 H21      1.5195   0.5144   6.3751   H         1 RES1   0.0000
    48 H22      1.2396   0.0412   7.8427   H         1 RES1   0.0000
    49 C17      2.7251   7.5025   9.4460   C.1       1 RES1   0.0000
    50 C18      0.3873   6.3371  10.0992   C.1       1 RES1   0.0000
    51 C19      0.8851   6.9242   7.5174   C.1       1 RES1   0.0000
    52 P1       2.5008   1.6654   2.1302   P.3       2 RES2   1.0000
    53 C20      2.5076   2.4681   0.5251   C.ar      2 RES2   0.0000
    54 C21      1.7629   3.6305   0.2971   C.ar      2 RES2   0.0000
    55 H23      1.2285   3.9839   0.9707   H         2 RES2   0.0000
    56 C22      1.8263   4.2480  -0.9349   C.ar      2 RES2   0.0000
    57 H24      1.3452   5.0295  -1.0809   H         2 RES2   0.0000
    58 C23      2.5955   3.7237  -1.9594   C.ar      2 RES2   0.0000
    59 H25      2.6295   4.1449  -2.7867   H         2 RES2   0.0000
    60 C24      3.3101   2.5673  -1.7289   C.ar      2 RES2   0.0000
    61 H26      3.8275   2.2040  -2.4127   H         2 RES2   0.0000
    62 C25      3.2670   1.9419  -0.4995   C.ar      2 RES2   0.0000
    63 H27      3.7540   1.1604  -0.3637   H         2 RES2   0.0000
    64 C26      1.5275   2.6870   3.2631   C.ar      2 RES2   0.0000
    65 C27      0.1446   2.5673   3.1862   C.ar      2 RES2   0.0000
    66 H28     -0.2426   1.9173   2.6458   H         2 RES2   0.0000
    67 C28     -0.6469   3.4273   3.9239   C.ar      2 RES2   0.0000
    68 H29     -1.5726   3.3507   3.8957   H         2 RES2   0.0000
    69 C29     -0.0444   4.4129   4.7077   C.ar      2 RES2   0.0000
    70 H30     -0.5730   5.0039   5.1943   H         2 RES2   0.0000
    71 C30      1.3185   4.5111   4.7666   C.ar      2 RES2   0.0000
    72 H31      1.7094   5.1659   5.2993   H         2 RES2   0.0000
    73 C31      2.1218   3.6481   4.0468   C.ar      2 RES2   0.0000
    74 H32      3.0485   3.7169   4.0904   H         2 RES2   0.0000
    75 C32      4.2414   1.5384   2.6176   C.ar      2 RES2   0.0000
    76 C33      5.0837   2.6340   2.4998   C.ar      2 RES2   0.0000
    77 H33      4.7389   3.4538   2.2258   H         2 RES2   0.0000
    78 C34      6.4279   2.5182   2.7892   C.ar      2 RES2   0.0000
    79 H34      6.9880   3.2574   2.7124   H         2 RES2   0.0000
    80 C35      6.9357   1.3175   3.1862   C.ar      2 RES2   0.0000
    81 H35      7.8426   1.2399   3.3758   H         2 RES2   0.0000
    82 C36      6.1134   0.2150   3.3092   C.ar      2 RES2   0.0000
    83 H36      6.4710  -0.6008   3.5781   H         2 RES2   0.0000
    84 C37      4.7628   0.3142   3.0377   C.ar      2 RES2   0.0000
    85 H37      4.2073  -0.4261   3.1350   H         2 RES2   0.0000
    86 C38      1.8120   0.0157   2.1003   C.ar      2 RES2   0.0000
    87 C39      1.7239  -0.7167   0.9349   C.ar      2 RES2   0.0000
    88 H38      1.9386  -0.3269   0.1178   H         2 RES2   0.0000
    89 C40      1.3159  -2.0391   0.9938   C.ar      2 RES2   0.0000
    90 H39      1.2512  -2.5388   0.2126   H         2 RES2   0.0000
    91 C41      1.0080  -2.6144   2.2027   C.ar      2 RES2   0.0000
    92 H40      0.7515  -3.5087   2.2386   H         2 RES2   0.0000
    93 C42      1.0738  -1.8791   3.3655   C.ar      2 RES2   0.0000
    94 H41      0.8532  -2.2678   4.1800   H         2 RES2   0.0000
    95 C43      1.4687  -0.5674   3.3066   C.ar      2 RES2   0.0000
    96 H42      1.5072  -0.0638   4.0878   H         2 RES2   0.0000
    97 N10      4.9718   6.5197   2.4640   N.1       3 RES3   0.0000
    98 C44      4.9067   6.1349   1.4061   C.1       3 RES3   0.0000
    99 C45      4.8501   5.6911   0.0307   C.3       3 RES3   0.0000
   100 H43      4.0630   5.1433  -0.0205   H         3 RES3   0.0000
   101 H44      5.6251   5.2454  -0.1050   H         3 RES3   0.0000
   102 H45      4.7388   6.4814  -0.4815   H         3 RES3   0.0000
@<TRIPOS>BOND
     1     1     2    1
     2     2     3    1
     3     3    11    1
     4     4     1    1
     5     5     4    1
     6     6     7    1
     7     7     1    1
     8     8    49    3
     9     9    50    3
    10    10    51    3
    11    11     5    1
    12    12    11    1
    13    13     2    2
    14    14    13    1
    15    15    14    1
    16    16     3    1
    17    17     4    2
    18    18    17    1
    19    19    18    1
    20    20     5    1
    21    21     7    2
    22    22    21    1
    23    23    22    1
    24    24     6    1
    25    25    13    1
    26    26    25    1
    27    27    25    1
    28    28    25    1
    29    29    16    1
    30    30    29    1
    31    31    29    1
    32    32    29    1
    33    33    17    1
    34    34    33    1
    35    35    33    1
    36    36    33    1
    37    37    20    1
    38    38    37    1
    39    39    37    1
    40    40    37    1
    41    41    21    1
    42    42    41    1
    43    43    41    1
    44    44    41    1
    45    45    24    1
    46    46    45    1
    47    47    45    1
    48    48    45    1
    49    49     1    1
    50    50     1    1
    51    51     1    1
    52     6    11    1
    53    14    16    2
    54    18    20    2
    55    22    24    2
    56    52    53    1
    57    53    54   ar
    58    54    55    1
    59    56    54   ar
    60    57    56    1
    61    58    56   ar
    62    59    58    1
    63    60    58   ar
    64    61    60    1
    65    62    53   ar
    66    63    62    1
    67    64    52    1
    68    65    64   ar
    69    66    65    1
    70    67    65   ar
    71    68    67    1
    72    69    67   ar
    73    70    69    1
    74    71    69   ar
    75    72    71    1
    76    73    64   ar
    77    74    73    1
    78    75    52    1
    79    76    75   ar
    80    77    76    1
    81    78    76   ar
    82    79    78    1
    83    80    78   ar
    84    81    80    1
    85    82    80   ar
    86    83    82    1
    87    84    75   ar
    88    85    84    1
    89    86    52    1
    90    87    86   ar
    91    88    87    1
    92    89    87   ar
    93    90    89    1
    94    91    89   ar
    95    92    91    1
    96    93    91   ar
    97    94    93    1
    98    95    86   ar
    99    96    95    1
   100    60    62   ar
   101    71    73   ar
   102    82    84   ar
   103    93    95   ar
   104    97    98    3
   105    98    99    1
   106    99   100    1
   107   101    99    1
   108   102    99    1
@<TRIPOS>SUBSTRUCTURE
     1 RES1        1 GROUP             0 ****  ****    0  
     2 RES2       52 GROUP             0 ****  ****    0  
     3 RES3       97 GROUP             0 ****  ****    0  
@<TRIPOS>CRYSIN
   16.3681    9.8174   26.4563   90.0000  104.5060   90.0000    14     1
