@<TRIPOS>MOLECULE
GOLNEE
    86    99     2     0     0
SMALL
USER_CHARGES
****
Generated from the CSD

@<TRIPOS>ATOM
     1 Ba1      5.3174  10.4184  12.1904   Ba        1 RES1   0.0000
     2 O1       3.0675   8.6729  11.6248   O.3       1 RES1   0.0000
     3 O2       6.8298   9.8082   9.8222   O.3       1 RES1   0.0000
     4 O3       7.3092  11.0835   8.1335   O.2       1 RES1   0.0000
     5 O4       6.7265  12.9188  12.9885   O.3       1 RES1   0.0000
     6 O5       4.8319   7.7674  10.7942   O.3       1 RES1   0.0000
     7 O6       2.9670   6.6424  10.8544   O.2       1 RES1   0.0000
     8 N1       3.6086   7.6827  11.0917   N.pl3     1 RES1   0.0000
     9 O7       7.0208  11.3481  14.4448   O.3       1 RES1   0.0000
    10 O8       7.7269  13.3721  14.8642   O.2       1 RES1   0.0000
    11 N2       6.8941  10.9499   9.3119   N.pl3     1 RES1   0.0000
    12 O9       6.5663  11.9414  10.0173   O.3       1 RES1  -1.0000
    13 N3       7.1564  12.5579  14.1116   N.pl3     1 RES1   0.0000
    14 O1A      7.5672   8.6729  12.7561   O.3       1 RES1   0.0000
    15 O2A      3.8049   9.8082  14.5586   O.3       1 RES1  -1.0000
    16 O3A      3.3255  11.0835  16.2474   O.2       1 RES1   0.0000
    17 O4A      3.9082  12.9188  11.3924   O.3       1 RES1   0.0000
    18 O5A      5.8028   7.7674  13.5866   O.3       1 RES1  -1.0000
    19 O6A      7.6677   6.6424  13.5265   O.2       1 RES1   0.0000
    20 N1A      7.0261   7.6827  13.2892   N.pl3     1 RES1   0.0000
    21 O7A      3.6139  11.3481   9.9360   O.3       1 RES1  -1.0000
    22 O8A      2.9078  13.3721   9.5167   O.2       1 RES1   0.0000
    23 N2A      3.7407  10.9499  15.0690   N.pl3     1 RES1   0.0000
    24 O9A      4.0685  11.9414  14.3636   O.3       1 RES1   0.0000
    25 N3A      3.4784  12.5579  10.2692   N.pl3     1 RES1   0.0000
    26 Fe1     11.8453   8.1897  10.1728   Fe        2 RES2   2.0000
    27 N4      10.2324   7.0508   9.9149   N.ar      2 RES2   0.0000
    28 N5      13.5655   9.1442  10.5049   N.ar      2 RES2   0.0000
    29 N6      11.5790   8.9683   8.3415   N.ar      2 RES2   0.0000
    30 N7      12.7457   6.5525   9.4679   N.ar      2 RES2   0.0000
    31 N8      12.1018   7.6788  12.0734   N.ar      2 RES2   0.0000
    32 N9      10.8080   9.8210  10.6804   N.ar      2 RES2   0.0000
    33 C1      11.8940   5.5739   9.0404   C.ar      2 RES2   0.0000
    34 C2      10.4752   5.8448   9.3444   C.ar      2 RES2   0.0000
    35 C3      12.3504   4.4437   8.3838   C.ar      2 RES2   0.0000
    36 H1      11.7495   3.8047   8.0760   H         2 RES2   0.0000
    37 C4      14.0650   6.3573   9.2940   C.ar      2 RES2   0.0000
    38 H2      14.6571   6.9998   9.6134   H         2 RES2   0.0000
    39 C5       7.9058   6.4896  10.0725   C.ar      2 RES2   0.0000
    40 H3       7.0446   6.7225  10.3366   H         2 RES2   0.0000
    41 C6      14.0442   9.0184  11.7613   C.ar      2 RES2   0.0000
    42 C7       8.1630   5.2669   9.4776   C.ar      2 RES2   0.0000
    43 H4       7.4719   4.6619   9.3344   H         2 RES2   0.0000
    44 C8      11.9440   8.4250   7.1663   C.ar      2 RES2   0.0000
    45 H5      12.3952   7.6124   7.1695   H         2 RES2   0.0000
    46 C9       8.9822   7.3642  10.2660   C.ar      2 RES2   0.0000
    47 H6       8.8209   8.1950  10.6526   H         2 RES2   0.0000
    48 C10     14.2696   9.8673   9.6207   C.ar      2 RES2   0.0000
    49 H7      13.9409   9.9663   8.7564   H         2 RES2   0.0000
    50 C11     13.7064   4.2729   8.1887   C.ar      2 RES2   0.0000
    51 H8      14.0270   3.5189   7.7490   H         2 RES2   0.0000
    52 C12     14.5791   5.2374   8.6552   C.ar      2 RES2   0.0000
    53 H9      15.4981   5.1372   8.5419   H         2 RES2   0.0000
    54 C13     15.2471   9.5924  12.1319   C.ar      2 RES2   0.0000
    55 H10     15.5694   9.4743  12.9958   H         2 RES2   0.0000
    56 C14      9.4664   4.9446   9.0941   C.ar      2 RES2   0.0000
    57 H11      9.6484   4.1335   8.6763   H         2 RES2   0.0000
    58 C15     13.1866   8.2491  12.6650   C.ar      2 RES2   0.0000
    59 C16     11.6728   9.0312   5.9489   C.ar      2 RES2   0.0000
    60 H12     11.9288   8.6257   5.1520   H         2 RES2   0.0000
    61 C17     10.9058  10.1511   8.3204   C.ar      2 RES2   0.0000
    62 C18     10.3907  10.1704  11.9011   C.ar      2 RES2   0.0000
    63 H13     10.6095   9.6228  12.6208   H         2 RES2   0.0000
    64 C19     12.5167   7.4554  14.8252   C.ar      2 RES2   0.0000
    65 H14     12.6512   7.3804  15.7420   H         2 RES2   0.0000
    66 C20     10.4907  10.6468   9.6353   C.ar      2 RES2   0.0000
    67 C21     11.2410   7.0059  12.8503   C.ar      2 RES2   0.0000
    68 H15     10.5056   6.6016  12.4524   H         2 RES2   0.0000
    69 C22     10.6297  10.8061   7.1273   C.ar      2 RES2   0.0000
    70 H16     10.1855  11.6225   7.1347   H         2 RES2   0.0000
    71 C23     13.4115   8.1271  14.0434   C.ar      2 RES2   0.0000
    72 H17     14.1691   8.5050  14.4256   H         2 RES2   0.0000
    73 C24     11.4053   6.8864  14.2270   C.ar      2 RES2   0.0000
    74 H18     10.7770   6.4299  14.7391   H         2 RES2   0.0000
    75 C25      9.6435  11.3121  12.1400   C.ar      2 RES2   0.0000
    76 H19      9.3393  11.5049  12.9985   H         2 RES2   0.0000
    77 C26      9.7909  11.8258   9.8336   C.ar      2 RES2   0.0000
    78 H20      9.6177  12.3908   9.1149   H         2 RES2   0.0000
    79 C27      9.3560  12.1598  11.0917   C.ar      2 RES2   0.0000
    80 H21      8.8732  12.9422  11.2346   H         2 RES2   0.0000
    81 C28     11.0144  10.2474   5.9408   C.ar      2 RES2   0.0000
    82 H22     10.8361  10.6803   5.1366   H         2 RES2   0.0000
    83 C29     15.4716  10.4722   9.9539   C.ar      2 RES2   0.0000
    84 H23     15.9394  10.9670   9.3200   H         2 RES2   0.0000
    85 C30     15.9646  10.3360  11.2249   C.ar      2 RES2   0.0000
    86 H24     16.7657  10.7376  11.4704   H         2 RES2   0.0000
@<TRIPOS>BOND
     1     1     2    1
     2     2     8    1
     3     3     1    1
     4     4    11    2
     5     5     1    1
     6     6     1    1
     7     7     8    2
     8     8     6    1
     9     9     1    1
    10    10    13    2
    11    11     3    1
    12    12     1    1
    13    13     5    1
    14    14     1    1
    15    15     1    1
    16    16    23    2
    17    17     1    1
    18    18     1    1
    19    19    20    2
    20    20    14    1
    21    21     1    1
    22    22    25    2
    23    23    15    1
    24    24     1    1
    25    25    17    1
    26     9    13    1
    27    11    12    1
    28    18    20    1
    29    21    25    1
    30    23    24    1
    31    26    27    1
    32    27    34   ar
    33    28    26    1
    34    29    26    1
    35    30    26    1
    36    31    26    1
    37    32    26    1
    38    33    30   ar
    39    34    33    1
    40    35    33   ar
    41    36    35    1
    42    37    30   ar
    43    38    37    1
    44    39    40    1
    45    41    28   ar
    46    42    39   ar
    47    43    42    1
    48    44    29   ar
    49    45    44    1
    50    46    27   ar
    51    47    46    1
    52    48    28   ar
    53    49    48    1
    54    50    35   ar
    55    51    50    1
    56    52    37   ar
    57    53    52    1
    58    54    41   ar
    59    55    54    1
    60    56    34   ar
    61    57    56    1
    62    58    31   ar
    63    59    44   ar
    64    60    59    1
    65    61    29   ar
    66    62    32   ar
    67    63    62    1
    68    64    65    1
    69    66    32   ar
    70    67    31   ar
    71    68    67    1
    72    69    61   ar
    73    70    69    1
    74    71    58   ar
    75    72    71    1
    76    73    64   ar
    77    74    73    1
    78    75    62   ar
    79    76    75    1
    80    77    66   ar
    81    78    77    1
    82    79    75   ar
    83    80    79    1
    84    81    59   ar
    85    82    81    1
    86    83    48   ar
    87    84    83    1
    88    85    54   ar
    89    86    85    1
    90    39    46   ar
    91    41    58    1
    92    42    56   ar
    93    50    52   ar
    94    61    66    1
    95    64    71   ar
    96    67    73   ar
    97    69    81   ar
    98    77    79   ar
    99    83    85   ar
@<TRIPOS>SUBSTRUCTURE
     1 RES1        1 GROUP             0 ****  ****    0  
     2 RES2       26 GROUP             0 ****  ****    0  
@<TRIPOS>CRYSIN
   28.7640   12.8430   20.2550   90.0000  126.6340   90.0000    15     1
