@<TRIPOS>MOLECULE
GOLVEK
    90   101     3     0     0
SMALL
USER_CHARGES
****
Generated from the CSD

@<TRIPOS>ATOM
     1 Fe1     -0.6810  11.0607   5.2500   Fe        1 RES1   2.0000
     2 N1      -0.6810   9.1297   5.2500   N.ar      1 RES1   0.0000
     3 C1       0.4634   8.4474   4.9123   C.ar      1 RES1   0.0000
     4 C2       0.4985   7.0420   4.9256   C.ar      1 RES1   0.0000
     5 H1       1.2993   6.5728   4.7208   H         1 RES1   0.0000
     6 C3      -0.6810   6.3453   5.2500   C.ar      1 RES1   0.0000
     7 H2      -0.6810   5.3947   5.2500   H         1 RES1   0.0000
     8 C4       1.5074   9.4219   4.5392   C.2       1 RES1   0.0000
     9 N2       1.2007  10.7343   4.6570   N.2       1 RES1   0.0000
    10 C5       2.3041  11.4459   4.1488   C.ar      1 RES1   0.0000
    11 C6       2.5190  12.8342   3.9720   C.ar      1 RES1   0.0000
    12 H3       1.8795  13.4720   4.2651   H         1 RES1   0.0000
    13 C7       3.7088  13.2315   3.3489   C.ar      1 RES1   0.0000
    14 H4       3.8732  14.1564   3.2025   H         1 RES1   0.0000
    15 C8       4.6757  12.2744   2.9331   C.ar      1 RES1   0.0000
    16 H5       5.4710  12.5799   2.5116   H         1 RES1   0.0000
    17 C9       4.4979  10.9032   3.1204   C.ar      1 RES1   0.0000
    18 H6       5.1569  10.2724   2.8539   H         1 RES1   0.0000
    19 C10      3.2855  10.5008   3.7284   C.ar      1 RES1   0.0000
    20 N3       2.7566   9.2320   4.0020   N.pl3     1 RES1   0.0000
    21 H7       3.1509   8.4586   3.8556   H         1 RES1   0.0000
    22 N4      -0.6810  12.9859   5.2500   N.ar      1 RES1   0.0000
    23 C11     -0.3437  13.6718   6.3920   C.ar      1 RES1   0.0000
    24 C12     -0.3154  15.0760   6.4172   C.ar      1 RES1   0.0000
    25 H8      -0.0560  15.5443   7.2030   H         1 RES1   0.0000
    26 C13     -0.6810  15.7744   5.2500   C.ar      1 RES1   0.0000
    27 H9      -0.6810  16.7245   5.2500   H         1 RES1   0.0000
    28 C14     -0.0876  12.7007   7.4714   C.2       1 RES1   0.0000
    29 N5      -0.1609  11.3872   7.1541   N.2       1 RES1   0.0000
    30 C15      0.0410  10.6841   8.3557   C.ar      1 RES1   0.0000
    31 C16      0.0083   9.2962   8.6352   C.ar      1 RES1   0.0000
    32 H10     -0.1207   8.6536   7.9464   H         1 RES1   0.0000
    33 C17      0.1742   8.9119   9.9696   C.ar      1 RES1   0.0000
    34 H11      0.1435   7.9883  10.1934   H         1 RES1   0.0000
    35 C18      0.3884   9.8690  11.0023   C.ar      1 RES1   0.0000
    36 H12      0.5113   9.5647  11.8944   H         1 RES1   0.0000
    37 C19      0.4229  11.2406  10.7453   C.ar      1 RES1   0.0000
    38 H13      0.5618  11.8764  11.4387   H         1 RES1   0.0000
    39 C20      0.2403  11.6347   9.3977   C.ar      1 RES1   0.0000
    40 N6       0.1564  12.9003   8.8051   N.pl3     1 RES1   0.0000
    41 H14      0.2441  13.6754   9.2106   H         1 RES1   0.0000
    42 C1A     -1.8254   8.4474   5.5877   C.ar      1 RES1   0.0000
    43 C2A     -1.8605   7.0420   5.5745   C.ar      1 RES1   0.0000
    44 H1A     -2.6614   6.5728   5.7792   H         1 RES1   0.0000
    45 C4A     -2.8695   9.4219   5.9609   C.2       1 RES1   0.0000
    46 N2A     -2.5628  10.7343   5.8431   N.2       1 RES1   0.0000
    47 C5A     -3.6661  11.4459   6.3513   C.ar      1 RES1   0.0000
    48 C6A     -3.8811  12.8342   6.5281   C.ar      1 RES1   0.0000
    49 H3A     -3.2415  13.4720   6.2349   H         1 RES1   0.0000
    50 C7A     -5.0708  13.2315   7.1511   C.ar      1 RES1   0.0000
    51 H4A     -5.2352  14.1564   7.2975   H         1 RES1   0.0000
    52 C8A     -6.0377  12.2744   7.5670   C.ar      1 RES1   0.0000
    53 H5A     -6.8330  12.5799   7.9884   H         1 RES1   0.0000
    54 C9A     -5.8599  10.9032   7.3796   C.ar      1 RES1   0.0000
    55 H6A     -6.5190  10.2724   7.6461   H         1 RES1   0.0000
    56 C10A    -4.6475  10.5008   6.7717   C.ar      1 RES1   0.0000
    57 N3A     -4.1186   9.2320   6.4980   N.pl3     1 RES1   0.0000
    58 H7A     -4.5129   8.4586   6.6444   H         1 RES1   0.0000
    59 C11A    -1.0184  13.6718   4.1080   C.ar      1 RES1   0.0000
    60 C12A    -1.0466  15.0760   4.0828   C.ar      1 RES1   0.0000
    61 H8A     -1.3060  15.5443   3.2970   H         1 RES1   0.0000
    62 C14A    -1.2745  12.7007   3.0286   C.2       1 RES1   0.0000
    63 N5A     -1.2011  11.3872   3.3459   N.2       1 RES1   0.0000
    64 C15A    -1.4030  10.6841   2.1443   C.ar      1 RES1   0.0000
    65 C16A    -1.3703   9.2962   1.8648   C.ar      1 RES1   0.0000
    66 H10A    -1.2414   8.6536   2.5536   H         1 RES1   0.0000
    67 C17A    -1.5363   8.9119   0.5305   C.ar      1 RES1   0.0000
    68 H11A    -1.5056   7.9883   0.3066   H         1 RES1   0.0000
    69 C18A    -1.7504   9.8690  -0.5023   C.ar      1 RES1   0.0000
    70 H12A    -1.8734   9.5647  -1.3944   H         1 RES1   0.0000
    71 C19A    -1.7849  11.2406  -0.2453   C.ar      1 RES1   0.0000
    72 H13A    -1.9238  11.8764  -0.9387   H         1 RES1   0.0000
    73 C20A    -1.6023  11.6347   1.1023   C.ar      1 RES1   0.0000
    74 N6A     -1.5185  12.9003   1.6949   N.pl3     1 RES1   0.0000
    75 H14A    -1.6061  13.6754   1.2894   H         1 RES1   0.0000
    76 B1      -0.3250  15.2182  12.0461   B         2 RES2  -1.0000
    77 F1      -0.3032  15.0313  10.6414   F         2 RES2   0.0000
    78 F2       0.1153  16.5153  12.3613   F         2 RES2   0.0000
    79 F3      -1.6253  15.0531  12.5192   F         2 RES2   0.0000
    80 F4       0.5354  14.2765  12.6521   F         2 RES2   0.0000
    81 C21      5.2597   7.0432   2.0171   C.2       3 RES3   0.0000
    82 O1       4.9223   7.4814   3.1244   O.2       3 RES3   0.0000
    83 C22      4.7775   7.6672   0.7306   C.3       3 RES3   0.0000
    84 H15      4.5043   8.5943   0.8988   H         3 RES3   0.0000
    85 H16      4.0131   7.1598   0.3864   H         3 RES3   0.0000
    86 H17      5.5018   7.6556   0.0693   H         3 RES3   0.0000
    87 C23      6.1655   5.8293   1.9018   C.3       3 RES3   0.0000
    88 H18      6.3318   5.4604   2.7951   H         3 RES3   0.0000
    89 H19      7.0169   6.0940   1.4931   H         3 RES3   0.0000
    90 H20      5.7335   5.1510   1.3419   H         3 RES3   0.0000
@<TRIPOS>BOND
     1     1     2    1
     2     2     3   ar
     3     3     4   ar
     4     4     5    1
     5     6     4   ar
     6     7     6    1
     7     8     3    1
     8     9     1    1
     9    10     9    1
    10    11    10   ar
    11    12    11    1
    12    13    11   ar
    13    14    13    1
    14    15    13   ar
    15    16    15    1
    16    17    15   ar
    17    18    17    1
    18    19    10   ar
    19    20     8    1
    20    21    20    1
    21    22     1    1
    22    23    22   ar
    23    24    23   ar
    24    25    24    1
    25    26    24   ar
    26    27    26    1
    27    28    23    1
    28    29     1    1
    29    30    29    1
    30    31    30   ar
    31    32    31    1
    32    33    31   ar
    33    34    33    1
    34    35    33   ar
    35    36    35    1
    36    37    35   ar
    37    38    37    1
    38    39    30   ar
    39    40    28    1
    40    41    40    1
    41    42     2   ar
    42    43     6   ar
    43    44    43    1
    44    45    42    1
    45    46     1    1
    46    47    46    1
    47    48    47   ar
    48    49    48    1
    49    50    48   ar
    50    51    50    1
    51    52    50   ar
    52    53    52    1
    53    54    52   ar
    54    55    54    1
    55    56    47   ar
    56    57    45    1
    57    58    57    1
    58    59    22   ar
    59    60    26   ar
    60    61    60    1
    61    62    59    1
    62    63     1    1
    63    64    63    1
    64    65    64   ar
    65    66    65    1
    66    67    65   ar
    67    68    67    1
    68    69    67   ar
    69    70    69    1
    70    71    69   ar
    71    72    71    1
    72    73    64   ar
    73    74    62    1
    74    75    74    1
    75     8     9    2
    76    17    19   ar
    77    19    20    1
    78    28    29    2
    79    37    39   ar
    80    39    40    1
    81    42    43   ar
    82    45    46    2
    83    54    56   ar
    84    56    57    1
    85    59    60   ar
    86    62    63    2
    87    71    73   ar
    88    73    74    1
    89    76    77    1
    90    78    76    1
    91    79    76    1
    92    80    76    1
    93    81    82    2
    94    83    81    1
    95    84    83    1
    96    85    83    1
    97    86    83    1
    98    87    81    1
    99    88    87    1
   100    89    87    1
   101    90    87    1
@<TRIPOS>SUBSTRUCTURE
     1 RES1        1 GROUP             0 ****  ****    0  
     2 RES2       76 GROUP             0 ****  ****    0  
     3 RES3       81 GROUP             0 ****  ****    0  
@<TRIPOS>CRYSIN
    9.6308   21.1890   21.1760   90.0000   97.3910   90.0000    15     1
