@<TRIPOS>MOLECULE
GOPJEC
   171   187    10     0     0
SMALL
USER_CHARGES
****
Generated from the CSD

@<TRIPOS>ATOM
     1 C1       5.3127   3.0662   5.6481   C.3       1 RES1   0.0000
     2 H1       5.0881   3.2626   6.5720   H         1 RES1   0.0000
     3 H2       5.3927   2.1026   5.5803   H         1 RES1   0.0000
     4 C2       6.5623   3.5842   5.4283   C.3       1 RES1   0.0000
     5 H3       7.1748   3.0907   5.9966   H         1 RES1   0.0000
     6 H4       6.5521   4.4967   5.7557   H         1 RES1   0.0000
     7 C3       4.6061   4.1304   3.2018   C.2       1 RES1   0.0000
     8 C4       5.9369   4.2277   2.8650   C.2       1 RES1   0.0000
     9 C5       4.6428   5.3720   0.9589   C.2       1 RES1   0.0000
    10 C6       4.2936   6.0257  -0.1965   C.2       1 RES1   0.0000
    11 C7       2.9667   7.1956  -2.0628   C.2       1 RES1   0.0000
    12 C8       4.2646   7.4074  -2.3902   C.2       1 RES1   0.0000
    13 C9       2.2047   8.4423  -4.4296   C.3       1 RES1   0.0000
    14 H5       1.5362   8.3867  -5.1313   H         1 RES1   0.0000
    15 H6       2.3673   9.3816  -4.2542   H         1 RES1   0.0000
    16 C10      3.4720   7.8248  -4.9301   C.3       1 RES1   0.0000
    17 H7       3.6648   8.1718  -5.8165   H         1 RES1   0.0000
    18 H8       3.3502   6.8652  -5.0073   H         1 RES1   0.0000
    19 S1       3.9045   3.5314   4.6710   S.3       1 RES1   0.0000
    20 S2       7.2949   3.6233   3.7703   S.3       1 RES1   0.0000
    21 S3       3.4652   4.7876   2.0701   S.3       1 RES1   0.0000
    22 S4       6.3000   5.0479   1.3771   S.3       1 RES1   0.0000
    23 S5       2.6316   6.2317  -0.6570   S.3       1 RES1   1.0000
    24 S6       5.4530   6.6763  -1.3092   S.3       1 RES1   0.0000
    25 S7       1.5296   7.6859  -2.9296   S.3       1 RES1   0.0000
    26 S8       4.8902   8.1605  -3.8361   S.3       1 RES1   0.0000
    27 C11      2.5724   0.1897   6.2048   C.3       2 RES2   0.0000
    28 H9       2.8824   1.1065   6.2820   H         2 RES2   0.0000
    29 H10      1.9379   0.0416   6.9228   H         2 RES2   0.0000
    30 C12      3.7016  -0.6787   6.4223   C.3       2 RES2   0.0000
    31 H11      3.3516  -1.5727   6.5649   H         2 RES2   0.0000
    32 H12      4.1166  -0.4062   7.2572   H         2 RES2   0.0000
    33 C13      3.0363   0.2692   3.5456   C.2       2 RES2   0.0000
    34 C14      4.3243  -0.0441   3.7865   C.2       2 RES2   0.0000
    35 C15      4.3063   1.1320   1.4875   C.2       2 RES2   0.0000
    36 C16      4.6522   1.6940   0.2853   C.2       2 RES2   0.0000
    37 C17      4.6260   3.0046  -1.9318   C.2       2 RES2   0.0000
    38 C18      5.9258   2.8278  -1.6465   C.2       2 RES2   0.0000
    39 C19      5.3996   3.9890  -4.3642   C.3       2 RES2   0.0000
    40 H13      5.3115   3.2921  -5.0330   H         2 RES2   0.0000
    41 H14      5.2900   4.8282  -4.8366   H         2 RES2   0.0000
    42 C20      6.6287   3.9606  -4.0133   C.3       2 RES2   0.0000
    43 H15      6.9438   4.8702  -4.1256   H         2 RES2   0.0000
    44 H16      7.0735   3.4389  -4.6986   H         2 RES2   0.0000
    45 S9       3.9508   3.8371  -3.3367   S.3       2 RES2   0.0000
    46 S10      7.3295   3.4230  -2.5086   S.3       2 RES2   0.0000
    47 S11      1.6889   0.0357   4.6500   S.3       2 RES2   0.0000
    48 S12      5.0075  -0.8102   5.2014   S.3       2 RES2   0.0000
    49 S13      2.6562   1.0999   2.0534   S.3       2 RES2   0.0000
    50 S14      5.4839   0.4221   2.5640   S.3       2 RES2   0.0000
    51 S15      3.4550   2.3195  -0.8291   S.3       2 RES2   0.0000
    52 S16      6.3096   1.8539  -0.2374   S.3       2 RES2   0.0000
    53 C21     11.9660   3.5932   5.9218   C.3       3 RES3   0.0000
    54 H17     12.0892   4.4947   6.2609   H         3 RES3   0.0000
    55 H18     11.7457   3.0321   6.6819   H         3 RES3   0.0000
    56 C22     13.2132   3.1560   5.4213   C.3       3 RES3   0.0000
    57 H19     13.1526   2.1917   5.3441   H         3 RES3   0.0000
    58 H20     13.8648   3.3346   6.1182   H         3 RES3   0.0000
    59 C23     11.2405   4.2063   3.3421   C.2       3 RES3   0.0000
    60 C24     12.5350   4.2967   3.0077   C.2       3 RES3   0.0000
    61 C25     11.3050   5.3742   1.0267   C.2       3 RES3   0.0000
    62 C26     10.9831   5.9896  -0.1216   C.2       3 RES3   0.0000
    63 C27      9.6935   7.0795  -2.0838   C.2       3 RES3   0.0000
    64 C28     10.9833   7.2132  -2.4089   C.2       3 RES3   0.0000
    65 C29      8.9362   8.2610  -4.4437   C.3       3 RES3   0.0000
    66 H21      8.2537   8.1656  -5.1266   H         3 RES3   0.0000
    67 H22      9.0732   9.2111  -4.3080   H         3 RES3   0.0000
    68 C30     10.1942   7.6992  -4.9863   C.3       3 RES3   0.0000
    69 H23     10.3885   8.1376  -5.8306   H         3 RES3   0.0000
    70 H24     10.0560   6.7583  -5.1734   H         3 RES3   0.0000
    71 S17     10.5313   3.6219   4.8406   S.3       3 RES3   0.0000
    72 S18     13.9338   3.7262   3.9135   S.3       3 RES3   0.0000
    73 S19     10.0974   4.8239   2.1704   S.3       3 RES3   0.0000
    74 S20     12.9654   5.0338   1.4818   S.3       3 RES3   0.0000
    75 S21      9.3108   6.2739  -0.5849   S.3       3 RES3   1.0000
    76 S22     12.1679   6.5666  -1.2746   S.3       3 RES3   0.0000
    77 S23      8.3017   7.6121  -2.9780   S.3       3 RES3   0.0000
    78 S24     11.6425   7.8667  -3.9029   S.3       3 RES3   0.0000
    79 C31      9.1356  -0.8047   6.0107   C.3       4 RES4   0.0000
    80 H25      8.5513  -0.7216   6.7801   H         4 RES4   0.0000
    81 H26      9.1754  -1.7463   5.7791   H         4 RES4   0.0000
    82 C32     10.5028  -0.3707   6.4176   C.3       4 RES4   0.0000
    83 H27     10.7356  -0.7993   7.2549   H         4 RES4   0.0000
    84 H28     10.5003   0.5873   6.5649   H         4 RES4   0.0000
    85 C33      9.7378   0.3065   3.5479   C.2       4 RES4   0.0000
    86 C34     11.0437   0.0049   3.7865   C.2       4 RES4   0.0000
    87 C35     10.9946   1.1510   1.4641   C.2       4 RES4   0.0000
    88 C36     11.3316   1.6937   0.2573   C.2       4 RES4   0.0000
    89 C37     11.3228   2.9163  -2.0090   C.2       4 RES4   0.0000
    90 C38     12.6469   2.6839  -1.7400   C.2       4 RES4   0.0000
    91 C39     12.0810   3.6471  -4.5559   C.3       4 RES4   0.0000
    92 H29     12.2208   2.7276  -4.8342   H         4 RES4   0.0000
    93 H30     11.8740   4.1649  -5.3488   H         4 RES4   0.0000
    94 C40     13.3711   4.1735  -3.9525   C.3       4 RES4   0.0000
    95 H31     13.2057   5.0528  -3.5783   H         4 RES4   0.0000
    96 H32     14.0305   4.2726  -4.6588   H         4 RES4   0.0000
    97 S25     10.6578   3.7071  -3.4326   S.3       4 RES4   0.0000
    98 S26     14.0494   3.1028  -2.6625   S.3       4 RES4   0.0000
    99 S27      8.3837   0.0784   4.6359   S.3       4 RES4   0.0000
   100 S28     11.7498  -0.7685   5.1947   S.3       4 RES4   0.0000
   101 S29      9.3668   1.1160   2.0729   S.3       4 RES4   0.0000
   102 S30     12.1722   0.4531   2.5320   S.3       4 RES4   0.0000
   103 S31     10.1640   2.3572  -0.8340   S.3       4 RES4   1.0000
   104 S32     12.9837   1.8212  -0.2624   S.3       4 RES4   0.0000
   105 C41     -3.0187   6.0577   9.6241   C.3       5 RES5   0.0000
   106 H33     -3.0370   7.0198   9.7504   H         5 RES5   0.0000
   107 H34     -2.0872   5.7872   9.6124   H         5 RES5   0.0000
   108 C42     -3.6071   5.7574   8.2652   C.3       5 RES5   0.0000
   109 H35     -3.4694   4.8143   8.0805   H         5 RES5   0.0000
   110 H36     -3.1029   6.2557   7.6034   H         5 RES5   0.0000
   111 C43     -5.3773   4.9083  10.5362   C.2       5 RES5   0.0000
   112 C44     -5.9952   5.2169   9.3294   C.2       5 RES5   0.0000
   113 C45     -7.6985   3.8312  10.7069   C.2       5 RES5   0.0000
   114 C46     -8.8103   3.1207  11.1419   C.2       5 RES5   0.0000
   115 C47    -10.3552   1.5299  12.4119   C.2       5 RES5   0.0000
   116 C48    -11.0031   1.8648  11.2659   C.2       5 RES5   0.0000
   117 C49    -12.4197  -0.0281  13.1159   C.3       5 RES5   0.0000
   118 H37    -12.3920  -0.9974  13.1042   H         5 RES5   0.0000
   119 H38    -13.0134   0.2065  13.8456   H         5 RES5   0.0000
   120 C50    -13.0660   0.2664  12.0961   C.3       5 RES5   0.0000
   121 H39    -13.8985   0.6412  12.4236   H         5 RES5   0.0000
   122 H40    -13.2979  -0.5820  11.6892   H         5 RES5   0.0000
   123 S33     -3.7738   5.3165  11.0212   S.3       5 RES5   0.0000
   124 S34     -5.3447   6.1184   8.0220   S.3       5 RES5   0.0000
   125 S35    -10.9102   0.4162  13.6603   S.3       5 RES5   0.0000
   126 S36    -12.5745   1.3342  10.7202   S.3       5 RES5   0.0000
   127 S37     -6.2772   3.9779  11.6653   S.3       5 RES5   0.0000
   128 S38     -7.6300   4.6033   9.1542   S.3       5 RES5   0.0000
   129 S39     -8.8192   2.2980  12.6593   S.3       5 RES5   1.0000
   130 S40    -10.2042   2.9450  10.1807   S.3       5 RES5   0.0000
   131 C51     -0.4932   8.4387  12.4937   C.2       6 RES6   0.0000
   132 C52     -2.3719  10.4445   8.4173   C.2       6 RES6   0.0000
   133 C53      1.7425   8.0610   8.1085   C.2       6 RES6   0.0000
   134 C54      0.9181   8.9004  12.3300   C.2       6 RES6   0.0000
   135 C55     -1.5272  11.5544   9.0440   C.2       6 RES6   0.0000
   136 C56      0.9198   6.8702   8.6184   C.2       6 RES6   0.0000
   137 C57      1.7706   8.8966  13.3918   C.2       6 RES6   0.0000
   138 C58     -1.8570  12.8520   8.8593   C.2       6 RES6   0.0000
   139 C59      1.3060   5.6641   8.2535   C.2       6 RES6   0.0000
   140 C60      1.4241   8.3229  14.6431   C.2       6 RES6   0.0000
   141 C61     -2.9980  13.2556   8.1085   C.2       6 RES6   0.0000
   142 C62      2.5450   5.3392   7.6244   C.2       6 RES6   0.0000
   143 C63     -0.0024   7.7123  14.7787   C.2       6 RES6   0.0000
   144 C64     -3.9031  12.1176   7.5215   C.2       6 RES6   0.0000
   145 C65      3.4493   6.5566   7.2034   C.2       6 RES6   0.0000
   146 C66     -0.9066   7.9144  13.6912   C.2       6 RES6   0.0000
   147 C67     -3.4680  10.7745   7.6992   C.2       6 RES6   0.0000
   148 C68      2.9244   7.8619   7.4467   C.2       6 RES6   0.0000
   149 Cl1      0.3278   4.2733   8.8081   Cl        6 RES6   0.0000
   150 O1       2.1378   8.2881  15.6324   O.2       6 RES6   0.0000
   151 O2      -3.3429  14.4077   7.9004   O.2       6 RES6   0.0000
   152 O3       2.9499   4.1971   7.3742   O.2       6 RES6   0.0000
   153 O4      -0.2839   7.1076  15.8054   O.2       6 RES6   0.0000
   154 O5      -4.9172  12.4479   6.9251   O.2       6 RES6   0.0000
   155 O6       4.5244   6.2924   6.6889   O.2       6 RES6   0.0000
   156 Cl2      3.3590   9.6194  13.2412   Cl        6 RES6   0.0000
   157 Cl3     -2.5543   7.3969  13.8928   Cl        6 RES6   0.0000
   158 Cl4     -0.8524  14.0816   9.5593   Cl        6 RES6   0.0000
   159 Cl5     -4.4156   9.5131   6.9703   Cl        6 RES6   0.0000
   160 Cl6      3.8270   9.2266   6.9024   Cl        6 RES6   0.0000
   161 Fe1     -0.2723   9.1522   9.7852   Fe        6 RES6   0.0000
   162 O7      -1.2455   8.6044  11.4530   O.3       6 RES6  -1.0000
   163 O8      -1.9346   9.2557   8.6441   O.3       6 RES6  -1.0000
   164 O9       1.2088   9.2145   8.3868   O.3       6 RES6  -1.0000
   165 O10      1.2143   9.3377  11.1443   O.3       6 RES6   0.0000
   166 O11     -0.5219  11.1350   9.7363   O.3       6 RES6   0.0000
   167 O12     -0.0941   7.1977   9.3317   O.3       6 RES6   0.0000
   168 O13     -7.0904  13.3981   9.5071   O.3       7 RES7   0.0000
   169 O14     -4.8061  13.0253  11.0624   O.3       8 RES8   0.0000
   170 O15      7.0549   3.1738  -8.2418   O.3       9 RES9   0.0000
   171 O16      0.7107  11.4117   6.4293   O.3      10 RES10   0.0000
@<TRIPOS>BOND
     1     1     2    1
     2     3     1    1
     3     4     1    1
     4     5     4    1
     5     6     4    1
     6     7     8    2
     7     8    20    1
     8     9    10    2
     9    10    23    1
    10    11    12    2
    11    12    24    1
    12    13    14    1
    13    15    13    1
    14    16    13    1
    15    17    16    1
    16    18    16    1
    17    19     1    1
    18    20     4    1
    19    21     7    1
    20    22     8    1
    21    23    11    1
    22    24    10    1
    23    25    11    1
    24    26    12    1
    25     7    19    1
    26     9    21    1
    27     9    22    1
    28    13    25    1
    29    16    26    1
    30    27    28    1
    31    29    27    1
    32    30    27    1
    33    31    30    1
    34    32    30    1
    35    33    34    2
    36    34    48    1
    37    35    36    2
    38    36    51    1
    39    37    38    2
    40    38    46    1
    41    39    40    1
    42    41    39    1
    43    42    39    1
    44    43    42    1
    45    44    42    1
    46    45    37    1
    47    46    42    1
    48    47    27    1
    49    48    30    1
    50    49    33    1
    51    50    34    1
    52    51    37    1
    53    52    36    1
    54    33    47    1
    55    35    49    1
    56    35    50    1
    57    38    52    1
    58    39    45    1
    59    53    54    1
    60    55    53    1
    61    56    53    1
    62    57    56    1
    63    58    56    1
    64    59    60    2
    65    60    72    1
    66    61    62    2
    67    62    75    1
    68    63    64    2
    69    64    76    1
    70    65    66    1
    71    67    65    1
    72    68    65    1
    73    69    68    1
    74    70    68    1
    75    71    53    1
    76    72    56    1
    77    73    59    1
    78    74    60    1
    79    75    63    1
    80    76    62    1
    81    77    63    1
    82    78    64    1
    83    59    71    1
    84    61    73    1
    85    61    74    1
    86    65    77    1
    87    68    78    1
    88    79    80    1
    89    81    79    1
    90    82    79    1
    91    83    82    1
    92    84    82    1
    93    85    86    2
    94    86   100    1
    95    87    88    2
    96    88   103    1
    97    89    90    2
    98    90    98    1
    99    91    92    1
   100    93    91    1
   101    94    91    1
   102    95    94    1
   103    96    94    1
   104    97    89    1
   105    98    94    1
   106    99    79    1
   107   100    82    1
   108   101    85    1
   109   102    86    1
   110   103    89    1
   111   104    88    1
   112    85    99    1
   113    87   101    1
   114    87   102    1
   115    90   104    1
   116    91    97    1
   117   105   106    1
   118   107   105    1
   119   108   105    1
   120   109   108    1
   121   110   108    1
   122   111   112    2
   123   112   124    1
   124   113   114    2
   125   114   129    1
   126   115   116    2
   127   116   126    1
   128   117   118    1
   129   119   117    1
   130   120   117    1
   131   121   120    1
   132   122   120    1
   133   123   105    1
   134   124   108    1
   135   125   115    1
   136   126   120    1
   137   127   111    1
   138   128   112    1
   139   129   115    1
   140   130   114    1
   141   111   123    1
   142   113   127    1
   143   113   128    1
   144   116   130    1
   145   117   125    1
   146   131   134    1
   147   132   135    1
   148   133   136    1
   149   134   137    2
   150   135   138    2
   151   136   139    2
   152   137   140    1
   153   138   141    1
   154   139   142    1
   155   140   143    1
   156   141   144    1
   157   142   145    1
   158   143   146    1
   159   144   147    1
   160   145   148    1
   161   146   131    2
   162   147   132    2
   163   148   133    2
   164   149   139    1
   165   150   140    2
   166   151   141    2
   167   152   142    2
   168   153   143    2
   169   154   144    2
   170   155   145    2
   171   156   137    1
   172   157   146    1
   173   158   138    1
   174   159   147    1
   175   160   148    1
   176   161   162    1
   177   162   131    1
   178   163   132    1
   179   164   133    1
   180   165   134    1
   181   166   135    1
   182   167   136    1
   183   161   163    1
   184   161   164    1
   185   161   165    1
   186   161   166    1
   187   161   167    1
@<TRIPOS>SUBSTRUCTURE
     1 RES1        1 GROUP             0 ****  ****    0  
     2 RES2       27 GROUP             0 ****  ****    0  
     3 RES3       53 GROUP             0 ****  ****    0  
     4 RES4       79 GROUP             0 ****  ****    0  
     5 RES5      105 GROUP             0 ****  ****    0  
     6 RES6      131 GROUP             0 ****  ****    0  
     7 RES7      168 GROUP             0 ****  ****    0  
     8 RES8      169 GROUP             0 ****  ****    0  
     9 RES9      170 GROUP             0 ****  ****    0  
    10 RES10     171 GROUP             0 ****  ****    0  
@<TRIPOS>CRYSIN
   13.3816   16.1516   24.2690  104.0520   93.4030  101.7510     2     1
