@<TRIPOS>MOLECULE
GORMOS
    82    88     4     0     0
SMALL
USER_CHARGES
****
Generated from the CSD

@<TRIPOS>ATOM
     1 Fe1      7.1130  17.3045   3.1968   Fe        1 RES1   2.0000
     2 N1       6.0046  17.2398   1.3519   N.ar      1 RES1   0.0000
     3 N2       5.5225  18.7870   3.3917   N.2       1 RES1   0.0000
     4 N3       5.0969  19.7313   4.2857   N.pl3     1 RES1   0.0000
     5 H1       5.5538  19.8438   5.0803   H         1 RES1   0.0000
     6 N4       8.0654  15.7763   1.9408   N.2       1 RES1   0.0000
     7 N5       9.0867  14.8757   2.0245   N.pl3     1 RES1   0.0000
     8 H2       9.5555  14.8084   2.7505   H         1 RES1   0.0000
     9 N6       3.4757  21.4621   4.5018   N.pl3     1 RES1   0.0000
    10 H3       3.7784  21.6638   5.3284   H         1 RES1   0.0000
    11 H4       3.0458  22.0555   4.0625   H         1 RES1   0.0000
    12 N7      10.0492  13.0705   0.8186   N.pl3     1 RES1   0.0000
    13 H5      10.6865  12.9861   1.4769   H         1 RES1   0.0000
    14 H6      10.1687  12.6976   0.0703   H         1 RES1   0.0000
    15 C1       4.0761  20.4661   3.7911   C.2       1 RES1   0.0000
    16 C2       3.7948  19.9724   2.5192   C.2       1 RES1   0.0000
    17 H7       3.1226  20.2683   1.9181   H         1 RES1   0.0000
    18 C3       4.7167  18.9472   2.3234   C.2       1 RES1   0.0000
    19 C4       4.9796  18.0853   1.1658   C.ar      1 RES1   0.0000
    20 C5       4.2651  18.1130  -0.0339   C.ar      1 RES1   0.0000
    21 H8       3.5394  18.7157  -0.1560   H         1 RES1   0.0000
    22 C6       4.6413  17.2391  -1.0428   C.ar      1 RES1   0.0000
    23 H9       4.1753  17.2429  -1.8708   H         1 RES1   0.0000
    24 C7       5.6983  16.3568  -0.8463   C.ar      1 RES1   0.0000
    25 H10      5.9578  15.7465  -1.5268   H         1 RES1   0.0000
    26 C8       6.3641  16.3915   0.3749   C.ar      1 RES1   0.0000
    27 C9       7.5121  15.5509   0.7381   C.2       1 RES1   0.0000
    28 C10      8.1546  14.5176   0.0554   C.2       1 RES1   0.0000
    29 H11      7.9509  14.1799  -0.8081   H         1 RES1   0.0000
    30 C11      9.1606  14.0917   0.9179   C.2       1 RES1   0.0000
    31 N1B      8.2213  17.2398   5.0417   N.ar      1 RES1   0.0000
    32 N2B      8.7034  18.7870   3.0019   N.2       1 RES1   0.0000
    33 N3B      9.1290  19.7313   2.1078   N.pl3     1 RES1   0.0000
    34 H1B      8.6721  19.8438   1.3132   H         1 RES1   0.0000
    35 N4B      6.1605  15.7763   4.4527   N.2       1 RES1   0.0000
    36 N5B      5.1392  14.8757   4.3691   N.pl3     1 RES1   0.0000
    37 H2B      4.6704  14.8084   3.6430   H         1 RES1   0.0000
    38 N6B     10.7502  21.4621   1.8917   N.pl3     1 RES1   0.0000
    39 H3B     10.4475  21.6638   1.0652   H         1 RES1   0.0000
    40 H4B     11.1801  22.0555   2.3311   H         1 RES1   0.0000
    41 N7B      4.1767  13.0705   5.5749   N.pl3     1 RES1   0.0000
    42 H5B      3.5394  12.9861   4.9166   H         1 RES1   0.0000
    43 H6B      4.0572  12.6976   6.3232   H         1 RES1   0.0000
    44 C1B     10.1498  20.4661   2.6024   C.2       1 RES1   0.0000
    45 C2B     10.4311  19.9724   3.8744   C.2       1 RES1   0.0000
    46 H7B     11.1033  20.2683   4.4755   H         1 RES1   0.0000
    47 C3B      9.5092  18.9472   4.0701   C.2       1 RES1   0.0000
    48 C4B      9.2463  18.0853   5.2278   C.ar      1 RES1   0.0000
    49 C5B      9.9608  18.1130   6.4274   C.ar      1 RES1   0.0000
    50 H8B     10.6865  18.7157   6.5496   H         1 RES1   0.0000
    51 C6B      9.5846  17.2391   7.4363   C.ar      1 RES1   0.0000
    52 H9B     10.0506  17.2429   8.2643   H         1 RES1   0.0000
    53 C7B      8.5276  16.3568   7.2398   C.ar      1 RES1   0.0000
    54 H10B     8.2681  15.7465   7.9203   H         1 RES1   0.0000
    55 C8B      7.8618  16.3915   6.0186   C.ar      1 RES1   0.0000
    56 C9B      6.7138  15.5509   5.6555   C.2       1 RES1   0.0000
    57 C10B     6.0713  14.5176   6.3382   C.2       1 RES1   0.0000
    58 H11B     6.2750  14.1799   7.2017   H         1 RES1   0.0000
    59 C11B     5.0653  14.0917   5.4757   C.2       1 RES1   0.0000
    60 Cl1     10.8386  12.8698   4.5090   Cl        2 RES2   0.0000
    61 O1       9.9586  14.0047   4.6468   O.3       2 RES2  -1.0000
    62 O2      11.6672  12.7591   5.6798   O.2       2 RES2   0.0000
    63 O3      10.0502  11.6699   4.3704   O.2       2 RES2   0.0000
    64 O4      11.6615  13.0419   3.3399   O.2       2 RES2   0.0000
    65 N8       7.1130   9.7139   3.1968   N.1       3 RES3   0.0000
    66 C12      7.1130  10.8436   3.1968   C.1       3 RES3   0.0000
    67 C13      7.1130  12.2738   3.1968   C.3       3 RES3   0.0000
    68 O5       6.7425  20.2318   6.4855   O.3       4 RES4   0.0000
    69 C14      7.6396  21.3388   6.3398   C.3       4 RES4   0.0000
    70 H12      8.5711  21.0400   6.4882   H         4 RES4   0.0000
    71 H13      7.4259  22.0367   7.0099   H         4 RES4   0.0000
    72 C15      7.4976  21.9040   4.9499   C.3       4 RES4   0.0000
    73 H14      8.1287  22.6442   4.8322   H         4 RES4   0.0000
    74 H15      6.5823  22.2314   4.8207   H         4 RES4   0.0000
    75 H16      7.6905  21.2041   4.2914   H         4 RES4   0.0000
    76 C16      6.6759  19.7453   7.8237   C.3       4 RES4   0.0000
    77 H17      6.4699  20.4888   8.4433   H         4 RES4   0.0000
    78 H18      7.5483  19.3560   8.0840   H         4 RES4   0.0000
    79 C17      5.6039  18.7007   7.9069   C.3       4 RES4   0.0000
    80 H19      5.5950  18.3123   8.8065   H         4 RES4   0.0000
    81 H20      5.7814  17.9981   7.2490   H         4 RES4   0.0000
    82 H21      4.7330  19.1097   7.7196   H         4 RES4   0.0000
@<TRIPOS>BOND
     1     1     2    1
     2     2    19   ar
     3     3     1    1
     4     4     3    1
     5     5     4    1
     6     6     1    1
     7     7     6    1
     8     8     7    1
     9     9    10    1
    10    11     9    1
    11    12    13    1
    12    14    12    1
    13    15     4    1
    14    16    15    2
    15    17    16    1
    16    18     3    2
    17    19    18    1
    18    20    19   ar
    19    21    20    1
    20    22    20   ar
    21    23    22    1
    22    24    22   ar
    23    25    24    1
    24    26     2   ar
    25    27     6    2
    26    28    27    1
    27    29    28    1
    28    30     7    1
    29    31     1    1
    30    32     1    1
    31    33    32    1
    32    34    33    1
    33    35     1    1
    34    36    35    1
    35    37    36    1
    36    38    39    1
    37    40    38    1
    38    41    42    1
    39    43    41    1
    40    44    33    1
    41    45    44    2
    42    46    45    1
    43    47    32    2
    44    48    31   ar
    45    49    48   ar
    46    50    49    1
    47    51    49   ar
    48    52    51    1
    49    53    51   ar
    50    54    53    1
    51    55    31   ar
    52    56    35    2
    53    57    56    1
    54    58    57    1
    55    59    36    1
    56     9    15    1
    57    12    30    1
    58    16    18    1
    59    24    26   ar
    60    26    27    1
    61    28    30    2
    62    38    44    1
    63    41    59    1
    64    45    47    1
    65    47    48    1
    66    53    55   ar
    67    55    56    1
    68    57    59    2
    69    60    61    1
    70    62    60    2
    71    63    60    2
    72    64    60    2
    73    65    66    3
    74    66    67    1
    75    68    69    1
    76    69    70    1
    77    71    69    1
    78    72    69    1
    79    73    72    1
    80    74    72    1
    81    75    72    1
    82    76    68    1
    83    77    76    1
    84    78    76    1
    85    79    76    1
    86    80    79    1
    87    81    79    1
    88    82    79    1
@<TRIPOS>SUBSTRUCTURE
     1 RES1        1 GROUP             0 ****  ****    0  
     2 RES2       60 GROUP             0 ****  ****    0  
     3 RES3       65 GROUP             0 ****  ****    0  
     4 RES4       68 GROUP             0 ****  ****    0  
@<TRIPOS>CRYSIN
   14.2259   23.4533   12.7871   90.0000   90.0000   90.0000    60     1
