@<TRIPOS>MOLECULE
GUGYIS
    78    82     2     0     0
SMALL
USER_CHARGES
****
Generated from the CSD

@<TRIPOS>ATOM
     1 C1       3.8402   8.9142   4.5711   C.2       1 RES1   0.0000
     2 C2      -0.0929   6.9823   5.4319   C.1       1 RES1   0.0000
     3 C3      -0.9268  10.7468   7.6420   C.1       1 RES1   0.0000
     4 C4      -0.7939   9.7963   2.5478   C.1       1 RES1   0.0000
     5 C5       0.9973  12.9551   4.3716   C.1       1 RES1   0.0000
     6 C6       3.6393   9.2341   6.0266   C.2       1 RES1   0.0000
     7 C7       5.7199   8.1191   6.4423   C.3       1 RES1   0.0000
     8 H1       6.4633   8.2899   7.0409   H         1 RES1   0.0000
     9 H2       5.4961   7.1780   6.5075   H         1 RES1   0.0000
    10 C8       6.1238   8.4142   5.0930   C.3       1 RES1   0.0000
    11 H3       6.7253   7.7184   4.7847   H         1 RES1   0.0000
    12 H4       6.6127   9.2528   5.0878   H         1 RES1   0.0000
    13 C9       4.3858   9.1534   8.3352   C.3       1 RES1   0.0000
    14 H5       3.4584   9.3180   8.5168   H         1 RES1   0.0000
    15 H6       4.9059   9.9112   8.6051   H         1 RES1   0.0000
    16 H7       4.6735   8.3769   8.8238   H         1 RES1   0.0000
    17 N1       4.5725   8.9142   6.8644   N.am      1 RES1   0.0000
    18 N2       0.4487   7.9855   5.5035   N.2       1 RES1  -1.0000
    19 N3      -0.3207  10.4424   6.7275   N.2       1 RES1   0.0000
    20 N4      -0.3837   9.9050   3.5901   N.2       1 RES1   0.0000
    21 N5       1.2056  11.8711   4.7336   N.2       1 RES1   0.0000
    22 N6       5.0074   8.5167   4.1657   N.am      1 RES1   0.0000
    23 O1       2.5574   9.8035   6.4679   O.2       1 RES1   0.0000
    24 S1       2.6372   9.1888   3.5479   S.2       1 RES1   0.0000
    25 S2      -0.8891   5.5815   5.3283   S.2       1 RES1   0.0000
    26 S3      -1.7801  11.1633   8.9325   S.2       1 RES1   0.0000
    27 S4      -1.3672   9.6817   1.0168   S.2       1 RES1   0.0000
    28 S5       0.7487  14.4687   3.8498   S.2       1 RES1   0.0000
    29 Fe1      0.8677   9.9383   5.1538   Fe        1 RES1   0.0000
    30 C10      5.2459   8.2309   2.7217   C.3       1 RES1   0.0000
    31 H8       4.7534   8.8614   2.1884   H         1 RES1   0.0000
    32 H9       4.9449   7.3426   2.5183   H         1 RES1   0.0000
    33 H10      6.1795   8.3086   2.5299   H         1 RES1   0.0000
    34 C11      5.3722  13.5142   3.2550   C.ar      2 RES2   0.0000
    35 C12      3.6964  13.2160   0.8416   C.ar      2 RES2   0.0000
    36 C13      4.2701  15.8717   1.9159   C.ar      2 RES2   0.0000
    37 C14      6.4115  14.2845   0.6241   C.ar      2 RES2   0.0000
    38 C15      6.5921  12.8806   3.4431   C.ar      2 RES2   0.0000
    39 H11      7.2417  12.8713   2.7767   H         2 RES2   0.0000
    40 C16      3.0026  12.2470   1.5501   C.ar      2 RES2   0.0000
    41 H12      3.1992  12.0792   2.4442   H         2 RES2   0.0000
    42 C17      4.9688  16.7538   2.7358   C.ar      2 RES2   0.0000
    43 H13      5.7423  16.4898   3.1783   H         2 RES2   0.0000
    44 C18      6.7948  13.1073  -0.0230   C.ar      2 RES2   0.0000
    45 H14      6.2960  12.3308   0.0895   H         2 RES2   0.0000
    46 C19      6.8024  12.2656   4.6632   C.ar      2 RES2   0.0000
    47 H15      7.6150  11.8370   4.8141   H         2 RES2   0.0000
    48 C20      2.0126  11.5388   0.9030   C.ar      2 RES2   0.0000
    49 H16      1.5455  10.8803   1.3647   H         2 RES2   0.0000
    50 C21      4.4649  18.0707   2.8713   C.ar      2 RES2   0.0000
    51 H17      4.9421  18.6919   3.3701   H         2 RES2   0.0000
    52 C22      7.9229  13.0980  -0.8352   C.ar      2 RES2   0.0000
    53 H18      8.1704  12.3277  -1.2969   H         2 RES2   0.0000
    54 C23      5.8546  12.2563   5.6634   C.ar      2 RES2   0.0000
    55 H19      6.0313  11.8308   6.4717   H         2 RES2   0.0000
    56 C24      1.7015  11.7873  -0.4349   C.ar      2 RES2   0.0000
    57 H20      1.0108  11.3276  -0.8518   H         2 RES2   0.0000
    58 C25      3.2975  18.4403   2.2868   C.ar      2 RES2   0.0000
    59 H21      2.9673  19.3007   2.4147   H         2 RES2   0.0000
    60 C26      8.6852  14.2783  -0.9465   C.ar      2 RES2   0.0000
    61 H22      9.4558  14.2907  -1.4670   H         2 RES2   0.0000
    62 C27      4.6537  12.8806   5.4626   C.ar      2 RES2   0.0000
    63 H23      4.0085  12.8651   6.1315   H         2 RES2   0.0000
    64 C28      2.4175  12.7098  -1.1166   C.ar      2 RES2   0.0000
    65 H24      2.2372  12.8557  -2.0170   H         2 RES2   0.0000
    66 C29      2.6049  17.5520   1.5131   C.ar      2 RES2   0.0000
    67 H25      1.8155  17.8222   1.1025   H         2 RES2   0.0000
    68 C30      8.2977  15.3747  -0.3031   C.ar      2 RES2   0.0000
    69 H26      8.8196  16.1419  -0.3747   H         2 RES2   0.0000
    70 C31      4.3953  13.5266   4.2718   C.ar      2 RES2   0.0000
    71 H27      3.5874  13.9677   4.1427   H         2 RES2   0.0000
    72 C32      3.4180  13.4428  -0.4899   C.ar      2 RES2   0.0000
    73 H28      3.8967  14.0826  -0.9656   H         2 RES2   0.0000
    74 C33      3.0559  16.2599   1.3302   C.ar      2 RES2   0.0000
    75 H29      2.5623  15.6573   0.8250   H         2 RES2   0.0000
    76 C34      7.1535  15.4244   0.4656   C.ar      2 RES2   0.0000
    77 H30      6.8901  16.2195   0.8684   H         2 RES2   0.0000
    78 P1       4.9407  14.2168   1.6641   P.3       2 RES2   1.0000
@<TRIPOS>BOND
     1     1     6    1
     2     2    18    2
     3     3    19    2
     4     4    20    2
     5     5    21    2
     6     6    17   am
     7     7     8    1
     8     9     7    1
     9    10     7    1
    10    11    10    1
    11    12    10    1
    12    13    14    1
    13    15    13    1
    14    16    13    1
    15    17     7    1
    16    18    29    1
    17    19    29    1
    18    20    29    1
    19    21    29    1
    20    22     1   am
    21    23     6    2
    22    24     1    2
    23    25     2    2
    24    26     3    2
    25    27     4    2
    26    28     5    2
    27    29    23    1
    28    30    22    1
    29    31    30    1
    30    32    30    1
    31    33    30    1
    32    10    22    1
    33    13    17    1
    34    24    29    1
    35    34    38   ar
    36    35    40   ar
    37    36    42   ar
    38    37    44   ar
    39    38    39    1
    40    40    41    1
    41    42    43    1
    42    44    45    1
    43    46    38   ar
    44    47    46    1
    45    48    40   ar
    46    49    48    1
    47    50    42   ar
    48    51    50    1
    49    52    44   ar
    50    53    52    1
    51    54    46   ar
    52    55    54    1
    53    56    48   ar
    54    57    56    1
    55    58    50   ar
    56    59    58    1
    57    60    52   ar
    58    61    60    1
    59    62    54   ar
    60    63    62    1
    61    64    56   ar
    62    65    64    1
    63    66    58   ar
    64    67    66    1
    65    68    60   ar
    66    69    68    1
    67    70    34   ar
    68    71    70    1
    69    72    35   ar
    70    73    72    1
    71    74    36   ar
    72    75    74    1
    73    76    37   ar
    74    77    76    1
    75    78    34    1
    76    35    78    1
    77    36    78    1
    78    37    78    1
    79    62    70   ar
    80    64    72   ar
    81    66    74   ar
    82    68    76   ar
@<TRIPOS>SUBSTRUCTURE
     1 RES1        1 GROUP             0 ****  ****    0  
     2 RES2       34 GROUP             0 ****  ****    0  
@<TRIPOS>CRYSIN
    9.5900   31.0600   12.9100   90.0000   97.8200   90.0000     9     1
