@<TRIPOS>MOLECULE
GUJFOH
    96   109     2     0     0
SMALL
NO_CHARGES
****
Generated from the CSD

@<TRIPOS>ATOM
     1 Fe1      2.6076   4.5195   6.0335   Fe        1 RES1   0.0000
     2 N1       1.1265   3.3153   5.6534   N.2       1 RES1   0.0000
     3 N2      -0.4760   4.0939   7.3162   N.2       1 RES1   0.0000
     4 N3       1.5837   5.3856   7.4417   N.2       1 RES1   0.0000
     5 N4       2.0458   1.9666   3.8349   N.2       1 RES1   0.0000
     6 N5       1.8589   5.8664   4.6723   N.ar      1 RES1   0.0000
     7 N6      -0.1740   8.6284   2.2517   N.pl3     1 RES1   0.0000
     8 H1      -0.1459   9.4661   2.4460   H         1 RES1   0.0000
     9 H2      -0.6458   8.3566   1.5856   H         1 RES1   0.0000
    10 C1       1.0749   2.3104   4.7013   C.2       1 RES1   0.0000
    11 C2      -0.2159   1.6265   4.7665   C.2       1 RES1   0.0000
    12 C3      -0.7661   0.5493   4.0738   C.2       1 RES1   0.0000
    13 H3      -0.2907   0.1161   3.4017   H         1 RES1   0.0000
    14 C4      -2.0453   0.1472   4.4201   C.2       1 RES1   0.0000
    15 H4      -2.4298  -0.5723   3.9737   H         1 RES1   0.0000
    16 C5      -2.7717   0.7926   5.4205   C.2       1 RES1   0.0000
    17 H5      -3.6302   0.4996   5.6244   H         1 RES1   0.0000
    18 C6      -2.2323   1.8640   6.1143   C.2       1 RES1   0.0000
    19 H6      -2.7126   2.2964   6.7841   H         1 RES1   0.0000
    20 C7      -0.9462   2.2697   5.7716   C.2       1 RES1   0.0000
    21 C8      -0.0868   3.3114   6.3050   C.2       1 RES1   0.0000
    22 C9       0.3099   5.0493   7.8230   C.2       1 RES1   0.0000
    23 C10     -0.1252   5.8760   8.9344   C.2       1 RES1   0.0000
    24 C11     -1.3100   5.8999   9.6669   C.2       1 RES1   0.0000
    25 H7      -2.0192   5.3342   9.4617   H         1 RES1   0.0000
    26 C12     -1.3863   6.8093  10.7227   C.2       1 RES1   0.0000
    27 H8      -2.1538   6.8356  11.2476   H         1 RES1   0.0000
    28 C13     -0.3423   7.6726  11.0051   C.2       1 RES1   0.0000
    29 H9      -0.4277   8.2716  11.7122   H         1 RES1   0.0000
    30 C14      4.3887   1.3714   1.8064   C.2       1 RES1   0.0000
    31 H10      3.6968   0.7790   1.6158   H         1 RES1   0.0000
    32 C15      4.2790   2.2892   2.8478   C.2       1 RES1   0.0000
    33 C16      3.2205   2.6236   3.8071   C.2       1 RES1   0.0000
    34 C17      1.1826   5.4970   3.5610   C.ar      1 RES1   0.0000
    35 H11      1.1630   4.5917   3.3498   H         1 RES1   0.0000
    36 C18      0.5270   6.3530   2.7308   C.ar      1 RES1   0.0000
    37 H12      0.0787   6.0245   1.9850   H         1 RES1   0.0000
    38 C19      0.5282   7.7331   2.9986   C.ar      1 RES1   0.0000
    39 C20      1.3033   8.1392   4.0871   C.ar      1 RES1   0.0000
    40 H13      1.4048   9.0449   4.2717   H         1 RES1   0.0000
    41 C21      1.9149   7.2070   4.8811   C.ar      1 RES1   0.0000
    42 H14      2.4008   7.5121   5.6124   H         1 RES1   0.0000
    43 N1A      4.0887   5.7237   6.4136   N.2       1 RES1   0.0000
    44 N2A      5.6912   4.9450   4.7508   N.2       1 RES1   0.0000
    45 N3A      3.6315   3.6533   4.6253   N.2       1 RES1   0.0000
    46 N4A      3.1694   7.0723   8.2321   N.2       1 RES1   0.0000
    47 N5A      3.3563   3.1725   7.3947   N.ar      1 RES1   0.0000
    48 N6A      5.3892   0.4106   9.8153   N.pl3     1 RES1   0.0000
    49 H1A      5.3610  -0.4272   9.6210   H         1 RES1   0.0000
    50 H2A      5.8609   0.6823  10.4814   H         1 RES1   0.0000
    51 C1A      4.1402   6.7286   7.3657   C.2       1 RES1   0.0000
    52 C2A      5.4311   7.4124   7.3005   C.2       1 RES1   0.0000
    53 C3A      5.9812   8.4897   7.9932   C.2       1 RES1   0.0000
    54 H3A      5.5059   8.9229   8.6653   H         1 RES1   0.0000
    55 C4A      7.2605   8.8917   7.6469   C.2       1 RES1   0.0000
    56 H4A      7.6449   9.6112   8.0933   H         1 RES1   0.0000
    57 C5A      7.9868   8.2463   6.6465   C.2       1 RES1   0.0000
    58 H5A      8.8454   8.5394   6.4426   H         1 RES1   0.0000
    59 C6A      7.4474   7.1749   5.9526   C.2       1 RES1   0.0000
    60 H6A      7.9277   6.7426   5.2829   H         1 RES1   0.0000
    61 C7A      6.1614   6.7692   6.2954   C.2       1 RES1   0.0000
    62 C8A      5.3019   5.7275   5.7620   C.2       1 RES1   0.0000
    63 C9A      4.9053   3.9897   4.2440   C.2       1 RES1   0.0000
    64 C10A     5.3404   3.1630   3.1326   C.2       1 RES1   0.0000
    65 C11A     6.5252   3.1390   2.4001   C.2       1 RES1   0.0000
    66 H7A      7.2344   3.7047   2.6053   H         1 RES1   0.0000
    67 C12A     6.6014   2.2297   1.3443   C.2       1 RES1   0.0000
    68 H8A      7.3689   2.2033   0.8193   H         1 RES1   0.0000
    69 C13A     5.5574   1.3664   1.0619   C.2       1 RES1   0.0000
    70 H9A      5.6428   0.7674   0.3548   H         1 RES1   0.0000
    71 C14A     0.8265   7.6675  10.2606   C.2       1 RES1   0.0000
    72 H10A     1.5184   8.2600  10.4512   H         1 RES1   0.0000
    73 C15A     0.9362   6.7498   9.2192   C.2       1 RES1   0.0000
    74 C16A     1.9946   6.4153   8.2599   C.2       1 RES1   0.0000
    75 C17A     4.0326   3.5419   8.5060   C.ar      1 RES1   0.0000
    76 H11A     4.0522   4.4472   8.7172   H         1 RES1   0.0000
    77 C18A     4.6882   2.6859   9.3362   C.ar      1 RES1   0.0000
    78 H12A     5.1365   3.0144  10.0820   H         1 RES1   0.0000
    79 C19A     4.6869   1.3058   9.0683   C.ar      1 RES1   0.0000
    80 C20A     3.9119   0.8997   7.9799   C.ar      1 RES1   0.0000
    81 H13A     3.8104  -0.0059   7.7953   H         1 RES1   0.0000
    82 C21A     3.3003   1.8319   7.1859   C.ar      1 RES1   0.0000
    83 H14A     2.8144   1.5268   6.4546   H         1 RES1   0.0000
    84 O1      -1.4402   1.7402  11.2549   O.3       2 RES2   0.0000
    85 C22      0.6815   2.5279  10.7396   C.3       2 RES2   0.0000
    86 H15      1.0134   3.2002  10.1230   H         2 RES2   0.0000
    87 H16      1.3670   1.8551  10.8736   H         2 RES2   0.0000
    88 C23      0.2685   3.1470  12.0417   C.3       2 RES2   0.0000
    89 H17      0.9692   3.0903  12.7090   H         2 RES2   0.0000
    90 H18     -0.0078   4.0697  11.9343   H         2 RES2   0.0000
    91 C24     -0.5491   1.9316  10.2521   C.3       2 RES2   0.0000
    92 H19     -0.9419   2.5113   9.5800   H         2 RES2   0.0000
    93 H20     -0.3493   1.0808   9.8322   H         2 RES2   0.0000
    94 C25     -0.8622   2.2653  12.3530   C.3       2 RES2   0.0000
    95 H21     -0.5524   1.5443  12.9225   H         2 RES2   0.0000
    96 H22     -1.5271   2.7687  12.8489   H         2 RES2   0.0000
@<TRIPOS>BOND
     1     1     2    1
     2     2    10    1
     3     3    21    1
     4     4     1    1
     5     5    10    1
     6     6     1    1
     7     7     8    1
     8     9     7    1
     9    10    11    2
    10    11    12    1
    11    12    13    1
    12    14    12    2
    13    15    14    1
    14    16    14    1
    15    17    16    1
    16    18    16    2
    17    19    18    1
    18    20    11    1
    19    21     2    1
    20    22     3    2
    21    23    22    1
    22    24    23    1
    23    25    24    1
    24    26    24    2
    25    27    26    1
    26    28    26    1
    27    29    28    1
    28    30    31    1
    29    32    30    1
    30    33     5    2
    31    34     6   ar
    32    35    34    1
    33    36    34   ar
    34    37    36    1
    35    38     7    1
    36    39    38   ar
    37    40    39    1
    38    41     6   ar
    39    42    41    1
    40    43     1    1
    41    44    62    2
    42    45     1    1
    43    46    51    2
    44    47     1    1
    45    48    49    1
    46    50    48    1
    47    51    43    1
    48    52    51    1
    49    53    52    1
    50    54    53    1
    51    55    53    2
    52    56    55    1
    53    57    55    1
    54    58    57    1
    55    59    57    2
    56    60    59    1
    57    61    52    2
    58    62    43    1
    59    63    44    1
    60    64    32    2
    61    65    64    1
    62    66    65    1
    63    67    65    2
    64    68    67    1
    65    69    30    2
    66    70    69    1
    67    71    28    2
    68    72    71    1
    69    73    23    2
    70    74     4    2
    71    75    47   ar
    72    76    75    1
    73    77    75   ar
    74    78    77    1
    75    79    48    1
    76    80    79   ar
    77    81    80    1
    78    82    47   ar
    79    83    82    1
    80     4    22    1
    81    18    20    1
    82    20    21    2
    83    32    33    1
    84    33    45    1
    85    36    38   ar
    86    39    41   ar
    87    45    63    2
    88    46    74    1
    89    59    61    1
    90    61    62    1
    91    63    64    1
    92    67    69    1
    93    71    73    1
    94    73    74    1
    95    77    79   ar
    96    80    82   ar
    97    84    91    1
    98    85    86    1
    99    87    85    1
   100    88    85    1
   101    89    88    1
   102    90    88    1
   103    91    85    1
   104    92    91    1
   105    93    91    1
   106    94    84    1
   107    95    94    1
   108    96    94    1
   109    88    94    1
@<TRIPOS>SUBSTRUCTURE
     1 RES1        1 GROUP             0 ****  ****    0  
     2 RES2       84 GROUP             0 ****  ****    0  
@<TRIPOS>CRYSIN
    9.1397    9.8620   12.2130   90.8800   98.4200  102.5100     2     1
