@<TRIPOS>MOLECULE
GUMJIK
   120   125     8     0     0
SMALL
USER_CHARGES
****
Generated from the CSD

@<TRIPOS>ATOM
     1 Fe1      8.2514   5.9705   4.0769   Fe        1 RES1   1.0000
     2 O1       6.9042   7.2569   3.3245   O.co2     1 RES1   0.0000
     3 O2       6.8077   4.6049   4.5937   O.co2     1 RES1  -1.0000
     4 O3       9.5397   7.4281   4.5807   O.co2     1 RES1  -1.0000
     5 O4       5.7738   3.5207   6.2643   O.co2     1 RES1   0.0000
     6 O5       9.7137   4.6138   3.8570   O.co2     1 RES1   0.0000
     7 N1       8.2399   5.9623   6.1374   N.ar      1 RES1   0.0000
     8 N2       8.4408   5.7625   2.0345   N.ar      1 RES1   0.0000
     9 O6       5.9387   8.1217   1.5095   O.co2     1 RES1   0.0000
    10 O7      10.6172   8.4863   6.2134   O.co2     1 RES1   0.0000
    11 C1       6.6013   4.3093   5.8366   C.2       1 RES1   0.0000
    12 C2       7.4777   5.0818   6.7848   C.ar      1 RES1   0.0000
    13 C3       9.0756   6.7686   6.7786   C.ar      1 RES1   0.0000
    14 C4       7.6407   6.4811   1.2436   C.ar      1 RES1   0.0000
    15 O8      11.0394   3.5102   2.4514   O.co2     1 RES1   0.0000
    16 C5       9.1828   6.7269   8.1470   C.ar      1 RES1   0.0000
    17 H1       9.7632   7.2963   8.5983   H         1 RES1   0.0000
    18 C6       9.3269   4.8961   1.5651   C.ar      1 RES1   0.0000
    19 C7       6.7397   7.3721   2.0481   C.2       1 RES1   0.0000
    20 C8       9.8287   7.6578   5.8187   C.2       1 RES1   0.0000
    21 C9       7.5451   4.9756   8.1550   C.ar      1 RES1   0.0000
    22 H2       7.0264   4.3539   8.6135   H         1 RES1   0.0000
    23 C10     10.1247   4.2627   2.6816   C.2       1 RES1   0.0000
    24 C11      8.4082   5.8192   8.8329   C.ar      1 RES1   0.0000
    25 H3       8.4656   5.7724   9.7604   H         1 RES1   0.0000
    26 C12      9.4366   4.6832   0.2001   C.ar      1 RES1   0.0000
    27 H4      10.0449   4.0688  -0.1435   H         1 RES1   0.0000
    28 C13      7.7186   6.3202  -0.1256   C.ar      1 RES1   0.0000
    29 H5       7.1757   6.8180  -0.6942   H         1 RES1   0.0000
    30 C14      8.6111   5.4125  -0.6321   C.ar      1 RES1   0.0000
    31 H6       8.6629   5.2855  -1.5527   H         1 RES1   0.0000
    32 O9       4.3180   0.1930   4.1596   O.2       2 RES2   0.0000
    33 O10      7.2593  -2.6124   2.1410   O.2       2 RES2   0.0000
    34 N3       5.7763  -1.2137   3.1465   N.am      2 RES2   0.0000
    35 N4       8.2890   1.2078   5.8174   N.pl3     2 RES2   0.0000
    36 N5      10.1452   2.2582   6.0287   N.pl3     2 RES2   1.0000
    37 H7      10.8795   2.6608   5.8352   H         2 RES2   0.0000
    38 C15      4.7830  -0.2491   3.1140   C.2       2 RES2   0.0000
    39 C16      4.5880   0.2561  -0.6280   C.ar      2 RES2   0.0000
    40 C17      4.3505   0.2499   1.7947   C.ar      2 RES2   0.0000
    41 C18      3.5962   1.2413  -0.7040   C.ar      2 RES2   0.0000
    42 C19      6.4036  -1.7593   2.0163   C.2       2 RES2   0.0000
    43 C20      6.2099  -1.7187   4.4650   C.3       2 RES2   0.0000
    44 H8       6.4509  -2.6554   4.3833   H         2 RES2   0.0000
    45 H9       5.4694  -1.6557   5.0886   H         2 RES2   0.0000
    46 C21      3.3750   1.2056   1.6896   C.ar      2 RES2   0.0000
    47 H10      2.9595   1.5229   2.4580   H         2 RES2   0.0000
    48 C22      2.9951   1.7120   0.4421   C.ar      2 RES2   0.0000
    49 H11      2.3372   2.3661   0.3864   H         2 RES2   0.0000
    50 C23      7.3979  -0.9447   5.0217   C.3       2 RES2   0.0000
    51 H12      7.6516  -1.3330   5.8739   H         2 RES2   0.0000
    52 H13      8.1485  -1.0469   4.4165   H         2 RES2   0.0000
    53 C24      8.5159   1.3792   7.1574   C.2       2 RES2   0.0000
    54 H14      7.9658   1.0903   7.8503   H         2 RES2   0.0000
    55 C25      9.6691   2.0342   7.2858   C.2       2 RES2   0.0000
    56 H15     10.0733   2.2914   8.0835   H         2 RES2   0.0000
    57 C26      7.1286   0.5297   5.2183   C.3       2 RES2   0.0000
    58 H16      6.9240   0.9377   4.3626   H         2 RES2   0.0000
    59 H17      6.3568   0.6422   5.7966   H         2 RES2   0.0000
    60 C27      9.2960   1.7564   5.1590   C.2       2 RES2   0.0000
    61 H18      9.3883   1.7822   4.2343   H         2 RES2   0.0000
    62 O9A      5.2485  -0.1930  -4.1596   O.2       2 RES2   0.0000
    63 O10A     2.3072   2.6124  -2.1410   O.2       2 RES2   0.0000
    64 N3A      3.7902   1.2137  -3.1465   N.am      2 RES2   0.0000
    65 N4A      1.2775  -1.2078  -5.8174   N.pl3     2 RES2   0.0000
    66 N5A     -0.5787  -2.2582  -6.0287   N.pl3     2 RES2   1.0000
    67 H7A     -1.3130  -2.6608  -5.8352   H         2 RES2   0.0000
    68 C15A     4.7835   0.2491  -3.1140   C.2       2 RES2   0.0000
    69 C16A     4.9785  -0.2561   0.6280   C.ar      2 RES2   0.0000
    70 C17A     5.2160  -0.2499  -1.7947   C.ar      2 RES2   0.0000
    71 C18A     5.9703  -1.2413   0.7040   C.ar      2 RES2   0.0000
    72 C19A     3.1629   1.7593  -2.0163   C.2       2 RES2   0.0000
    73 C20A     3.3566   1.7187  -4.4650   C.3       2 RES2   0.0000
    74 H8A      3.1156   2.6554  -4.3833   H         2 RES2   0.0000
    75 H9A      4.0971   1.6557  -5.0886   H         2 RES2   0.0000
    76 C21A     6.1915  -1.2056  -1.6896   C.ar      2 RES2   0.0000
    77 H10A     6.6070  -1.5229  -2.4580   H         2 RES2   0.0000
    78 C22A     6.5714  -1.7120  -0.4421   C.ar      2 RES2   0.0000
    79 H11A     7.2293  -2.3661  -0.3864   H         2 RES2   0.0000
    80 C23A     2.1686   0.9447  -5.0217   C.3       2 RES2   0.0000
    81 H12A     1.9149   1.3330  -5.8739   H         2 RES2   0.0000
    82 H13A     1.4180   1.0469  -4.4165   H         2 RES2   0.0000
    83 C24A     1.0506  -1.3792  -7.1574   C.2       2 RES2   0.0000
    84 H14A     1.6007  -1.0903  -7.8503   H         2 RES2   0.0000
    85 C25A    -0.1026  -2.0342  -7.2858   C.2       2 RES2   0.0000
    86 H15A    -0.5068  -2.2914  -8.0835   H         2 RES2   0.0000
    87 C26A     2.4379  -0.5297  -5.2183   C.3       2 RES2   0.0000
    88 H16A     2.6425  -0.9377  -4.3626   H         2 RES2   0.0000
    89 H17A     3.2097  -0.6422  -5.7966   H         2 RES2   0.0000
    90 C27A     0.2705  -1.7564  -5.1590   C.2       2 RES2   0.0000
    91 H18A     0.1782  -1.7822  -4.2343   H         2 RES2   0.0000
    92 O11      3.3073   2.6010   5.2330   O.3       3 RES3   0.0000
    93 H19      4.0060   2.9518   5.5661   H         3 RES3   0.0000
    94 H20      3.5120   1.8721   4.8457   H         3 RES3   0.0000
    95 O12      6.3134   3.1650   0.9854   O.3       4 RES4   0.0000
    96 H21      5.7980   3.3997   1.6189   H         4 RES4   0.0000
    97 H22      6.1697   3.3613   0.2346   H         4 RES4   0.0000
    98 O13      4.5331   4.3385   2.8007   O.3       5 RES5   0.0000
    99 H23      5.0475   4.3771   3.4766   H         5 RES5   0.0000
   100 H24      3.7961   3.9804   3.0267   H         5 RES5   0.0000
   101 O14      1.8675   9.2110   3.2515   O.3       6 RES6   0.0000
   102 H25      1.5463   8.6545   3.8078   H         6 RES6   0.0000
   103 H26      1.2481   9.4894   2.7410   H         6 RES6   0.0000
   104 O15      9.5009   1.8278  15.7383   O.3       7 RES7   0.0000
   105 H27      8.9736   2.3511  15.3914   H         7 RES7   0.0000
   106 C28     10.2012   1.1573  14.7537   C.ar      7 RES7   0.0000
   107 C29     10.7341   0.6932  12.4682   C.ar      7 RES7   0.0000
   108 H28     10.6009   0.8674  11.5656   H         7 RES7   0.0000
   109 C30     10.0341   1.4082  13.4053   C.ar      7 RES7   0.0000
   110 H29      9.4405   2.0692  13.1293   H         7 RES7   0.0000
   111 O15A    12.3438  -0.9642  11.8645   O.3       7 RES7   0.0000
   112 H27A    12.8711  -1.4875  12.2115   H         7 RES7   0.0000
   113 C28A    11.6435  -0.2936  12.8491   C.ar      7 RES7   0.0000
   114 C29A    11.1106   0.1704  15.1347   C.ar      7 RES7   0.0000
   115 H28A    11.2438  -0.0038  16.0373   H         7 RES7   0.0000
   116 C30A    11.8106  -0.5446  14.1975   C.ar      7 RES7   0.0000
   117 H29A    12.4042  -1.2055  14.4736   H         7 RES7   0.0000
   118 O16      4.5210  10.0225   3.1053   O.3       8 RES8   0.0000
   119 H30      4.9301   9.5184   2.5574   H         8 RES8   0.0000
   120 H31      3.6867   9.8649   3.0681   H         8 RES8   0.0000
@<TRIPOS>BOND
     1     1     2    1
     2     2    19    1
     3     3     1    1
     4     4     1    1
     5     5    11    2
     6     6     1    1
     7     7     1    1
     8     8     1    1
     9     9    19    2
    10    10    20    2
    11    11     3    1
    12    12     7   ar
    13    13     7   ar
    14    14     8   ar
    15    15    23    2
    16    16    13   ar
    17    17    16    1
    18    18     8   ar
    19    19    14    1
    20    20     4    1
    21    21    12   ar
    22    22    21    1
    23    23     6    1
    24    24    16   ar
    25    25    24    1
    26    26    18   ar
    27    27    26    1
    28    28    14   ar
    29    29    28    1
    30    30    26   ar
    31    31    30    1
    32    11    12    1
    33    13    20    1
    34    18    23    1
    35    21    24   ar
    36    28    30   ar
    37    32    38    2
    38    33    42    2
    39    34    38   am
    40    35    53    1
    41    36    37    1
    42    38    40    1
    43    39    41   ar
    44    40    46   ar
    45    41    48   ar
    46    42    34   am
    47    43    34    1
    48    44    43    1
    49    45    43    1
    50    46    47    1
    51    48    46   ar
    52    49    48    1
    53    50    43    1
    54    51    50    1
    55    52    50    1
    56    53    54    1
    57    55    36    1
    58    56    55    1
    59    57    35    1
    60    58    57    1
    61    59    57    1
    62    60    35    1
    63    61    60    1
    64    62    68    2
    65    63    72    2
    66    64    68   am
    67    65    83    1
    68    66    67    1
    69    68    70    1
    70    69    39   ar
    71    70    39   ar
    72    71    42    1
    73    72    41    1
    74    73    64    1
    75    74    73    1
    76    75    73    1
    77    76    70   ar
    78    77    76    1
    79    78    71   ar
    80    79    78    1
    81    80    73    1
    82    81    80    1
    83    82    80    1
    84    83    84    1
    85    85    66    1
    86    86    85    1
    87    87    65    1
    88    88    87    1
    89    89    87    1
    90    90    65    1
    91    91    90    1
    92    36    60    2
    93    40    69   ar
    94    50    57    1
    95    53    55    2
    96    64    72   am
    97    66    90    2
    98    69    71   ar
    99    76    78   ar
   100    80    87    1
   101    83    85    2
   102    92    93    1
   103    94    92    1
   104    95    96    1
   105    97    95    1
   106    98    99    1
   107   100    98    1
   108   101   102    1
   109   103   101    1
   110   104   105    1
   111   106   104    1
   112   107   108    1
   113   109   106   ar
   114   110   109    1
   115   111   112    1
   116   113   107   ar
   117   114   106   ar
   118   115   114    1
   119   116   113   ar
   120   117   116    1
   121   107   109   ar
   122   111   113    1
   123   114   116   ar
   124   118   119    1
   125   120   118    1
@<TRIPOS>SUBSTRUCTURE
     1 RES1        1 GROUP             0 ****  ****    0  
     2 RES2       32 GROUP             0 ****  ****    0  
     3 RES3       92 GROUP             0 ****  ****    0  
     4 RES4       95 GROUP             0 ****  ****    0  
     5 RES5       98 GROUP             0 ****  ****    0  
     6 RES6      101 GROUP             0 ****  ****    0  
     7 RES7      104 GROUP             0 ****  ****    0  
     8 RES8      118 GROUP             0 ****  ****    0  
@<TRIPOS>CRYSIN
    9.5665   12.5265   13.8746   87.5100   84.3920   82.6030     2     1
