@<TRIPOS>MOLECULE
GUMJEG
   109   118     4     0     0
SMALL
USER_CHARGES
****
Generated from the CSD

@<TRIPOS>ATOM
     1 Fe1      6.9864   8.9390   8.4945   Fe        1 RES1   1.0000
     2 O1       5.6810   7.9812   7.2629   O.co2     1 RES1  -1.0000
     3 O2       8.1869   9.3996   6.9448   O.co2     1 RES1   0.0000
     4 O3       8.4423   8.9273   9.8925   O.co2     1 RES1  -1.0000
     5 O4       5.5829   9.4048   9.8638   O.co2     1 RES1   0.0000
     6 N1       7.5211   6.9592   8.6312   N.ar      1 RES1   0.0000
     7 O5       8.7335  10.9003   5.3853   O.co2     1 RES1   0.0000
     8 N2       6.4420  10.8491   8.0052   N.ar      1 RES1   0.0000
     9 O6       5.2860   6.1010   6.1212   O.co2     1 RES1   0.0000
    10 O7       4.1157  10.9326  10.5788   O.co2     1 RES1   0.0000
    11 O8       9.9300   7.7092  11.0369   O.co2     1 RES1   0.0000
    12 C1       8.5074   6.6221   9.4564   C.ar      1 RES1   0.0000
    13 C2       5.5199  11.4639   8.7408   C.ar      1 RES1   0.0000
    14 C3       8.0715  10.5242   6.3365   C.2       1 RES1   0.0000
    15 C4       9.0324   7.8338  10.2188   C.2       1 RES1   0.0000
    16 C5       7.2897   4.7461   7.8847   C.ar      1 RES1   0.0000
    17 H1       6.8762   4.1224   7.3330   H         1 RES1   0.0000
    18 C6       5.8574   6.7441   6.9921   C.2       1 RES1   0.0000
    19 C7       7.0250  11.4367   6.9482   C.ar      1 RES1   0.0000
    20 C8       6.9097   6.0777   7.8628   C.ar      1 RES1   0.0000
    21 C9       5.0037  10.5521   9.8296   C.2       1 RES1   0.0000
    22 C10      6.6560  12.7001   6.5750   C.ar      1 RES1   0.0000
    23 H2       7.0380  13.1095   5.8316   H         1 RES1   0.0000
    24 C11      8.9234   5.3089   9.5398   C.ar      1 RES1   0.0000
    25 H3       9.6111   5.0677  10.1178   H         1 RES1   0.0000
    26 C12      5.1227  12.7413   8.4247   C.ar      1 RES1   0.0000
    27 H4       4.4810  13.1797   8.9354   H         1 RES1   0.0000
    28 C13      8.3046   4.3646   8.7554   C.ar      1 RES1   0.0000
    29 H5       8.5637   3.4735   8.8067   H         1 RES1   0.0000
    30 C14      5.6996  13.3571   7.3345   C.ar      1 RES1   0.0000
    31 H6       5.4430  14.2218   7.1047   H         1 RES1   0.0000
    32 O9       3.7692   7.5637   4.4911   O.3       2 RES2   0.0000
    33 H7       4.2901   7.1448   4.9653   H         2 RES2   0.0000
    34 N3       0.9878   4.1837   1.1268   N.pl3     2 RES2   0.0000
    35 O10      0.0417   4.6280   0.4902   O.2       2 RES2   0.0000
    36 C15      1.7075   5.0561   2.0092   C.ar      2 RES2   0.0000
    37 C16      3.1128   6.7152   3.6907   C.ar      2 RES2   0.0000
    38 O11      1.3424   3.0330   1.0039   O.2       2 RES2   0.0000
    39 C17      3.3798   5.3491   3.6863   C.ar      2 RES2   0.0000
    40 H8       4.0309   5.0013   4.2526   H         2 RES2   0.0000
    41 C18      2.6864   4.5167   2.8492   C.ar      2 RES2   0.0000
    42 H9       2.8636   3.6033   2.8404   H         2 RES2   0.0000
    43 C19      1.4309   6.4039   2.0107   C.ar      2 RES2   0.0000
    44 H10      0.7714   6.7541   1.4575   H         2 RES2   0.0000
    45 C20      2.1524   7.2188   2.8492   C.ar      2 RES2   0.0000
    46 H11      1.9862   8.1345   2.8477   H         2 RES2   0.0000
    47 O12      7.1285   7.1909   3.0614   O.2       3 RES3   0.0000
    48 O13      4.6285  10.2931   0.8824   O.2       3 RES3   0.0000
    49 N4       5.8029   8.7191   2.0385   N.am      3 RES3   0.0000
    50 N5       9.7063  10.7867   1.7853   N.pl3     3 RES3   0.0000
    51 C21      4.1394   5.6823  -0.3937   C.ar      3 RES3   0.0000
    52 C22      5.7047   6.3708   1.3653   C.ar      3 RES3   0.0000
    53 C23      4.5345   4.3409  -0.2034   C.ar      3 RES3   0.0000
    54 N6      11.0301  11.6611   0.3351   N.pl3     3 RES3   1.0000
    55 H12     11.4591  11.7980  -0.3980   H         3 RES3   0.0000
    56 C24      6.2723   7.4205   2.2214   C.2       3 RES3   0.0000
    57 C25      5.4818   4.0541   0.7712   C.ar      3 RES3   0.0000
    58 H13      5.7292   3.1697   0.9146   H         3 RES3   0.0000
    59 C26      6.0680   5.0500   1.5366   C.ar      3 RES3   0.0000
    60 H14      6.7116   4.8267   2.1687   H         3 RES3   0.0000
    61 C27      4.9061   9.1151   1.0375   C.2       3 RES3   0.0000
    62 C28      7.3730  10.6217   2.4292   C.3       3 RES3   0.0000
    63 H15      7.1375  10.9187   1.5366   H         3 RES3   0.0000
    64 H16      7.4680  11.4095   2.9882   H         3 RES3   0.0000
    65 C29      8.6726   9.9087   2.3751   C.3       3 RES3   0.0000
    66 H17      8.9384   9.6462   3.2692   H         3 RES3   0.0000
    67 H18      8.5816   9.1063   1.8380   H         3 RES3   0.0000
    68 C30     10.1613  10.7142   0.5444   C.2       3 RES3   0.0000
    69 H19      9.8995  10.0797  -0.0834   H         3 RES3   0.0000
    70 C31      6.2543   9.7618   2.9751   C.3       3 RES3   0.0000
    71 H20      6.5563   9.3372   3.7946   H         3 RES3   0.0000
    72 H21      5.5019  10.3312   3.1975   H         3 RES3   0.0000
    73 C32     10.2892  11.8703   2.3707   C.2       3 RES3   0.0000
    74 H22     10.1286  12.1888   3.2297   H         3 RES3   0.0000
    75 C33     11.1430  12.3917   1.4648   C.2       3 RES3   0.0000
    76 H23     11.7058  13.1205   1.5951   H         3 RES3   0.0000
    77 O12A     1.7346   5.1983  -3.0614   O.2       3 RES3   0.0000
    78 O13A     4.2346   2.0961  -0.8824   O.2       3 RES3   0.0000
    79 N4A      3.0602   3.6701  -2.0385   N.am      3 RES3   0.0000
    80 N5A     -0.8432   1.6025  -1.7853   N.pl3     3 RES3   0.0000
    81 C21A     4.7237   6.7069   0.3937   C.ar      3 RES3   0.0000
    82 C22A     3.1585   6.0184  -1.3653   C.ar      3 RES3   0.0000
    83 C23A     4.3286   8.0483   0.2034   C.ar      3 RES3   0.0000
    84 N6A     -2.1669   0.7281  -0.3351   N.pl3     3 RES3   1.0000
    85 H12A    -2.5960   0.5911   0.3980   H         3 RES3   0.0000
    86 C24A     2.5908   4.9686  -2.2214   C.2       3 RES3   0.0000
    87 C25A     3.3813   8.3351  -0.7712   C.ar      3 RES3   0.0000
    88 H13A     3.1339   9.2194  -0.9146   H         3 RES3   0.0000
    89 C26A     2.7951   7.3392  -1.5366   C.ar      3 RES3   0.0000
    90 H14A     2.1516   7.5625  -2.1687   H         3 RES3   0.0000
    91 C27A     3.9571   3.2741  -1.0375   C.2       3 RES3   0.0000
    92 C28A     1.4901   1.7675  -2.4292   C.3       3 RES3   0.0000
    93 H15A     1.7256   1.4705  -1.5366   H         3 RES3   0.0000
    94 H16A     1.3951   0.9797  -2.9882   H         3 RES3   0.0000
    95 C29A     0.1905   2.4805  -2.3751   C.3       3 RES3   0.0000
    96 H17A    -0.0753   2.7430  -3.2692   H         3 RES3   0.0000
    97 H18A     0.2816   3.2829  -1.8380   H         3 RES3   0.0000
    98 C30A    -1.2982   1.6750  -0.5444   C.2       3 RES3   0.0000
    99 H19A    -1.0364   2.3095   0.0834   H         3 RES3   0.0000
   100 C31A     2.6088   2.6274  -2.9751   C.3       3 RES3   0.0000
   101 H20A     2.3068   3.0519  -3.7946   H         3 RES3   0.0000
   102 H21A     3.3612   2.0579  -3.1975   H         3 RES3   0.0000
   103 C32A    -1.4261   0.5188  -2.3707   C.2       3 RES3   0.0000
   104 H22A    -1.2655   0.2004  -3.2297   H         3 RES3   0.0000
   105 C33A    -2.2799  -0.0025  -1.4648   C.2       3 RES3   0.0000
   106 H23A    -2.8427  -0.7313  -1.5951   H         3 RES3   0.0000
   107 O14      2.4339   9.5987  12.3305   O.3       4 RES4   0.0000
   108 H24      2.9768   9.9744  11.7949   H         4 RES4   0.0000
   109 H25      1.8143   9.2202  11.8885   H         4 RES4   0.0000
@<TRIPOS>BOND
     1     1     2    1
     2     2    18    1
     3     3     1    1
     4     4     1    1
     5     5     1    1
     6     6     1    1
     7     7    14    2
     8     8     1    1
     9     9    18    2
    10    10    21    2
    11    11    15    2
    12    12     6   ar
    13    13     8   ar
    14    14     3    1
    15    15     4    1
    16    16    17    1
    17    18    20    1
    18    19     8   ar
    19    20     6   ar
    20    21     5    1
    21    22    19   ar
    22    23    22    1
    23    24    12   ar
    24    25    24    1
    25    26    13   ar
    26    27    26    1
    27    28    16   ar
    28    29    28    1
    29    30    22   ar
    30    31    30    1
    31    12    15    1
    32    13    21    1
    33    14    19    1
    34    16    20   ar
    35    24    28   ar
    36    26    30   ar
    37    32    33    1
    38    34    35    2
    39    36    34    1
    40    37    32    1
    41    38    34    2
    42    39    37   ar
    43    40    39    1
    44    41    36   ar
    45    42    41    1
    46    43    36   ar
    47    44    43    1
    48    45    37   ar
    49    46    45    1
    50    39    41   ar
    51    43    45   ar
    52    47    56    2
    53    48    61    2
    54    49    56   am
    55    50    65    1
    56    51    53   ar
    57    52    56    1
    58    53    57   ar
    59    54    55    1
    60    57    58    1
    61    59    52   ar
    62    60    59    1
    63    61    49   am
    64    62    63    1
    65    64    62    1
    66    65    62    1
    67    66    65    1
    68    67    65    1
    69    68    50    1
    70    69    68    1
    71    70    49    1
    72    71    70    1
    73    72    70    1
    74    73    50    1
    75    74    73    1
    76    75    54    1
    77    76    75    1
    78    77    86    2
    79    78    91    2
    80    79    86   am
    81    80    95    1
    82    81    51   ar
    83    82    51   ar
    84    83    61    1
    85    84    85    1
    86    86    82    1
    87    87    83   ar
    88    88    87    1
    89    89    82   ar
    90    90    89    1
    91    91    53    1
    92    92    93    1
    93    94    92    1
    94    95    92    1
    95    96    95    1
    96    97    95    1
    97    98    80    1
    98    99    98    1
    99   100    79    1
   100   101   100    1
   101   102   100    1
   102   103    80    1
   103   104   103    1
   104   105    84    1
   105   106   105    1
   106    52    81   ar
   107    54    68    2
   108    57    59   ar
   109    62    70    1
   110    73    75    2
   111    79    91   am
   112    81    83   ar
   113    84    98    2
   114    87    89   ar
   115    92   100    1
   116   103   105    2
   117   107   108    1
   118   109   107    1
@<TRIPOS>SUBSTRUCTURE
     1 RES1        1 GROUP             0 ****  ****    0  
     2 RES2       32 GROUP             0 ****  ****    0  
     3 RES3       47 GROUP             0 ****  ****    0  
     4 RES4      107 GROUP             0 ****  ****    0  
@<TRIPOS>CRYSIN
    9.2055   12.3939   14.7103   95.8360   90.1360   91.5830     2     1
