@<TRIPOS>MOLECULE
GUMJUW
   103   109     6     0     0
SMALL
USER_CHARGES
****
Generated from the CSD

@<TRIPOS>ATOM
     1 Fe1      2.9359   4.6385   5.0850   Fe        1 RES1   1.0000
     2 O1       2.4898   6.6052   4.8040   O.co2     1 RES1  -1.0000
     3 O2       2.8473   4.8276   7.0852   O.co2     1 RES1   0.0000
     4 O3       2.4341   2.6695   5.0513   O.co2     1 RES1  -1.0000
     5 N1       0.9433   4.6360   4.5404   N.ar      1 RES1   0.0000
     6 O4       0.8876   8.1103   4.3738   O.co2     1 RES1   0.0000
     7 O5       3.9471   4.4906   3.3534   O.co2     1 RES1   0.0000
     8 O6       0.8313   1.1656   4.6647   O.co2     1 RES1   0.0000
     9 N2       4.9106   4.7271   5.6673   N.ar      1 RES1   0.0000
    10 C1       0.3507   5.8002   4.2959   C.ar      1 RES1   0.0000
    11 O7       3.9843   5.1685   8.9811   O.co2     1 RES1   0.0000
    12 C2       0.3274   3.4704   4.4093   C.ar      1 RES1   0.0000
    13 O8       5.9692   4.5487   2.3535   O.co2     1 RES1   0.0000
    14 C3       1.2922   6.9579   4.5035   C.2       1 RES1   0.0000
    15 C4       1.2321   2.3008   4.7275   C.2       1 RES1   0.0000
    16 C5      -0.9767   5.8214   3.8834   C.ar      1 RES1   0.0000
    17 H1      -1.4009   6.6262   3.6935   H         1 RES1   0.0000
    18 C6      -1.0043   3.4334   4.0254   C.ar      1 RES1   0.0000
    19 H2      -1.4567   2.6246   3.9489   H         1 RES1   0.0000
    20 C7      -1.6454   4.6307   3.7604   C.ar      1 RES1   0.0000
    21 H3      -2.5376   4.6280   3.4982   H         1 RES1   0.0000
    22 C8       3.9154   4.9478   7.7791   C.2       1 RES1   0.0000
    23 C9       5.1757   4.8461   6.9540   C.ar      1 RES1   0.0000
    24 C10      5.8377   4.6650   4.7371   C.ar      1 RES1   0.0000
    25 C11      5.2540   4.5474   3.3493   C.2       1 RES1   0.0000
    26 C12      7.2008   4.7047   5.1127   C.ar      1 RES1   0.0000
    27 H4       7.8817   4.6611   4.4803   H         1 RES1   0.0000
    28 C13      6.4590   4.8910   7.4103   C.ar      1 RES1   0.0000
    29 H5       6.6508   4.9703   8.3159   H         1 RES1   0.0000
    30 C14      7.4736   4.8130   6.4555   C.ar      1 RES1   0.0000
    31 H6       8.3597   4.8342   6.7368   H         1 RES1   0.0000
    32 N3       1.2273   9.9142  -0.1544   N.am      2 RES2   0.0000
    33 O9       3.1566  10.5869   0.8209   O.2       2 RES2   0.0000
    34 O10     -0.7272   9.2191  -1.0668   O.2       2 RES2   0.0000
    35 N4       3.9497   7.0398   1.1747   N.pl3     2 RES2   1.0000
    36 C15      0.2407  12.5586  -0.0301   C.ar      2 RES2   0.0000
    37 C16     -0.5522  11.5384  -0.5846   C.ar      2 RES2   0.0000
    38 C17      1.5335  12.2758   0.4713   C.ar      2 RES2   0.0000
    39 C18     -0.0681  10.1362  -0.6379   C.2       2 RES2   0.0000
    40 C19      2.3026  13.2828   1.0053   C.ar      2 RES2   0.0000
    41 H7       3.1483  13.0899   1.3386   H         2 RES2   0.0000
    42 N5       5.9399   7.6240   0.7062   N.pl3     2 RES2   0.0000
    43 H8       6.6696   7.7535   0.2664   H         2 RES2   0.0000
    44 C20      1.7893   8.5583  -0.2677   C.3       2 RES2   0.0000
    45 H9       2.7370   8.6217  -0.4658   H         2 RES2   0.0000
    46 H10      1.3607   8.0958  -1.0053   H         2 RES2   0.0000
    47 C21      1.5982   7.7455   1.0149   C.3       2 RES2   0.0000
    48 H11      1.7485   8.3165   1.7853   H         2 RES2   0.0000
    49 H12      0.6856   7.4191   1.0572   H         2 RES2   0.0000
    50 C22      2.0488  10.8842   0.3948   C.2       2 RES2   0.0000
    51 C23      1.8203  14.5938   1.0531   C.ar      2 RES2   0.0000
    52 C24      2.5515   6.5773   1.0600   C.3       2 RES2   0.0000
    53 H13      2.3359   6.0130   1.8181   H         2 RES2   0.0000
    54 H14      2.4527   6.0487   0.2527   H         2 RES2   0.0000
    55 C25      4.4921   7.5870   2.3112   C.2       2 RES2   0.0000
    56 H15      4.0696   7.6887   3.1335   H         2 RES2   0.0000
    57 C26      5.7463   7.9438   2.0066   C.2       2 RES2   0.0000
    58 H16      6.3662   8.3363   2.5789   H         2 RES2   0.0000
    59 C27      4.8366   7.0782   0.2104   C.2       2 RES2   0.0000
    60 H17      4.7152   6.7769  -0.6611   H         2 RES2   0.0000
    61 H18      2.4205  15.3959   1.3113   H         2 RES2   0.0000
    62 N3B     -1.2273  16.5166   0.1544   N.am      2 RES2   0.0000
    63 O9B     -3.1566  15.8439  -0.8209   O.2       2 RES2   0.0000
    64 O10B     0.7272  17.2117   1.0668   O.2       2 RES2   0.0000
    65 N4B     -3.9497  19.3910  -1.1747   N.pl3     2 RES2   1.0000
    66 C15B    -0.2407  13.8722   0.0301   C.ar      2 RES2   0.0000
    67 C16B     0.5522  14.8924   0.5846   C.ar      2 RES2   0.0000
    68 C17B    -1.5335  14.1550  -0.4713   C.ar      2 RES2   0.0000
    69 C18B     0.0681  16.2946   0.6379   C.2       2 RES2   0.0000
    70 C19B    -2.3026  13.1480  -1.0053   C.ar      2 RES2   0.0000
    71 H7B     -3.1483  13.3409  -1.3386   H         2 RES2   0.0000
    72 N5B     -5.9399  18.8068  -0.7062   N.pl3     2 RES2   0.0000
    73 H8B     -6.6696  18.6773  -0.2664   H         2 RES2   0.0000
    74 C20B    -1.7893  17.8725   0.2677   C.3       2 RES2   0.0000
    75 H9B     -2.7370  17.8091   0.4658   H         2 RES2   0.0000
    76 H10B    -1.3607  18.3350   1.0053   H         2 RES2   0.0000
    77 C21B    -1.5982  18.6853  -1.0149   C.3       2 RES2   0.0000
    78 H11B    -1.7485  18.1143  -1.7853   H         2 RES2   0.0000
    79 H12B    -0.6856  19.0117  -1.0572   H         2 RES2   0.0000
    80 C22B    -2.0488  15.5466  -0.3948   C.2       2 RES2   0.0000
    81 C23B    -1.8203  11.8370  -1.0531   C.ar      2 RES2   0.0000
    82 C24B    -2.5515  19.8535  -1.0600   C.3       2 RES2   0.0000
    83 H13B    -2.3359  20.4178  -1.8181   H         2 RES2   0.0000
    84 H14B    -2.4527  20.3821  -0.2527   H         2 RES2   0.0000
    85 C25B    -4.4921  18.8438  -2.3112   C.2       2 RES2   0.0000
    86 H15B    -4.0696  18.7421  -3.1335   H         2 RES2   0.0000
    87 C26B    -5.7463  18.4870  -2.0066   C.2       2 RES2   0.0000
    88 H16B    -6.3662  18.0945  -2.5789   H         2 RES2   0.0000
    89 C27B    -4.8366  19.3526  -0.2104   C.2       2 RES2   0.0000
    90 H17B    -4.7152  19.6539   0.6611   H         2 RES2   0.0000
    91 H18B    -2.4205  11.0349  -1.3113   H         2 RES2   0.0000
    92 O11      2.3582   5.6456  11.0218   O.3       3 RES3   0.0000
    93 H19      2.1494   4.9082  10.6557   H         3 RES3   0.0000
    94 H20      1.6522   6.0923  11.1816   H         3 RES3   0.0000
    95 O12      3.0420   8.0310  12.0094   O.3       4 RES4   0.0000
    96 H21      2.1954   8.1037  11.9698   H         4 RES4   0.0000
    97 H22      3.3904   8.4222  11.3401   H         4 RES4   0.0000
    98 O13      8.5980   8.3601   0.1024   O.3       5 RES5   0.0000
    99 H23      9.0772   7.8949  -0.4221   H         5 RES5   0.0000
   100 H24      9.0968   8.7697   0.6543   H         5 RES5   0.0000
   101 O14      0.2844   9.2785  11.2568   O.3       6 RES6   0.0000
   102 H25      1.1662   9.2772  11.0505   H         6 RES6   0.0000
   103 H26      0.4045   8.4209  11.0095   H         6 RES6   0.0000
@<TRIPOS>BOND
     1     1     2    1
     2     2    14    1
     3     3     1    1
     4     4     1    1
     5     5     1    1
     6     6    14    2
     7     7     1    1
     8     8    15    2
     9     9     1    1
    10    10     5   ar
    11    11    22    2
    12    12     5   ar
    13    13    25    2
    14    14    10    1
    15    15     4    1
    16    16    10   ar
    17    17    16    1
    18    18    12   ar
    19    19    18    1
    20    20    16   ar
    21    21    20    1
    22    22     3    1
    23    23     9   ar
    24    24     9   ar
    25    25     7    1
    26    26    24   ar
    27    27    26    1
    28    28    23   ar
    29    29    28    1
    30    30    26   ar
    31    31    30    1
    32    12    15    1
    33    18    20   ar
    34    22    23    1
    35    24    25    1
    36    28    30   ar
    37    32    39   am
    38    33    50    2
    39    34    39    2
    40    35    52    1
    41    36    37   ar
    42    37    39    1
    43    38    36   ar
    44    40    38   ar
    45    41    40    1
    46    42    43    1
    47    44    32    1
    48    45    44    1
    49    46    44    1
    50    47    44    1
    51    48    47    1
    52    49    47    1
    53    50    32   am
    54    51    40   ar
    55    52    47    1
    56    53    52    1
    57    54    52    1
    58    55    35    1
    59    56    55    1
    60    57    42    1
    61    58    57    1
    62    59    35    2
    63    60    59    1
    64    61    51    1
    65    62    69   am
    66    63    80    2
    67    64    69    2
    68    65    82    1
    69    66    36   ar
    70    67    51   ar
    71    68    66   ar
    72    69    67    1
    73    70    68   ar
    74    71    70    1
    75    72    73    1
    76    74    62    1
    77    75    74    1
    78    76    74    1
    79    77    74    1
    80    78    77    1
    81    79    77    1
    82    80    62   am
    83    81    37   ar
    84    82    77    1
    85    83    82    1
    86    84    82    1
    87    85    65    1
    88    86    85    1
    89    87    72    1
    90    88    87    1
    91    89    65    2
    92    90    89    1
    93    91    81    1
    94    38    50    1
    95    42    59    1
    96    55    57    2
    97    66    67   ar
    98    68    80    1
    99    70    81   ar
   100    72    89    1
   101    85    87    2
   102    92    93    1
   103    94    92    1
   104    95    96    1
   105    97    95    1
   106    98    99    1
   107   100    98    1
   108   101   102    1
   109   103   101    1
@<TRIPOS>SUBSTRUCTURE
     1 RES1        1 GROUP             0 ****  ****    0  
     2 RES2       32 GROUP             0 ****  ****    0  
     3 RES3       92 GROUP             0 ****  ****    0  
     4 RES4       95 GROUP             0 ****  ****    0  
     5 RES5       98 GROUP             0 ****  ****    0  
     6 RES6      101 GROUP             0 ****  ****    0  
@<TRIPOS>CRYSIN
   15.9412   13.2154   14.3335   90.0000  107.6410   90.0000    14     1
