@<TRIPOS>MOLECULE
GUNHIJ
    91    96     5     0     0
SMALL
USER_CHARGES
****
Generated from the CSD

@<TRIPOS>ATOM
     1 Fe1      4.0762   6.5832   5.3401   Fe        1 RES1   0.0000
     2 C1       2.6391   4.1971   5.7664   C.2       1 RES1   0.0000
     3 N1       2.6451   5.4805   6.1644   N.2       1 RES1  -1.0000
     4 N2       6.6866   5.7848   8.4068   N.2       1 RES1   0.0000
     5 N3       6.1344   5.3342   7.2864   N.2       1 RES1   0.0000
     6 N4       5.2690   6.2595   6.8641   N.2       1 RES1  -1.0000
     7 N5       1.1086   4.3799   7.2188   N.2       1 RES1   0.0000
     8 C2       3.8522   2.5893   4.1778   C.ar      1 RES1   0.0000
     9 H1       3.3541   1.8451   4.4288   H         1 RES1   0.0000
    10 C3       3.6158   3.8257   4.7489   C.ar      1 RES1   0.0000
    11 N6       1.6700   5.5690   7.0877   N.2       1 RES1   0.0000
    12 C4       4.8527   2.4863   3.2197   C.ar      1 RES1   0.0000
    13 H2       5.0192   1.6673   2.8120   H         1 RES1   0.0000
    14 N7       1.7074   3.4923   6.3895   N.2       1 RES1   0.0000
    15 N8       7.0947   6.4369   2.6837   N.2       1 RES1   0.0000
    16 C5       3.1058   9.2384   5.7834   C.ar      1 RES1   0.0000
    17 N9       3.8651   8.2452   6.2976   N.ar      1 RES1   0.0000
    18 C6       5.3351   7.2682   7.7562   C.2       1 RES1   0.0000
    19 N10      1.8147   9.4297   3.5964   N.2       1 RES1   0.0000
    20 C7       4.5180   8.4377   7.4631   C.ar      1 RES1   0.0000
    21 N11      1.6829   8.5350   2.5887   N.2       1 RES1   0.0000
    22 C8       4.4164   9.6227   8.1647   C.ar      1 RES1   0.0000
    23 H3       4.8580   9.7357   8.9753   H         1 RES1   0.0000
    24 N12      2.3089   7.4182   2.8997   N.2       1 RES1   0.0000
    25 C9       3.6386  10.6417   7.6303   C.ar      1 RES1   0.0000
    26 H4       3.5593  11.4501   8.0833   H         1 RES1   0.0000
    27 N13      2.8630   7.5577   4.1138   N.2       1 RES1   0.0000
    28 C10      2.9791  10.4584   6.4226   C.ar      1 RES1   0.0000
    29 H5       2.4647  11.1391   6.0525   H         1 RES1   0.0000
    30 N14      7.3327   7.6966   3.0994   N.2       1 RES1   0.0000
    31 C11      2.5509   8.7972   4.5096   C.2       1 RES1   0.0000
    32 N15      6.2028   7.0054   8.7296   N.2       1 RES1   0.0000
    33 N16      4.3487   4.9080   4.4127   N.ar      1 RES1   0.0000
    34 C12      5.6049   3.5973   2.8669   C.ar      1 RES1   0.0000
    35 H6       6.2752   3.5355   2.2252   H         1 RES1   0.0000
    36 N17      6.4503   8.0697   4.0161   N.2       1 RES1   0.0000
    37 C13      6.0311   6.0666   3.3818   C.2       1 RES1   0.0000
    38 N18      5.6155   7.0498   4.2102   N.2       1 RES1   0.0000
    39 C14      5.3316   4.7995   3.4948   C.ar      1 RES1   0.0000
    40 H7      10.3227   8.4491   2.9090   H         2 RES2   0.0000
    41 O1       9.7886   8.8713   2.5134   O.3       2 RES2   0.0000
    42 H8       9.0352   8.4625   2.7109   H         2 RES2   0.0000
    43 C15      9.3625   8.9674  -1.0200   C.3       3 RES3   0.0000
    44 H9       9.3701   9.4589  -1.8562   H         3 RES3   0.0000
    45 H10      9.7041   8.0773  -1.1989   H         3 RES3   0.0000
    46 C16     12.1496   8.0031   0.1089   C.3       3 RES3   0.0000
    47 H11     11.6538   7.3286  -0.3613   H         3 RES3   0.0000
    48 H12     11.9845   7.9233   1.0510   H         3 RES3   0.0000
    49 H13     13.0872   7.8888  -0.0627   H         3 RES3   0.0000
    50 C17     11.7160   9.3639  -0.3627   C.3       3 RES3   0.0000
    51 H14     12.2742  10.0373   0.0565   H         3 RES3   0.0000
    52 H15     11.8481   9.4239  -1.3219   H         3 RES3   0.0000
    53 H16     10.0705   9.3448   0.8294   H         3 RES3   0.0000
    54 C18     10.6299  11.8283   1.1642   C.3       3 RES3   0.0000
    55 H17     11.5836  11.8452   1.0562   H         3 RES3   0.0000
    56 H18     10.4075  11.3581   1.9711   H         3 RES3   0.0000
    57 H19     10.2977  12.7275   1.2160   H         3 RES3   0.0000
    58 N19     10.2832   9.6523  -0.0483   N.4       3 RES3   1.0000
    59 C19     10.0069  11.1325  -0.0071   C.3       3 RES3   0.0000
    60 H20     10.3395  11.5359  -0.8241   H         3 RES3   0.0000
    61 H21      9.0472  11.2710   0.0206   H         3 RES3   0.0000
    62 C20      7.9471   8.8531  -0.5409   C.3       3 RES3   0.0000
    63 H22      7.5533   9.7273  -0.4949   H         3 RES3   0.0000
    64 H23      7.9357   8.4506   0.3305   H         3 RES3   0.0000
    65 H24      7.4456   8.3080  -1.1517   H         3 RES3   0.0000
    66 O2       1.8868  13.9376   6.5203   O.3       4 RES4   0.0000
    67 H25      1.7878  14.7190   6.5607   H         4 RES4   0.0000
    68 H26      1.6308  13.6897   7.2662   H         4 RES4   0.0000
    69 H27      0.6438  11.0159   3.2927   H         5 RES5   0.0000
    70 N20      0.1376  11.7151   3.1585   N.4       5 RES5   1.0000
    71 C21      1.0046  12.9064   3.4503   C.3       5 RES5   0.0000
    72 H28      1.7573  12.9029   2.8384   H         5 RES5   0.0000
    73 H29      1.3565  12.8241   4.3505   H         5 RES5   0.0000
    74 C22      0.2837  14.2276   3.3281   C.3       5 RES5   0.0000
    75 H30     -0.0830  14.3115   2.4450   H         5 RES5   0.0000
    76 H31      0.9014  14.9451   3.4876   H         5 RES5   0.0000
    77 H32     -0.4253  14.2663   3.9741   H         5 RES5   0.0000
    78 C23     -0.3341  11.6275   1.7308   C.3       5 RES5   0.0000
    79 H33     -0.8050  10.7888   1.6057   H         5 RES5   0.0000
    80 H34     -0.9620  12.3473   1.5620   H         5 RES5   0.0000
    81 C24     -1.0458  11.5787   4.0771   C.3       5 RES5   0.0000
    82 H35     -1.6678  12.3014   3.8986   H         5 RES5   0.0000
    83 H36     -1.4997  10.7435   3.8839   H         5 RES5   0.0000
    84 C25     -0.6709  11.6055   5.5369   C.3       5 RES5   0.0000
    85 H37      0.0119  10.9517   5.7040   H         5 RES5   0.0000
    86 H38     -1.4439  11.4041   6.0696   H         5 RES5   0.0000
    87 H39     -0.3422  12.4776   5.7671   H         5 RES5   0.0000
    88 C26      0.7891  11.7124   0.7280   C.3       5 RES5   0.0000
    89 H40      0.4543  11.4995  -0.1462   H         5 RES5   0.0000
    90 H41      1.4792  11.0894   0.9669   H         5 RES5   0.0000
    91 H42      1.1486  12.6026   0.7248   H         5 RES5   0.0000
@<TRIPOS>BOND
     1     1     3    1
     2     2     3    1
     3     3    11    1
     4     4     5    2
     5     5     6    1
     6     6     1    1
     7     7    11    2
     8     8     9    1
     9    10     2    1
    10    12     8   ar
    11    13    12    1
    12    14     2    2
    13    15    30    1
    14    16    17   ar
    15    17     1    1
    16    18     6    1
    17    19    21    1
    18    20    17   ar
    19    21    24    2
    20    22    20   ar
    21    23    22    1
    22    24    27    1
    23    25    22   ar
    24    26    25    1
    25    27     1    1
    26    28    16   ar
    27    29    28    1
    28    30    36    2
    29    31    16    1
    30    32     4    1
    31    33     1    1
    32    34    12   ar
    33    35    34    1
    34    36    38    1
    35    37    15    2
    36    38     1    1
    37    39    33   ar
    38     7    14    1
    39     8    10   ar
    40    10    33   ar
    41    18    20    1
    42    18    32    2
    43    19    31    2
    44    25    28   ar
    45    27    31    1
    46    34    39   ar
    47    37    38    1
    48    37    39    1
    49    40    41    1
    50    41    42    1
    51    43    44    1
    52    45    43    1
    53    46    47    1
    54    48    46    1
    55    49    46    1
    56    50    46    1
    57    51    50    1
    58    52    50    1
    59    53    58    1
    60    54    55    1
    61    56    54    1
    62    57    54    1
    63    58    43    1
    64    59    54    1
    65    60    59    1
    66    61    59    1
    67    62    43    1
    68    63    62    1
    69    64    62    1
    70    65    62    1
    71    50    58    1
    72    58    59    1
    73    66    67    1
    74    68    66    1
    75    69    70    1
    76    70    71    1
    77    71    72    1
    78    73    71    1
    79    74    71    1
    80    75    74    1
    81    76    74    1
    82    77    74    1
    83    78    70    1
    84    79    78    1
    85    80    78    1
    86    81    70    1
    87    82    81    1
    88    83    81    1
    89    84    81    1
    90    85    84    1
    91    86    84    1
    92    87    84    1
    93    88    78    1
    94    89    88    1
    95    90    88    1
    96    91    88    1
@<TRIPOS>SUBSTRUCTURE
     1 RES1        1 GROUP             0 ****  ****    0  
     2 RES2       40 GROUP             0 ****  ****    0  
     3 RES3       43 GROUP             0 ****  ****    0  
     4 RES4       66 GROUP             0 ****  ****    0  
     5 RES5       69 GROUP             0 ****  ****    0  
@<TRIPOS>CRYSIN
   20.8262   13.3688   12.5935   90.0000  100.6000   90.0000    14     1
