@<TRIPOS>MOLECULE
GUNHOP
    85    92     3     0     0
SMALL
USER_CHARGES
****
Generated from the CSD

@<TRIPOS>ATOM
     1 Fe1      4.6977  12.3265  15.7105   Fe        1 RES1   0.0000
     2 C1       2.4336  14.0553  16.6095   C.2       1 RES1   0.0000
     3 N1       2.8881  14.9698  14.7504   N.2       1 RES1   0.0000
     4 C2       2.5838  13.1297  17.7198   C.ar      1 RES1   0.0000
     5 N2       1.9241  15.6459  15.3359   N.2       1 RES1   0.0000
     6 C3       1.8347  13.1113  18.8785   C.ar      1 RES1   0.0000
     7 H1       1.1188  13.6948  18.9895   H         1 RES1   0.0000
     8 N3       1.6207  15.0872  16.5162   N.2       1 RES1   0.0000
     9 C4       2.1670  12.2134  19.8661   C.ar      1 RES1   0.0000
    10 H2       1.6707  12.1849  20.6525   H         1 RES1   0.0000
    11 N4       3.6162  12.2880  17.5447   N.ar      1 RES1   0.0000
    12 C5       3.2295  11.3575  19.6948   C.ar      1 RES1   0.0000
    13 H3       3.4633  10.7525  20.3612   H         1 RES1   0.0000
    14 N5       5.6638  10.7553  16.9571   N.2       1 RES1  -1.0000
    15 C6       3.9414  11.4149  18.5128   C.ar      1 RES1   0.0000
    16 N6       6.6943   9.9013  16.9452   N.2       1 RES1   0.0000
    17 C7       5.1050  10.6139  18.1575   C.2       1 RES1   0.0000
    18 N7       6.7244   9.2827  18.1031   N.2       1 RES1   0.0000
    19 C8       4.0556  10.8309  13.1932   C.2       1 RES1   0.0000
    20 N8       5.7275   9.7125  18.8978   N.2       1 RES1   0.0000
    21 C9       5.2587  11.5620  12.8295   C.ar      1 RES1   0.0000
    22 N9       3.5680  10.9396  14.4327   N.2       1 RES1  -1.0000
    23 C10      5.8877  11.5575  11.5966   C.ar      1 RES1   0.0000
    24 H4       5.5577  11.0435  10.8953   H         1 RES1   0.0000
    25 N10      2.4730  10.1665  14.4482   N.2       1 RES1   0.0000
    26 C11      7.0133  12.3326  11.4345   C.ar      1 RES1   0.0000
    27 H5       7.4551  12.3435  10.6160   H         1 RES1   0.0000
    28 N11      2.3430   9.6353  13.2547   N.2       1 RES1   0.0000
    29 C12      7.4835  13.0850  12.4706   C.ar      1 RES1   0.0000
    30 H6       8.2370  13.6196  12.3596   H         1 RES1   0.0000
    31 N12      3.3254  10.0351  12.4330   N.2       1 RES1   0.0000
    32 C13      6.8297  13.0440  13.6867   C.ar      1 RES1   0.0000
    33 N13      5.7292  12.2908  13.8479   N.ar      1 RES1   0.0000
    34 C14      7.1459  13.8054  14.8848   C.2       1 RES1   0.0000
    35 N14      6.3420  13.7267  15.9454   N.2       1 RES1   0.0000
    36 N15      6.8609  14.5775  16.8440   N.2       1 RES1   0.0000
    37 N16      7.9379  15.1200  16.3294   N.2       1 RES1   0.0000
    38 N17      8.1428  14.6521  15.0838   N.2       1 RES1   0.0000
    39 N18      3.2299  13.9430  15.5535   N.2       1 RES1   0.0000
    40 H7       7.9195   7.8292  18.5301   H         2 RES2   0.0000
    41 C15      8.6169   6.9295  20.2303   C.3       2 RES2   0.0000
    42 H8       7.8285   6.4521  20.5330   H         2 RES2   0.0000
    43 H9       9.3812   6.3538  20.3907   H         2 RES2   0.0000
    44 C16      8.7587   8.0444  21.0004   C.3       2 RES2   0.0000
    45 H10      9.0410   8.7793  20.4527   H         2 RES2   0.0000
    46 H11      9.4157   7.8813  21.6819   H         2 RES2   0.0000
    47 H12      7.9176   8.2570  21.4133   H         2 RES2   0.0000
    48 C17      9.8160   7.3513  18.1260   C.3       2 RES2   0.0000
    49 H13     10.3229   6.5258  18.1703   H         2 RES2   0.0000
    50 H14     10.2976   8.0238  18.6317   H         2 RES2   0.0000
    51 C18      9.7201   7.7944  16.6839   C.3       2 RES2   0.0000
    52 H15      9.3843   7.0704  16.1489   H         2 RES2   0.0000
    53 H16     10.5898   8.0483  16.3688   H         2 RES2   0.0000
    54 H17      9.1234   8.5433  16.6183   H         2 RES2   0.0000
    55 N19      8.4947   7.1381  18.7451   N.4       2 RES2   1.0000
    56 C19      7.6581   6.0676  18.1422   C.3       2 RES2   0.0000
    57 H18      7.4577   6.3119  17.2253   H         2 RES2   0.0000
    58 H19      6.8177   6.0240  18.6241   H         2 RES2   0.0000
    59 C20      8.2820   4.7067  18.1463   C.3       2 RES2   0.0000
    60 H20      7.6557   4.0663  17.8025   H         2 RES2   0.0000
    61 H21      8.5218   4.4679  19.0459   H         2 RES2   0.0000
    62 H22      9.0689   4.7131  17.5974   H         2 RES2   0.0000
    63 H23      1.1557   8.0567  12.5093   H         3 RES3   0.0000
    64 N20      0.8970   7.4859  12.0838   N.4       3 RES3   1.0000
    65 C21     -0.0775   6.8926  13.1243   C.3       3 RES3   0.0000
    66 H24     -0.6623   6.2681  12.6664   H         3 RES3   0.0000
    67 H25      0.4424   6.3806  13.7647   H         3 RES3   0.0000
    68 C22     -0.8905   7.8005  13.8486   C.3       3 RES3   0.0000
    69 H26     -0.9737   8.6191  13.3555   H         3 RES3   0.0000
    70 H27     -0.4878   7.9802  14.7021   H         3 RES3   0.0000
    71 H28     -1.7606   7.4162  13.9813   H         3 RES3   0.0000
    72 C23      0.2311   7.8661  10.8878   C.3       3 RES3   0.0000
    73 H29     -0.5817   8.3382  11.1292   H         3 RES3   0.0000
    74 H30     -0.0311   7.0600  10.4161   H         3 RES3   0.0000
    75 C24      1.0034   8.7105   9.9703   C.3       3 RES3   0.0000
    76 H31      1.8234   8.2680   9.7401   H         3 RES3   0.0000
    77 H32      1.2007   9.5489  10.3951   H         3 RES3   0.0000
    78 H33      0.4912   8.8694   9.1734   H         3 RES3   0.0000
    79 C25      2.0252   6.5605  12.0188   C.3       3 RES3   0.0000
    80 H34      2.3805   6.4522  12.9152   H         3 RES3   0.0000
    81 H35      2.7205   6.9670  11.4790   H         3 RES3   0.0000
    82 C26      1.7402   5.2181  11.4698   C.3       3 RES3   0.0000
    83 H36      1.3451   5.3062  10.6002   H         3 RES3   0.0000
    84 H37      1.1318   4.7576  12.0532   H         3 RES3   0.0000
    85 H38      2.5577   4.7204  11.4028   H         3 RES3   0.0000
@<TRIPOS>BOND
     1     1    11    1
     2     2     4    1
     3     3     5    2
     4     4     6   ar
     5     5     8    1
     6     6     7    1
     7     8     2    2
     8     9     6   ar
     9    10     9    1
    10    11     4   ar
    11    12     9   ar
    12    13    12    1
    13    14     1    1
    14    15    11   ar
    15    16    14    1
    16    17    14    1
    17    18    16    2
    18    19    21    1
    19    20    17    2
    20    21    23   ar
    21    22     1    1
    22    23    24    1
    23    25    22    1
    24    26    23   ar
    25    27    26    1
    26    28    25    2
    27    29    26   ar
    28    30    29    1
    29    31    19    2
    30    32    29   ar
    31    33     1    1
    32    34    32    1
    33    35     1    1
    34    36    35    1
    35    37    36    2
    36    38    34    2
    37    39     1    1
    38     2    39    1
    39     3    39    1
    40    12    15   ar
    41    15    17    1
    42    18    20    1
    43    19    22    1
    44    21    33   ar
    45    28    31    1
    46    32    33   ar
    47    34    35    1
    48    37    38    1
    49    40    55    1
    50    41    42    1
    51    43    41    1
    52    44    41    1
    53    45    44    1
    54    46    44    1
    55    47    44    1
    56    48    49    1
    57    50    48    1
    58    51    48    1
    59    52    51    1
    60    53    51    1
    61    54    51    1
    62    55    41    1
    63    56    55    1
    64    57    56    1
    65    58    56    1
    66    59    56    1
    67    60    59    1
    68    61    59    1
    69    62    59    1
    70    48    55    1
    71    63    64    1
    72    64    65    1
    73    65    66    1
    74    67    65    1
    75    68    65    1
    76    69    68    1
    77    70    68    1
    78    71    68    1
    79    72    64    1
    80    73    72    1
    81    74    72    1
    82    75    72    1
    83    76    75    1
    84    77    75    1
    85    78    75    1
    86    79    64    1
    87    80    79    1
    88    81    79    1
    89    82    79    1
    90    83    82    1
    91    84    82    1
    92    85    82    1
@<TRIPOS>SUBSTRUCTURE
     1 RES1        1 GROUP             0 ****  ****    0  
     2 RES2       40 GROUP             0 ****  ****    0  
     3 RES3       63 GROUP             0 ****  ****    0  
@<TRIPOS>CRYSIN
   13.1335   20.4953   25.4150   90.0000   90.0000   90.0000    61     1
