@<TRIPOS>MOLECULE
GUTXEB
    88    91     3     0     0
SMALL
USER_CHARGES
****
Generated from the CSD

@<TRIPOS>ATOM
     1 Fe1     15.4641   7.4307   7.8092   Fe        1 RES1   1.0000
     2 P1      14.4201   8.9671   9.0936   P.3       1 RES1   0.0000
     3 P2      16.2042   5.8872   6.3293   P.3       1 RES1   0.0000
     4 P3      15.9003   6.0765   9.5918   P.3       1 RES1   0.0000
     5 N1      17.2309   8.4530   7.8684   N.ar      1 RES1   0.0000
     6 N2      15.2265   8.6269   6.3309   N.ar      1 RES1   0.0000
     7 C1      15.4819  10.1371  10.0256   C.3       1 RES1   0.0000
     8 H1      16.1145  10.5644   9.4111   H         1 RES1   0.0000
     9 H2      15.9767   9.6494  10.7168   H         1 RES1   0.0000
    10 H3      14.9219  10.8221  10.4466   H         1 RES1   0.0000
    11 C2      13.4166  10.1938   8.1792   C.3       1 RES1   0.0000
    12 H4      12.9996  10.8132   8.8140   H         1 RES1   0.0000
    13 H5      12.7199   9.7308   7.6689   H         1 RES1   0.0000
    14 H6      13.9931  10.6948   7.5650   H         1 RES1   0.0000
    15 C3      13.1784   8.4369  10.3184   C.3       1 RES1   0.0000
    16 H7      13.6008   7.8478  10.9779   H         1 RES1   0.0000
    17 H8      12.4567   7.9540   9.8639   H         1 RES1   0.0000
    18 H9      12.8099   9.2237  10.7718   H         1 RES1   0.0000
    19 C4      17.3065   9.4879   6.9747   C.ar      1 RES1   0.0000
    20 C5      18.3273  10.4273   6.9937   C.ar      1 RES1   0.0000
    21 H10     18.3241  11.1492   6.3760   H         1 RES1   0.0000
    22 C6      19.3513  10.3063   7.9194   C.ar      1 RES1   0.0000
    23 H11     20.0505  10.9486   7.9611   H         1 RES1   0.0000
    24 C7      19.3269   9.2289   8.7774   C.ar      1 RES1   0.0000
    25 H12     20.0277   9.1027   9.4061   H         1 RES1   0.0000
    26 C8      18.2695   8.3273   8.7175   C.ar      1 RES1   0.0000
    27 H13     18.2803   7.5827   9.3072   H         1 RES1   0.0000
    28 C9      16.1845   9.5379   6.0312   C.ar      1 RES1   0.0000
    29 C10     16.0678  10.3876   4.9549   C.ar      1 RES1   0.0000
    30 H14     16.7608  11.0023   4.7448   H         1 RES1   0.0000
    31 C11     14.9122  10.3262   4.1803   C.ar      1 RES1   0.0000
    32 H15     14.8056  10.9074   3.4364   H         1 RES1   0.0000
    33 C12     13.9199   9.4160   4.4978   C.ar      1 RES1   0.0000
    34 H16     13.1232   9.3807   3.9818   H         1 RES1   0.0000
    35 C13     14.0919   8.5541   5.5733   C.ar      1 RES1   0.0000
    36 C14     13.1899   7.5211   6.0625   C.ar      1 RES1   0.0000
    37 C15     12.0016   7.1922   5.4016   C.ar      1 RES1   0.0000
    38 H17     11.7545   7.6577   4.6114   H         1 RES1   0.0000
    39 C16     11.1887   6.1942   5.8932   C.ar      1 RES1   0.0000
    40 H18     10.3939   5.9492   5.4342   H         1 RES1   0.0000
    41 C17     11.5492   5.5553   7.0678   C.ar      1 RES1   0.0000
    42 H19     10.9807   4.8851   7.4292   H         1 RES1   0.0000
    43 C18     12.7349   5.8795   7.7288   C.ar      1 RES1   0.0000
    44 H20     12.9443   5.4303   8.5391   H         1 RES1   0.0000
    45 C19     13.6358   6.8520   7.2379   C.ar      1 RES1   0.0000
    46 C20     15.5153   4.1981   6.4071   C.3       1 RES1   0.0000
    47 H21     14.5383   4.2409   6.3421   H         1 RES1   0.0000
    48 H22     15.7683   3.7813   7.2570   H         1 RES1   0.0000
    49 H23     15.8693   3.6667   5.6639   H         1 RES1   0.0000
    50 C21     18.0120   5.6252   6.2132   C.3       1 RES1   0.0000
    51 H24     18.2021   4.9625   5.5172   H         1 RES1   0.0000
    52 H25     18.3513   5.3024   7.0739   H         1 RES1   0.0000
    53 H26     18.4507   6.4721   5.9863   H         1 RES1   0.0000
    54 C22     15.8805   6.2433   4.5648   C.3       1 RES1   0.0000
    55 H27     16.3019   5.5547   4.0097   H         1 RES1   0.0000
    56 H28     16.2526   7.1209   4.3351   H         1 RES1   0.0000
    57 H29     14.9138   6.2468   4.4041   H         1 RES1   0.0000
    58 C23     14.6668   4.8824  10.2419   C.3       1 RES1   0.0000
    59 H30     14.4569   4.2210   9.5504   H         1 RES1   0.0000
    60 H31     13.8501   5.3619  10.4945   H         1 RES1   0.0000
    61 H32     15.0353   4.4281  11.0281   H         1 RES1   0.0000
    62 C24     16.3311   6.8756  11.1976   C.3       1 RES1   0.0000
    63 H33     16.6204   6.1907  11.8360   H         1 RES1   0.0000
    64 H34     15.5452   7.3415  11.5519   H         1 RES1   0.0000
    65 H35     17.0569   7.5192  11.0578   H         1 RES1   0.0000
    66 C25     17.3219   4.9126   9.5014   C.3       1 RES1   0.0000
    67 H36     17.4255   4.4563  10.3623   H         1 RES1   0.0000
    68 H37     18.1398   5.4120   9.2959   H         1 RES1   0.0000
    69 H38     17.1577   4.2507   8.7980   H         1 RES1   0.0000
    70 P4      11.1998   3.0768  11.4589   P.3       2 RES2  -1.0000
    71 F1      11.0838   2.9204   9.8744   F         2 RES2   0.0000
    72 F2      12.7602   2.7502  11.3829   F         2 RES2   0.0000
    73 F3      10.9226   1.5109  11.6304   F         2 RES2   0.0000
    74 F4      11.4971   4.6291  11.2793   F         2 RES2   0.0000
    75 F5       9.6430   3.3759  11.5442   F         2 RES2   0.0000
    76 F6      11.3017   3.2218  13.0441   F         2 RES2   0.0000
    77 C26      9.7824   8.0173  12.4084   C.ar      3 RES3   0.0000
    78 H39     10.3483   8.3903  11.7425   H         3 RES3   0.0000
    79 C27      9.2337   6.7707  12.2277   C.ar      3 RES3   0.0000
    80 H40      9.4420   6.2675  11.4490   H         3 RES3   0.0000
    81 C28      8.3735   6.2481  13.1852   C.ar      3 RES3   0.0000
    82 H41      7.9814   5.3935  13.0506   H         3 RES3   0.0000
    83 C29      8.0859   6.9616  14.3257   C.ar      3 RES3   0.0000
    84 H42      7.4915   6.6058  14.9758   H         3 RES3   0.0000
    85 C30      8.6698   8.1997  14.5179   C.ar      3 RES3   0.0000
    86 H43      8.4904   8.6873  15.3134   H         3 RES3   0.0000
    87 C31      9.5078   8.7308  13.5666   C.ar      3 RES3   0.0000
    88 H44      9.8990   9.5856  13.7021   H         3 RES3   0.0000
@<TRIPOS>BOND
     1     1     2    1
     2     2     7    1
     3     3     1    1
     4     4     1    1
     5     5     1    1
     6     6     1    1
     7     7     8    1
     8     9     7    1
     9    10     7    1
    10    11     2    1
    11    12    11    1
    12    13    11    1
    13    14    11    1
    14    15     2    1
    15    16    15    1
    16    17    15    1
    17    18    15    1
    18    19     5   ar
    19    20    19   ar
    20    21    20    1
    21    22    20   ar
    22    23    22    1
    23    24    22   ar
    24    25    24    1
    25    26     5   ar
    26    27    26    1
    27    28     6   ar
    28    29    28   ar
    29    30    29    1
    30    31    29   ar
    31    32    31    1
    32    33    31   ar
    33    34    33    1
    34    35     6   ar
    35    36    35    1
    36    37    36   ar
    37    38    37    1
    38    39    37   ar
    39    40    39    1
    40    41    39   ar
    41    42    41    1
    42    43    41   ar
    43    44    43    1
    44    45     1    1
    45    46     3    1
    46    47    46    1
    47    48    46    1
    48    49    46    1
    49    50     3    1
    50    51    50    1
    51    52    50    1
    52    53    50    1
    53    54     3    1
    54    55    54    1
    55    56    54    1
    56    57    54    1
    57    58     4    1
    58    59    58    1
    59    60    58    1
    60    61    58    1
    61    62     4    1
    62    63    62    1
    63    64    62    1
    64    65    62    1
    65    66     4    1
    66    67    66    1
    67    68    66    1
    68    69    66    1
    69    19    28    1
    70    24    26   ar
    71    33    35   ar
    72    36    45   ar
    73    43    45   ar
    74    70    71    1
    75    72    70    1
    76    73    70    1
    77    74    70    1
    78    75    70    1
    79    76    70    1
    80    77    78    1
    81    79    77   ar
    82    80    79    1
    83    81    79   ar
    84    82    81    1
    85    83    81   ar
    86    84    83    1
    87    85    83   ar
    88    86    85    1
    89    87    77   ar
    90    88    87    1
    91    85    87   ar
@<TRIPOS>SUBSTRUCTURE
     1 RES1        1 GROUP             0 ****  ****    0  
     2 RES2       70 GROUP             0 ****  ****    0  
     3 RES3       77 GROUP             0 ****  ****    0  
@<TRIPOS>CRYSIN
   19.5227    9.4510   18.6654   90.0000   90.0000   90.0000    29     1
