@<TRIPOS>MOLECULE
GUTXOL
    80    85     2     0     0
SMALL
USER_CHARGES
****
Generated from the CSD

@<TRIPOS>ATOM
     1 Br1      5.5765   1.0386   7.2200   Br        1 RES1   0.0000
     2 Fe1      6.6327   2.9469   6.1820   Fe        1 RES1   1.0000
     3 P1       5.0579   4.2712   7.1539   P.3       1 RES1   0.0000
     4 P2       8.1462   1.5411   5.1979   P.3       1 RES1   0.0000
     5 N1       7.4954   4.4604   5.3625   N.ar      1 RES1   0.0000
     6 N2       8.0280   3.3976   7.5996   N.ar      1 RES1   0.0000
     7 C1       8.5853   5.0115   5.9436   C.ar      1 RES1   0.0000
     8 C2       9.2844   6.0344   5.3203   C.ar      1 RES1   0.0000
     9 H1      10.0383   6.3975   5.7268   H         1 RES1   0.0000
    10 C3       8.8548   6.5227   4.0736   C.ar      1 RES1   0.0000
    11 C4       7.7001   5.9578   3.5214   C.ar      1 RES1   0.0000
    12 H2       7.3687   6.2837   2.7148   H         1 RES1   0.0000
    13 C5       7.0434   4.9175   4.1636   C.ar      1 RES1   0.0000
    14 C6       5.9167   4.1191   3.6805   C.ar      1 RES1   0.0000
    15 C7       5.5982   3.0270   4.5099   C.ar      1 RES1   0.0000
    16 C8       4.6085   2.1339   4.0622   C.ar      1 RES1   0.0000
    17 H3       4.3700   1.4067   4.5902   H         1 RES1   0.0000
    18 C9       3.9836   2.3316   2.8330   C.ar      1 RES1   0.0000
    19 H4       3.3554   1.7147   2.5335   H         1 RES1   0.0000
    20 C10      4.2850   3.4400   2.0446   C.ar      1 RES1   0.0000
    21 H5       3.8406   3.5738   1.2390   H         1 RES1   0.0000
    22 C11      5.2506   4.3434   2.4665   C.ar      1 RES1   0.0000
    23 H6       5.4540   5.0900   1.9492   H         1 RES1   0.0000
    24 C12      9.6382   7.5513   3.3387   C.ar      1 RES1   0.0000
    25 C13     10.6614   8.2636   3.9535   C.ar      1 RES1   0.0000
    26 H7      10.8367   8.1311   4.8571   H         1 RES1   0.0000
    27 C14     11.4263   9.1717   3.2309   C.ar      1 RES1   0.0000
    28 H8      12.1017   9.6444   3.6601   H         1 RES1   0.0000
    29 C15     11.1963   9.3816   1.8848   C.ar      1 RES1   0.0000
    30 H9      11.7156   9.9873   1.4053   H         1 RES1   0.0000
    31 C16     10.1844   8.6789   1.2612   C.ar      1 RES1   0.0000
    32 H10     10.0213   8.8111   0.3559   H         1 RES1   0.0000
    33 C17      9.4081   7.7771   1.9732   C.ar      1 RES1   0.0000
    34 H11      8.7268   7.3168   1.5396   H         1 RES1   0.0000
    35 C18      8.9433   4.3627   7.2148   C.ar      1 RES1   0.0000
    36 C19     10.0636   4.6369   7.9489   C.ar      1 RES1   0.0000
    37 H12     10.6644   5.2841   7.6576   H         1 RES1   0.0000
    38 C20     10.3087   3.9352   9.1533   C.ar      1 RES1   0.0000
    39 C21      9.3378   2.9904   9.5761   C.ar      1 RES1   0.0000
    40 C22      8.2214   2.7658   8.7474   C.ar      1 RES1   0.0000
    41 H13      7.5886   2.1422   9.0192   H         1 RES1   0.0000
    42 C23      9.5240   2.2776  10.7847   C.ar      1 RES1   0.0000
    43 H14      8.8879   1.6607  11.0641   H         1 RES1   0.0000
    44 C24     10.6443   2.5000  11.5414   C.ar      1 RES1   0.0000
    45 H15     10.7633   2.0386  12.3401   H         1 RES1   0.0000
    46 C25     11.6174   3.4255  11.1114   C.ar      1 RES1   0.0000
    47 H16     12.3792   3.5592  11.6282   H         1 RES1   0.0000
    48 C26     11.4616   4.1328   9.9456   C.ar      1 RES1   0.0000
    49 H17     12.1135   4.7397   9.6773   H         1 RES1   0.0000
    50 C27      3.3340   3.8836   6.7478   C.3       1 RES1   0.0000
    51 H18      2.7500   4.4435   7.2647   H         1 RES1   0.0000
    52 H19      3.1565   2.9623   6.9524   H         1 RES1   0.0000
    53 H20      3.1822   4.0393   5.8124   H         1 RES1   0.0000
    54 C28      5.1126   4.2703   8.9678   C.3       1 RES1   0.0000
    55 H21      4.3757   4.7806   9.3113   H         1 RES1   0.0000
    56 H22      5.9379   4.6624   9.2626   H         1 RES1   0.0000
    57 H23      5.0540   3.3680   9.2895   H         1 RES1   0.0000
    58 C29      5.2161   6.0386   6.7781   C.3       1 RES1   0.0000
    59 H24      5.2179   6.1640   5.8259   H         1 RES1   0.0000
    60 H25      6.0380   6.3712   7.1455   H         1 RES1   0.0000
    61 H26      4.4778   6.5157   7.1623   H         1 RES1   0.0000
    62 C30      7.4609   0.1881   4.2104   C.3       1 RES1   0.0000
    63 H27      6.9283   0.5501   3.4989   H         1 RES1   0.0000
    64 H28      6.9132  -0.3692   4.7681   H         1 RES1   0.0000
    65 H29      8.1767  -0.3327   3.8414   H         1 RES1   0.0000
    66 C31      9.2819   0.7013   6.3453   C.3       1 RES1   0.0000
    67 H30      8.7743   0.2014   6.9894   H         1 RES1   0.0000
    68 H31      9.8190   1.3542   6.7996   H         1 RES1   0.0000
    69 H32      9.8514   0.1051   5.8527   H         1 RES1   0.0000
    70 C32      9.2792   2.3618   4.0351   C.3       1 RES1   0.0000
    71 H33      9.8690   1.7103   3.6500   H         1 RES1   0.0000
    72 H34      9.7947   3.0222   4.5029   H         1 RES1   0.0000
    73 H35      8.7713   2.7858   3.3394   H         1 RES1   0.0000
    74 P3       8.1194   7.6990   9.5297   P.3       2 RES2  -1.0000
    75 F1       6.5684   7.9242   9.2670   F         2 RES2   0.0000
    76 F2       7.8764   7.7851  11.1044   F         2 RES2   0.0000
    77 F3       7.8652   6.1191   9.5873   F         2 RES2   0.0000
    78 F4       9.6798   7.4415   9.7838   F         2 RES2   0.0000
    79 F5       8.3851   7.5977   7.9620   F         2 RES2   0.0000
    80 F6       8.3756   9.2755   9.4713   F         2 RES2   0.0000
@<TRIPOS>BOND
     1     1     2    1
     2     2     3    1
     3     3    50    1
     4     4     2    1
     5     5     2    1
     6     6     2    1
     7     7     5   ar
     8     8     7   ar
     9     9     8    1
    10    10     8   ar
    11    11    10   ar
    12    12    11    1
    13    13     5   ar
    14    14    13    1
    15    15     2    1
    16    16    15   ar
    17    17    16    1
    18    18    16   ar
    19    19    18    1
    20    20    18   ar
    21    21    20    1
    22    22    14   ar
    23    23    22    1
    24    24    10    1
    25    25    24   ar
    26    26    25    1
    27    27    25   ar
    28    28    27    1
    29    29    27   ar
    30    30    29    1
    31    31    29   ar
    32    32    31    1
    33    33    24   ar
    34    34    33    1
    35    35     6   ar
    36    36    35   ar
    37    37    36    1
    38    38    36   ar
    39    39    38   ar
    40    40     6   ar
    41    41    40    1
    42    42    39   ar
    43    43    42    1
    44    44    42   ar
    45    45    44    1
    46    46    44   ar
    47    47    46    1
    48    48    38   ar
    49    49    48    1
    50    50    51    1
    51    52    50    1
    52    53    50    1
    53    54     3    1
    54    55    54    1
    55    56    54    1
    56    57    54    1
    57    58     3    1
    58    59    58    1
    59    60    58    1
    60    61    58    1
    61    62     4    1
    62    63    62    1
    63    64    62    1
    64    65    62    1
    65    66     4    1
    66    67    66    1
    67    68    66    1
    68    69    66    1
    69    70     4    1
    70    71    70    1
    71    72    70    1
    72    73    70    1
    73     7    35    1
    74    11    13   ar
    75    14    15   ar
    76    20    22   ar
    77    31    33   ar
    78    39    40   ar
    79    46    48   ar
    80    74    75    1
    81    76    74    1
    82    77    74    1
    83    78    74    1
    84    79    74    1
    85    80    74    1
@<TRIPOS>SUBSTRUCTURE
     1 RES1        1 GROUP             0 ****  ****    0  
     2 RES2       74 GROUP             0 ****  ****    0  
@<TRIPOS>CRYSIN
   13.5096   14.5928   17.6039   90.0000  107.4990   90.0000    14     1
