@<TRIPOS>MOLECULE
GUTYAY
    85    91     2     0     0
SMALL
NO_CHARGES
****
Generated from the CSD

@<TRIPOS>ATOM
     1 Br1     -0.2792  18.6535   3.4391   Br        1 RES1   0.0000
     2 Fe1      1.3353  17.1646   2.2251   Fe        1 RES1   0.0000
     3 P1       2.9404  18.5257   2.9837   P.3       1 RES1   0.0000
     4 P2      -0.4669  16.1667   1.3498   P.3       1 RES1   0.0000
     5 N1       2.5382  16.0071   1.4078   N.ar      1 RES1   0.0000
     6 N2       1.4892  15.7985   3.6987   N.ar      1 RES1   0.0000
     7 C1       3.1465  18.6188   4.7897   C.3       1 RES1   0.0000
     8 H1       3.8578  19.2290   4.9995   H         1 RES1   0.0000
     9 H2       3.3606  17.7482   5.1327   H         1 RES1   0.0000
    10 H3       2.3309  18.9288   5.1895   H         1 RES1   0.0000
    11 C2       2.8088  20.2779   2.4977   C.3       1 RES1   0.0000
    12 H4       3.4953  20.7845   2.9378   H         1 RES1   0.0000
    13 H5       1.9477  20.6169   2.7528   H         1 RES1   0.0000
    14 H6       2.9142  20.3550   1.5467   H         1 RES1   0.0000
    15 C3       4.6319  18.1210   2.4502   C.3       1 RES1   0.0000
    16 H7       4.6781  18.1411   1.4916   H         1 RES1   0.0000
    17 H8       4.8646  17.2441   2.7637   H         1 RES1   0.0000
    18 H9       5.2443  18.7643   2.8139   H         1 RES1   0.0000
    19 C4       3.0090  16.2715   0.1521   C.ar      1 RES1   0.0000
    20 C5       2.3833  17.4789  -0.3891   C.ar      1 RES1   0.0000
    21 C6       2.6011  17.9638  -1.6853   C.ar      1 RES1   0.0000
    22 H10      3.1879  17.5239  -2.2571   H         1 RES1   0.0000
    23 C7       1.9366  19.1037  -2.1098   C.ar      1 RES1   0.0000
    24 H11      2.0719  19.4332  -2.9689   H         1 RES1   0.0000
    25 C8       1.0637  19.7511  -1.2395   C.ar      1 RES1   0.0000
    26 H12      0.6193  20.5173  -1.5233   H         1 RES1   0.0000
    27 C9       0.8463  19.2735   0.0408   C.ar      1 RES1   0.0000
    28 H13      0.2626  19.7318   0.6012   H         1 RES1   0.0000
    29 C10      1.4870  18.1080   0.5210   C.ar      1 RES1   0.0000
    30 C11      3.9569  15.4456  -0.4303   C.ar      1 RES1   0.0000
    31 H14      4.2819  15.6484  -1.2777   H         1 RES1   0.0000
    32 C12      4.4352  14.3060   0.2397   C.ar      1 RES1   0.0000
    33 C13      3.8938  14.0365   1.4985   C.ar      1 RES1   0.0000
    34 H15      4.1621  13.2775   1.9642   H         1 RES1   0.0000
    35 C14      2.9607  14.8918   2.0571   C.ar      1 RES1   0.0000
    36 C15      2.3075  14.7192   3.3508   C.ar      1 RES1   0.0000
    37 C16      2.4215  13.5993   4.1378   C.ar      1 RES1   0.0000
    38 H16      2.9698  12.8991   3.8662   H         1 RES1   0.0000
    39 C17      1.7146  13.5022   5.3539   C.ar      1 RES1   0.0000
    40 C18      0.9246  14.6186   5.7340   C.ar      1 RES1   0.0000
    41 C19      0.8643  15.7309   4.8630   C.ar      1 RES1   0.0000
    42 H17      0.3526  16.4618   5.1253   H         1 RES1   0.0000
    43 C20      0.1986  14.5715   6.9524   C.ar      1 RES1   0.0000
    44 H18     -0.3204  15.2972   7.2149   H         1 RES1   0.0000
    45 C21      0.2656  13.4499   7.7428   C.ar      1 RES1   0.0000
    46 H19     -0.2019  13.4248   8.5465   H         1 RES1   0.0000
    47 C22      1.0348  12.3365   7.3484   C.ar      1 RES1   0.0000
    48 H20      1.0538  11.5778   7.8856   H         1 RES1   0.0000
    49 C23      1.7532  12.3579   6.1890   C.ar      1 RES1   0.0000
    50 H21      2.2671  11.6220   5.9465   H         1 RES1   0.0000
    51 C24      5.4777  13.4255  -0.3422   C.ar      1 RES1   0.0000
    52 C25      6.1179  12.4510   0.4345   C.ar      1 RES1   0.0000
    53 H22      5.8710  12.3438   1.3247   H         1 RES1   0.0000
    54 C26      7.1122  11.6424  -0.0966   C.ar      1 RES1   0.0000
    55 H23      7.5215  10.9989   0.4359   H         1 RES1   0.0000
    56 C27      7.4978  11.7922  -1.4190   C.ar      1 RES1   0.0000
    57 H24      8.1693  11.2570  -1.7756   H         1 RES1   0.0000
    58 C28      6.8729  12.7470  -2.2061   C.ar      1 RES1   0.0000
    59 H25      7.1250  12.8489  -3.0953   H         1 RES1   0.0000
    60 C29      5.8718  13.5533  -1.6764   C.ar      1 RES1   0.0000
    61 H26      5.4588  14.1866  -2.2178   H         1 RES1   0.0000
    62 C30     -1.6334  17.1728   0.3798   C.3       1 RES1   0.0000
    63 H27     -2.4001  16.6423   0.1511   H         1 RES1   0.0000
    64 H28     -1.2034  17.4765  -0.4230   H         1 RES1   0.0000
    65 H29     -1.9119  17.9302   0.8998   H         1 RES1   0.0000
    66 C31     -1.5739  15.3511   2.5407   C.3       1 RES1   0.0000
    67 H30     -2.3229  14.9724   2.0741   H         1 RES1   0.0000
    68 H31     -1.8879  15.9957   3.1792   H         1 RES1   0.0000
    69 H32     -1.0963  14.6549   2.9972   H         1 RES1   0.0000
    70 C32     -0.0670  14.8105   0.2028   C.3       1 RES1   0.0000
    71 H33      0.3873  14.1121   0.6790   H         1 RES1   0.0000
    72 H34      0.4990  15.1410  -0.4984   H         1 RES1   0.0000
    73 H35     -0.8778  14.4637  -0.1773   H         1 RES1   0.0000
    74 C33      1.9104  12.7674  11.3724   C.ar      2 RES2   0.0000
    75 H36      2.7112  13.2062  11.1967   H         2 RES2   0.0000
    76 C34      1.6467  11.5402  10.7762   C.ar      2 RES2   0.0000
    77 H37      2.2752  11.1542  10.2099   H         2 RES2   0.0000
    78 C35      0.4477  10.8916  11.0248   C.ar      2 RES2   0.0000
    79 H38      0.2667  10.0736  10.6210   H         2 RES2   0.0000
    80 C36     -0.4785  11.4666  11.8770   C.ar      2 RES2   0.0000
    81 H39     -1.2871  11.0370  12.0420   H         2 RES2   0.0000
    82 C37      0.9870  13.3359  12.2231   C.ar      2 RES2   0.0000
    83 H40      1.1655  14.1576  12.6204   H         2 RES2   0.0000
    84 C38     -0.2046  12.6843  12.4864   C.ar      2 RES2   0.0000
    85 H41     -0.8213  13.0615  13.0711   H         2 RES2   0.0000
@<TRIPOS>BOND
     1     1     2    1
     2     2     3    1
     3     3     7    1
     4     4     2    1
     5     5     2    1
     6     6     2    1
     7     7     8    1
     8     9     7    1
     9    10     7    1
    10    11     3    1
    11    12    11    1
    12    13    11    1
    13    14    11    1
    14    15     3    1
    15    16    15    1
    16    17    15    1
    17    18    15    1
    18    19     5   ar
    19    20    19    1
    20    21    20   ar
    21    22    21    1
    22    23    21   ar
    23    24    23    1
    24    25    23   ar
    25    26    25    1
    26    27    25   ar
    27    28    27    1
    28    29     2    1
    29    30    19   ar
    30    31    30    1
    31    32    30   ar
    32    33    32   ar
    33    34    33    1
    34    35     5   ar
    35    36     6   ar
    36    37    36   ar
    37    38    37    1
    38    39    37   ar
    39    40    39   ar
    40    41     6   ar
    41    42    41    1
    42    43    40   ar
    43    44    43    1
    44    45    43   ar
    45    46    45    1
    46    47    45   ar
    47    48    47    1
    48    49    39   ar
    49    50    49    1
    50    51    32    1
    51    52    51   ar
    52    53    52    1
    53    54    52   ar
    54    55    54    1
    55    56    54   ar
    56    57    56    1
    57    58    56   ar
    58    59    58    1
    59    60    51   ar
    60    61    60    1
    61    62     4    1
    62    63    62    1
    63    64    62    1
    64    65    62    1
    65    66     4    1
    66    67    66    1
    67    68    66    1
    68    69    66    1
    69    70     4    1
    70    71    70    1
    71    72    70    1
    72    73    70    1
    73    20    29   ar
    74    27    29   ar
    75    33    35   ar
    76    35    36    1
    77    40    41   ar
    78    47    49   ar
    79    58    60   ar
    80    74    75    1
    81    76    74   ar
    82    77    76    1
    83    78    76   ar
    84    79    78    1
    85    80    78   ar
    86    81    80    1
    87    82    74   ar
    88    83    82    1
    89    84    80   ar
    90    85    84    1
    91    82    84   ar
@<TRIPOS>SUBSTRUCTURE
     1 RES1        1 GROUP             0 ****  ****    0  
     2 RES2       74 GROUP             0 ****  ****    0  
@<TRIPOS>CRYSIN
    9.0660   23.2300   15.9280   90.0000   96.3540   90.0000   231     1
