@<TRIPOS>MOLECULE
GUWTEX
    74    74     7     0     0
SMALL
USER_CHARGES
****
Generated from the CSD

@<TRIPOS>ATOM
     1 Fe1     10.0040   1.1030   8.7639   Fe        1 RES1   2.0000
     2 N1       8.5665   1.9846   7.6014   N.3       1 RES1   0.0000
     3 H1       7.7898   1.5603   7.8119   H         1 RES1   0.0000
     4 S1       8.4624  -0.0626   9.8716   S.3       1 RES1   0.0000
     5 S2      11.6225   0.2189  10.0098   S.3       1 RES1   0.0000
     6 N2      10.1130  -0.4637   7.4472   N.3       1 RES1   0.0000
     7 H2      10.8419  -0.9438   7.7031   H         1 RES1   0.0000
     8 S3       9.7918   2.8250  10.1481   S.3       1 RES1   0.0000
     9 N3      11.4599   2.0798   7.7346   N.3       1 RES1   0.0000
    10 H3      11.4908   2.9139   8.0968   H         1 RES1   0.0000
    11 C1      12.9887   1.2841   9.4593   C.3       1 RES1   0.0000
    12 H4      12.9651   2.1337   9.9272   H         1 RES1   0.0000
    13 H5      13.8418   0.8579   9.6354   H         1 RES1   0.0000
    14 C2      11.2116   2.2901   6.2924   C.3       1 RES1   0.0000
    15 H6      12.0363   2.1365   5.8054   H         1 RES1   0.0000
    16 H7      10.9493   3.2129   6.1490   H         1 RES1   0.0000
    17 C3      10.3536  -0.1107   6.0178   C.3       1 RES1   0.0000
    18 H8       9.7640  -0.6384   5.4583   H         1 RES1   0.0000
    19 H9      11.2674  -0.3384   5.7847   H         1 RES1   0.0000
    20 C4       8.3629   3.4050   7.9863   C.3       1 RES1   0.0000
    21 H10      7.5527   3.7434   7.5736   H         1 RES1   0.0000
    22 H11      9.1091   3.9400   7.6738   H         1 RES1   0.0000
    23 C5      12.8032   1.4935   7.9846   C.3       1 RES1   0.0000
    24 H12     13.4899   2.0898   7.6479   H         1 RES1   0.0000
    25 H13     12.8812   0.6457   7.5201   H         1 RES1   0.0000
    26 C6       8.7210   1.8273   6.1301   C.3       1 RES1   0.0000
    27 H14      8.5304   2.6751   5.6984   H         1 RES1   0.0000
    28 H15      8.0737   1.1798   5.8106   H         1 RES1   0.0000
    29 C7       8.9581  -1.3838   7.6064   C.3       1 RES1   0.0000
    30 H16      9.1291  -2.2115   7.1316   H         1 RES1   0.0000
    31 H17      8.1606  -0.9777   7.2335   H         1 RES1   0.0000
    32 C8       9.0294  -0.3228  11.5884   C.3       1 RES1   0.0000
    33 H18      8.2546  -0.4445  12.1582   H         1 RES1   0.0000
    34 H19      9.5530  -1.1396  11.6246   H         1 RES1   0.0000
    35 C9       9.2727   2.2051  11.7904   C.3       1 RES1   0.0000
    36 H20      9.5293   2.8526  12.4656   H         1 RES1   0.0000
    37 H21      8.3065   2.1301  11.8060   H         1 RES1   0.0000
    38 C10      8.7476  -1.6719   9.0828   C.3       1 RES1   0.0000
    39 H22      9.5314  -2.1008   9.4610   H         1 RES1   0.0000
    40 H23      7.9820  -2.2535   9.2106   H         1 RES1   0.0000
    41 C11      8.2506   3.5129   9.4765   C.3       1 RES1   0.0000
    42 H24      7.4863   3.0108   9.7994   H         1 RES1   0.0000
    43 H25      8.1477   4.4403   9.7442   H         1 RES1   0.0000
    44 C12     11.3540   0.7134  11.7455   C.3       1 RES1   0.0000
    45 H26     11.7771   0.0604  12.3240   H         1 RES1   0.0000
    46 H27     11.7908   1.5667  11.8958   H         1 RES1   0.0000
    47 C13     10.1211   1.3691   5.7312   C.3       1 RES1   0.0000
    48 C14      9.8840   0.8405  12.1496   C.3       1 RES1   0.0000
    49 N4      10.1983   1.5054   4.2270   N.4       1 RES1   1.0000
    50 H28     10.0691   2.3550   3.9992   H         1 RES1   0.0000
    51 H29      9.5715   0.9978   3.8507   H         1 RES1   0.0000
    52 H30     11.0012   1.2420   3.9457   H         1 RES1   0.0000
    53 C15      9.8171   0.7353  13.6933   C.3       1 RES1   0.0000
    54 H31      8.9055   0.8112  13.9800   H         1 RES1   0.0000
    55 H32     10.3366   1.4414  14.0836   H         1 RES1   0.0000
    56 H33     10.1698  -0.1134  13.9713   H         1 RES1   0.0000
    57 Cl1      9.6021  -3.7553   4.2872   Cl        2 RES2   0.0000
    58 O3       8.6083  -4.0177   5.2769   O.3       2 RES2  -1.0000
    59 O6       9.7259  -4.8903   3.4570   O.2       2 RES2   0.0000
    60 O10     10.8107  -3.5111   4.9576   O.2       2 RES2   0.0000
    61 O12      9.2904  -2.6367   3.5174   O.2       2 RES2   0.0000
    62 Cl2     12.6080  -3.3720   7.9366   Cl        3 RES3   0.0000
    63 O1      13.0753  -4.3909   7.0401   O.3       3 RES3  -1.0000
    64 O2      12.6213  -2.1273   7.2283   O.2       3 RES3   0.0000
    65 O4      13.4463  -3.2852   9.0656   O.2       3 RES3   0.0000
    66 O5      11.2741  -3.7004   8.3403   O.2       3 RES3   0.0000
    67 Cl3     10.4748   5.6823  13.4578   Cl        4 RES4   0.0000
    68 O7       9.3241   5.5533  12.6348   O.3       4 RES4  -1.0000
    69 O8      10.9348   4.3882  13.7710   O.2       4 RES4   0.0000
    70 O9      10.0600   6.4002  14.5947   O.2       4 RES4   0.0000
    71 O11     11.3937   6.3618  12.6763   O.2       4 RES4   0.0000
    72 O13      8.1220   0.2963   2.9062   O.3       5 RES5   0.0000
    73 O14     10.8965   3.5239  16.4665   O.3       6 RES6   0.0000
    74 O15     10.9587   7.9175  16.9742   O.3       7 RES7   0.0000
@<TRIPOS>BOND
     1     1     2    1
     2     2     3    1
     3     4     1    1
     4     5     1    1
     5     6     1    1
     6     7     6    1
     7     8     1    1
     8     9     1    1
     9    10     9    1
    10    11     5    1
    11    12    11    1
    12    13    11    1
    13    14     9    1
    14    15    14    1
    15    16    14    1
    16    17     6    1
    17    18    17    1
    18    19    17    1
    19    20     2    1
    20    21    20    1
    21    22    20    1
    22    23     9    1
    23    24    23    1
    24    25    23    1
    25    26     2    1
    26    27    26    1
    27    28    26    1
    28    29     6    1
    29    30    29    1
    30    31    29    1
    31    32     4    1
    32    33    32    1
    33    34    32    1
    34    35     8    1
    35    36    35    1
    36    37    35    1
    37    38     4    1
    38    39    38    1
    39    40    38    1
    40    41     8    1
    41    42    41    1
    42    43    41    1
    43    44     5    1
    44    45    44    1
    45    46    44    1
    46    47    14    1
    47    48    32    1
    48    49    47    1
    49    50    49    1
    50    51    49    1
    51    52    49    1
    52    53    48    1
    53    54    53    1
    54    55    53    1
    55    56    53    1
    56    11    23    1
    57    17    47    1
    58    20    41    1
    59    26    47    1
    60    29    38    1
    61    35    48    1
    62    44    48    1
    63    57    58    1
    64    59    57    2
    65    60    57    2
    66    61    57    2
    67    62    63    1
    68    64    62    2
    69    65    62    2
    70    66    62    2
    71    67    68    1
    72    69    67    2
    73    70    67    2
    74    71    67    2
@<TRIPOS>SUBSTRUCTURE
     1 RES1        1 GROUP             0 ****  ****    0  
     2 RES2       57 GROUP             0 ****  ****    0  
     3 RES3       62 GROUP             0 ****  ****    0  
     4 RES4       67 GROUP             0 ****  ****    0  
     5 RES5       72 GROUP             0 ****  ****    0  
     6 RES6       73 GROUP             0 ****  ****    0  
     7 RES7       74 GROUP             0 ****  ****    0  
@<TRIPOS>CRYSIN
   18.7240    9.1458   19.1720   90.0000  115.7530   90.0000   231     1
