@<TRIPOS>MOLECULE
GUWYUS
    78    82     2     0     0
SMALL
USER_CHARGES
****
Generated from the CSD

@<TRIPOS>ATOM
     1 Fe1      9.7565   5.6318   5.1175   Fe        1 RES1   3.0000
     2 N1      11.0675   4.4894   3.9185   N.2       1 RES1   0.0000
     3 N2      12.2818   2.8471   3.0940   N.pl3     1 RES1   0.0000
     4 C1      11.7697   4.9554   2.8185   C.2       1 RES1   0.0000
     5 H1      11.7329   5.8413   2.4766   H         1 RES1   0.0000
     6 C2      12.5202   3.9458   2.3046   C.2       1 RES1   0.0000
     7 H2      13.0958   3.9911   1.5492   H         1 RES1   0.0000
     8 C3      11.4111   3.2096   4.0475   C.2       1 RES1   0.0000
     9 H3      11.0832   2.6309   4.7244   H         1 RES1   0.0000
    10 C4      12.9245   1.5305   2.9536   C.3       1 RES1   0.0000
    11 H4      13.4099   1.3146   3.7771   H         1 RES1   0.0000
    12 H5      13.5523   1.5511   2.2002   H         1 RES1   0.0000
    13 H6      12.2393   0.8482   2.7898   H         1 RES1   0.0000
    14 N1A     10.0893   7.3401   3.9185   N.2       1 RES1   0.0000
    15 C1A      9.3346   7.7152   2.8185   C.2       1 RES1   0.0000
    16 H1A      8.5858   7.2404   2.4766   H         1 RES1   0.0000
    17 C2A      9.8337   8.8699   2.3046   C.2       1 RES1   0.0000
    18 N2A     10.9044   9.2128   3.0940   N.pl3     1 RES1   0.0000
    19 C3A     11.0259   8.2775   4.0475   C.2       1 RES1   0.0000
    20 H3A     11.6910   8.2829   4.7244   H         1 RES1   0.0000
    21 C4A     11.7233  10.4277   2.9536   C.3       1 RES1   0.0000
    22 H4A     11.6676  10.9560   3.7771   H         1 RES1   0.0000
    23 H5A     11.3915  10.9611   2.2002   H         1 RES1   0.0000
    24 H6A     12.6568  10.1754   2.7898   H         1 RES1   0.0000
    25 H2A      9.5067   9.3457   1.5492   H         1 RES1   0.0000
    26 N1B      8.1096   5.0676   3.9185   N.2       1 RES1   0.0000
    27 C1B      8.1621   4.2265   2.8185   C.2       1 RES1   0.0000
    28 H1B      8.9477   3.8153   2.4766   H         1 RES1   0.0000
    29 C2B      6.9126   4.0813   2.3046   C.2       1 RES1   0.0000
    30 N2B      6.0803   4.8371   3.0940   N.pl3     1 RES1   0.0000
    31 C3B      6.8295   5.4099   4.0475   C.2       1 RES1   0.0000
    32 H3B      6.4923   5.9832   4.7244   H         1 RES1   0.0000
    33 C4B      4.6187   4.9388   2.9536   C.3       1 RES1   0.0000
    34 H4B      4.1890   4.6264   3.7771   H         1 RES1   0.0000
    35 H5B      4.3227   4.3848   2.2002   H         1 RES1   0.0000
    36 H6B      4.3705   5.8734   2.7898   H         1 RES1   0.0000
    37 H2B      6.6640   3.5602   1.5492   H         1 RES1   0.0000
    38 N1V      8.4435   6.7753   6.3175   N.2       1 RES1   0.0000
    39 C1V      7.7413   6.3093   7.4175   C.2       1 RES1   0.0000
    40 H1V      7.7781   5.4234   7.7594   H         1 RES1   0.0000
    41 C2V      6.9908   7.3189   7.9314   C.2       1 RES1   0.0000
    42 N2V      7.2292   8.4175   7.1420   N.pl3     1 RES1   0.0000
    43 C3V      8.0999   8.0551   6.1885   C.2       1 RES1   0.0000
    44 H3V      8.4278   8.6338   5.5116   H         1 RES1   0.0000
    45 C4V      6.5865   9.7341   7.2824   C.3       1 RES1   0.0000
    46 H4V      6.1011   9.9501   6.4589   H         1 RES1   0.0000
    47 H5V      5.9587   9.7135   8.0358   H         1 RES1   0.0000
    48 H6V      7.2717  10.4165   7.4462   H         1 RES1   0.0000
    49 H2V      6.4152   7.2736   8.6868   H         1 RES1   0.0000
    50 N1W      9.4217   3.9246   6.3175   N.2       1 RES1   0.0000
    51 C1W     10.1764   3.5495   7.4175   C.2       1 RES1   0.0000
    52 H1W     10.9252   4.0243   7.7594   H         1 RES1   0.0000
    53 C2W      9.6773   2.3948   7.9314   C.2       1 RES1   0.0000
    54 N2W      8.6066   2.0519   7.1420   N.pl3     1 RES1   0.0000
    55 C3W      8.4851   2.9872   6.1885   C.2       1 RES1   0.0000
    56 H3W      7.8200   2.9818   5.5116   H         1 RES1   0.0000
    57 C4W      7.7877   0.8370   7.2824   C.3       1 RES1   0.0000
    58 H4W      7.8434   0.3087   6.4589   H         1 RES1   0.0000
    59 H5W      8.1195   0.3036   8.0358   H         1 RES1   0.0000
    60 H6W      6.8542   1.0893   7.4462   H         1 RES1   0.0000
    61 H2W     10.0043   1.9189   8.6868   H         1 RES1   0.0000
    62 N1X     11.4014   6.1971   6.3175   N.2       1 RES1   0.0000
    63 C1X     11.3489   7.0382   7.4175   C.2       1 RES1   0.0000
    64 H1X     10.5633   7.4493   7.7594   H         1 RES1   0.0000
    65 C2X     12.5984   7.1834   7.9314   C.2       1 RES1   0.0000
    66 N2X     13.4307   6.4276   7.1420   N.pl3     1 RES1   0.0000
    67 C3X     12.6815   5.8548   6.1885   C.2       1 RES1   0.0000
    68 H3X     13.0187   5.2814   5.5116   H         1 RES1   0.0000
    69 C4X     14.8923   6.3259   7.2824   C.3       1 RES1   0.0000
    70 H4X     15.3220   6.6383   6.4589   H         1 RES1   0.0000
    71 H5X     15.1883   6.8799   8.0358   H         1 RES1   0.0000
    72 H6X     15.1405   5.3913   7.4462   H         1 RES1   0.0000
    73 H2X     12.8470   7.7045   8.6868   H         1 RES1   0.0000
    74 Cl1     14.8779   8.0247   3.8385   Cl        2 RES2   0.0000
    75 O1      14.3163   6.7482   3.4924   O.3       2 RES2  -1.0000
    76 O2      14.7508   8.9147   2.7068   O.2       2 RES2   0.0000
    77 O1CA    16.2643   7.8728   4.1846   O.2       2 RES2   0.0000
    78 O2CA    14.1707   8.5798   4.9702   O.2       2 RES2   0.0000
@<TRIPOS>BOND
     1     1     2    1
     2     2     4    1
     3     3     6    1
     4     4     5    1
     5     6     4    2
     6     7     6    1
     7     8     2    2
     8     9     8    1
     9    10     3    1
    10    11    10    1
    11    12    10    1
    12    13    10    1
    13    14     1    1
    14    15    14    1
    15    16    15    1
    16    17    15    2
    17    18    17    1
    18    19    14    2
    19    20    19    1
    20    21    18    1
    21    22    21    1
    22    23    21    1
    23    24    21    1
    24    25    17    1
    25    26     1    1
    26    27    26    1
    27    28    27    1
    28    29    27    2
    29    30    29    1
    30    31    26    2
    31    32    31    1
    32    33    30    1
    33    34    33    1
    34    35    33    1
    35    36    33    1
    36    37    29    1
    37    38     1    1
    38    39    38    1
    39    40    39    1
    40    41    39    2
    41    42    41    1
    42    43    38    2
    43    44    43    1
    44    45    42    1
    45    46    45    1
    46    47    45    1
    47    48    45    1
    48    49    41    1
    49    50     1    1
    50    51    50    1
    51    52    51    1
    52    53    51    2
    53    54    53    1
    54    55    50    2
    55    56    55    1
    56    57    54    1
    57    58    57    1
    58    59    57    1
    59    60    57    1
    60    61    53    1
    61    62     1    1
    62    63    62    1
    63    64    63    1
    64    65    63    2
    65    66    65    1
    66    67    62    2
    67    68    67    1
    68    69    66    1
    69    70    69    1
    70    71    69    1
    71    72    69    1
    72    73    65    1
    73     3     8    1
    74    18    19    1
    75    30    31    1
    76    42    43    1
    77    54    55    1
    78    66    67    1
    79    74    75    1
    80    76    74    2
    81    77    74    2
    82    78    74    2
@<TRIPOS>SUBSTRUCTURE
     1 RES1        1 GROUP             0 ****  ****    0  
     2 RES2       74 GROUP             0 ****  ****    0  
@<TRIPOS>CRYSIN
   19.5110   19.5110   15.3540   90.0000   90.0000  120.0000   238     1
