@<TRIPOS>MOLECULE
GUZNAQ
    78    83     2     0     0
SMALL
USER_CHARGES
****
Generated from the CSD

@<TRIPOS>ATOM
     1 Fe1      8.9822  -0.0164   2.9530   Fe        1 RES1   1.0000
     2 N1       8.2845  -0.9723   1.1516   N.3       1 RES1   0.0000
     3 H1       7.9397  -1.7265   1.4068   H         1 RES1   0.0000
     4 O1      10.8296  -0.3375   2.3909   O.3       1 RES1   0.0000
     5 C1      11.2175  -1.5150   1.8866   C.ar      1 RES1   0.0000
     6 N2       9.0091   1.8777   1.9026   N.3       1 RES1   0.0000
     7 H2       9.6631   1.8403   1.3465   H         1 RES1   0.0000
     8 O2       7.1639   0.2730   3.4765   O.3       1 RES1   0.0000
     9 C2      12.3832  -2.1519   2.3810   C.ar      1 RES1   0.0000
    10 N3       9.7125   1.2258   4.5515   N.3       1 RES1   0.0000
    11 H3       9.0138   1.5054   4.9779   H         1 RES1   0.0000
    12 C3      12.7102  -3.4118   1.8718   C.ar      1 RES1   0.0000
    13 H4      13.4519  -3.8399   2.1999   H         1 RES1   0.0000
    14 N4       9.0430  -1.8079   4.1836   N.3       1 RES1   0.0000
    15 H5       9.2705  -2.4028   3.6453   H         1 RES1   0.0000
    16 C4      11.9424  -4.0267   0.8942   C.ar      1 RES1   0.0000
    17 H6      12.1563  -4.8332   0.5426   H         1 RES1   0.0000
    18 C5      10.8384  -3.3678   0.3628   C.ar      1 RES1   0.0000
    19 H7      10.2747  -3.6936  -0.2705   H         1 RES1   0.0000
    20 C6      10.4757  -2.1088   0.8393   C.ar      1 RES1   0.0000
    21 C7       9.3730  -1.3176   0.1925   C.3       1 RES1   0.0000
    22 H8       8.9349  -1.8029  -0.5117   H         1 RES1   0.0000
    23 H9       9.6226  -0.5153  -0.2164   H         1 RES1   0.0000
    24 C8       7.1671  -0.2388   0.4863   C.3       1 RES1   0.0000
    25 H10      6.4645  -0.1853   1.1223   H         1 RES1   0.0000
    26 H11      6.9057  -0.6925  -0.2644   H         1 RES1   0.0000
    27 C9       7.5333   1.1720   0.0271   C.3       1 RES1   0.0000
    28 H12      8.2967   1.1672  -0.5287   H         1 RES1   0.0000
    29 H13      6.8116   1.4144  -0.5194   H         1 RES1   0.0000
    30 C10      7.7820   2.1883   1.1257   C.3       1 RES1   0.0000
    31 H14      7.8460   3.0352   0.7359   H         1 RES1   0.0000
    32 H15      7.1179   2.2142   1.7345   H         1 RES1   0.0000
    33 C11      9.3134   2.9446   2.8889   C.3       1 RES1   0.0000
    34 H16      9.6182   3.7570   2.4889   H         1 RES1   0.0000
    35 H17      8.5077   3.1587   3.3748   H         1 RES1   0.0000
    36 C12     10.3017   2.4210   3.9070   C.3       1 RES1   0.0000
    37 H18     10.4833   3.0839   4.5543   H         1 RES1   0.0000
    38 H19     11.1423   2.2158   3.5695   H         1 RES1   0.0000
    39 C13     10.6383   0.6368   5.5502   C.3       1 RES1   0.0000
    40 H20     10.8519   1.2567   6.2193   H         1 RES1   0.0000
    41 H21     11.4692   0.4519   5.1263   H         1 RES1   0.0000
    42 C14     10.0870  -0.6363   6.1783   C.3       1 RES1   0.0000
    43 H22      9.2023  -0.4471   6.5176   H         1 RES1   0.0000
    44 H23     10.5590  -0.8340   6.8825   H         1 RES1   0.0000
    45 C15     10.0619  -1.8523   5.2708   C.3       1 RES1   0.0000
    46 H24      9.9451  -2.6287   5.7709   H         1 RES1   0.0000
    47 H25     10.8148  -1.9671   4.8681   H         1 RES1   0.0000
    48 C16      7.6884  -2.2405   4.6509   C.3       1 RES1   0.0000
    49 H26      7.7835  -2.9376   5.2453   H         1 RES1   0.0000
    50 H27      7.2622  -2.5361   3.9035   H         1 RES1   0.0000
    51 C17      6.8894  -1.1749   5.3501   C.ar      1 RES1   0.0000
    52 C18      6.3416  -1.4109   6.6054   C.ar      1 RES1   0.0000
    53 H28      6.4735  -2.1768   7.0989   H         1 RES1   0.0000
    54 C19      5.5123  -0.4645   7.2032   C.ar      1 RES1   0.0000
    55 H29      5.1696  -0.6373   8.0110   H         1 RES1   0.0000
    56 C20      5.2292   0.7155   6.5291   C.ar      1 RES1   0.0000
    57 H30      4.7572   1.3656   6.9644   H         1 RES1   0.0000
    58 C21      5.7577   0.9858   5.2653   C.ar      1 RES1   0.0000
    59 C22      6.6123   0.0324   4.6798   C.ar      1 RES1   0.0000
    60 C23     13.2675  -1.4051   3.3520   C.3       1 RES1   0.0000
    61 H31     12.7359  -1.0551   4.0364   H         1 RES1   0.0000
    62 H32     13.5596  -0.6259   2.9419   H         1 RES1   0.0000
    63 C24     14.4495  -2.1687   3.9211   C.3       1 RES1   0.0000
    64 H33     13.8700  -2.4613   4.5667   H         1 RES1   0.0000
    65 H34     14.8464  -1.6517   4.5157   H         1 RES1   0.0000
    66 H35     15.0335  -2.4597   3.1212   H         1 RES1   0.0000
    67 C25      5.3976   2.2504   4.5283   C.3       1 RES1   0.0000
    68 H36      5.1625   2.9019   5.1696   H         1 RES1   0.0000
    69 H37      6.1489   2.5637   4.1060   H         1 RES1   0.0000
    70 C26      4.2820   2.0279   3.5128   C.3       1 RES1   0.0000
    71 H38      4.5090   1.3672   2.8275   H         1 RES1   0.0000
    72 H39      3.5365   1.7460   3.9437   H         1 RES1   0.0000
    73 H40      4.1097   2.7816   3.0702   H         1 RES1   0.0000
    74 Cl1      6.2575  -4.1387   0.8323   Cl        2 RES2   0.0000
    75 O3       6.9029  -3.5830  -0.3134   O.3       2 RES2  -1.0000
    76 O4       4.9130  -4.5106   0.4846   O.2       2 RES2   0.0000
    77 O5       6.9232  -5.3157   1.2789   O.2       2 RES2   0.0000
    78 O6       6.2187  -3.1524   1.8625   O.2       2 RES2   0.0000
@<TRIPOS>BOND
     1     1     2    1
     2     2     3    1
     3     4     1    1
     4     5     4    1
     5     6     1    1
     6     7     6    1
     7     8     1    1
     8     9     5   ar
     9    10     1    1
    10    11    10    1
    11    12     9   ar
    12    13    12    1
    13    14     1    1
    14    15    14    1
    15    16    12   ar
    16    17    16    1
    17    18    16   ar
    18    19    18    1
    19    20     5   ar
    20    21     2    1
    21    22    21    1
    22    23    21    1
    23    24     2    1
    24    25    24    1
    25    26    24    1
    26    27    24    1
    27    28    27    1
    28    29    27    1
    29    30     6    1
    30    31    30    1
    31    32    30    1
    32    33     6    1
    33    34    33    1
    34    35    33    1
    35    36    10    1
    36    37    36    1
    37    38    36    1
    38    39    10    1
    39    40    39    1
    40    41    39    1
    41    42    39    1
    42    43    42    1
    43    44    42    1
    44    45    14    1
    45    46    45    1
    46    47    45    1
    47    48    14    1
    48    49    48    1
    49    50    48    1
    50    51    48    1
    51    52    51   ar
    52    53    52    1
    53    54    52   ar
    54    55    54    1
    55    56    54   ar
    56    57    56    1
    57    58    56   ar
    58    59     8    1
    59    60     9    1
    60    61    60    1
    61    62    60    1
    62    63    60    1
    63    64    63    1
    64    65    63    1
    65    66    63    1
    66    67    58    1
    67    68    67    1
    68    69    67    1
    69    70    67    1
    70    71    70    1
    71    72    70    1
    72    73    70    1
    73    18    20   ar
    74    20    21    1
    75    27    30    1
    76    33    36    1
    77    42    45    1
    78    51    59   ar
    79    58    59   ar
    80    74    75    1
    81    76    74    2
    82    77    74    2
    83    78    74    2
@<TRIPOS>SUBSTRUCTURE
     1 RES1        1 GROUP             0 ****  ****    0  
     2 RES2       74 GROUP             0 ****  ****    0  
@<TRIPOS>CRYSIN
   11.1321   16.2569   15.9053   90.0000  103.6010   90.0000   231     1
