@<TRIPOS>MOLECULE
HADZAO01
   103   108     3     0     0
SMALL
USER_CHARGES
****
Generated from the CSD

@<TRIPOS>ATOM
     1 P1       2.4134   8.8297   3.0891   P.3       1 RES1   1.0000
     2 C1       1.6529   8.3065   1.5631   C.ar      1 RES1   0.0000
     3 C2       0.4775   8.8839   1.1035   C.ar      1 RES1   0.0000
     4 H1       0.0616   9.5811   1.5978   H         1 RES1   0.0000
     5 C3      -0.0808   8.4362  -0.0770   C.ar      1 RES1   0.0000
     6 H2      -0.8938   8.8215  -0.3837   H         1 RES1   0.0000
     7 C4       0.5198   7.4404  -0.8176   C.ar      1 RES1   0.0000
     8 H3       0.1331   7.1589  -1.6375   H         1 RES1   0.0000
     9 C5       1.6888   6.8496  -0.3645   C.ar      1 RES1   0.0000
    10 H4       2.0937   6.1504  -0.8632   H         1 RES1   0.0000
    11 C6       2.2649   7.2796   0.8167   C.ar      1 RES1   0.0000
    12 H5       3.0723   6.8846   1.1252   H         1 RES1   0.0000
    13 C7       1.3132   9.9197   3.9787   C.ar      1 RES1   0.0000
    14 C8       1.3219  11.2816   3.6903   C.ar      1 RES1   0.0000
    15 H6       1.9064  11.6255   3.0248   H         1 RES1   0.0000
    16 C9       0.4722  12.1330   4.3811   C.ar      1 RES1   0.0000
    17 H7       0.4618  13.0603   4.1780   H         1 RES1   0.0000
    18 C10     -0.3577  11.6323   5.3610   C.ar      1 RES1   0.0000
    19 H8      -0.9143  12.2248   5.8530   H         1 RES1   0.0000
    20 C11     -0.3908  10.2765   5.6364   C.ar      1 RES1   0.0000
    21 H9      -0.9854   9.9397   6.2975   H         1 RES1   0.0000
    22 C12      0.4462   9.4089   4.9472   C.ar      1 RES1   0.0000
    23 H10      0.4294   8.4776   5.1325   H         1 RES1   0.0000
    24 C13      3.9400   9.7119   2.8044   C.ar      1 RES1   0.0000
    25 C14      4.4412  10.5136   3.8213   C.ar      1 RES1   0.0000
    26 H11      3.9651  10.6001   4.6389   H         1 RES1   0.0000
    27 C15      5.6318  11.1833   3.6412   C.ar      1 RES1   0.0000
    28 H12      5.9778  11.7247   4.3395   H         1 RES1   0.0000
    29 C16      6.3311  11.0736   2.4497   C.ar      1 RES1   0.0000
    30 H13      7.1539  11.5348   2.3323   H         1 RES1   0.0000
    31 C17      5.8211  10.2872   1.4310   C.ar      1 RES1   0.0000
    32 H14      6.2949  10.2140   0.6106   H         1 RES1   0.0000
    33 C18      4.6206   9.6028   1.5975   C.ar      1 RES1   0.0000
    34 H15      4.2705   9.0684   0.8960   H         1 RES1   0.0000
    35 C19      2.7262   7.3610   4.0625   C.ar      1 RES1   0.0000
    36 C20      1.7713   6.3426   4.0770   C.ar      1 RES1   0.0000
    37 H16      0.9837   6.4225   3.5511   H         1 RES1   0.0000
    38 C21      1.9734   5.2144   4.8602   C.ar      1 RES1   0.0000
    39 H17      1.3166   4.5278   4.8869   H         1 RES1   0.0000
    40 C22      3.1263   5.0960   5.5961   C.ar      1 RES1   0.0000
    41 H18      3.2706   4.3147   6.1173   H         1 RES1   0.0000
    42 C23      4.0873   6.1046   5.5903   C.ar      1 RES1   0.0000
    43 H19      4.8773   6.0174   6.1103   H         1 RES1   0.0000
    44 C24      3.8808   7.2306   4.8216   C.ar      1 RES1   0.0000
    45 H20      4.5320   7.9227   4.8120   H         1 RES1   0.0000
    46 P2       8.0857   2.6095   1.0716   P.3       2 RES2   1.0000
    47 C25      6.8820   2.4422  -1.4218   C.ar      2 RES2   0.0000
    48 H21      6.0610   2.3926  -0.9474   H         2 RES2   0.0000
    49 C26      6.8813   2.4009  -2.8060   C.ar      2 RES2   0.0000
    50 H22      6.0675   2.2914  -3.2844   H         2 RES2   0.0000
    51 C27      8.0920   2.5211  -3.4884   C.ar      2 RES2   0.0000
    52 H23      8.0980   2.4855  -4.4377   H         2 RES2   0.0000
    53 C28      9.2687   2.6882  -2.8173   C.ar      2 RES2   0.0000
    54 H24     10.0793   2.7956  -3.3008   H         2 RES2   0.0000
    55 C29      9.2809   2.7024  -1.4249   C.ar      2 RES2   0.0000
    56 H25     10.1004   2.8104  -0.9568   H         2 RES2   0.0000
    57 C30      8.0839   2.5572  -0.7231   C.ar      2 RES2   0.0000
    58 C31      7.4268   4.1831   1.6258   C.ar      2 RES2   0.0000
    59 C32      6.8086   5.0659   0.7434   C.ar      2 RES2   0.0000
    60 H26      6.7007   4.8317  -0.1708   H         2 RES2   0.0000
    61 C33      6.3509   6.2879   1.2071   C.ar      2 RES2   0.0000
    62 H27      5.9323   6.8952   0.6082   H         2 RES2   0.0000
    63 C34      6.5008   6.6249   2.5288   C.ar      2 RES2   0.0000
    64 H28      6.1963   7.4690   2.8376   H         2 RES2   0.0000
    65 C35      7.0937   5.7421   3.4145   C.ar      2 RES2   0.0000
    66 H29      7.1762   5.9731   4.3324   H         2 RES2   0.0000
    67 C36      7.5613   4.5323   2.9651   C.ar      2 RES2   0.0000
    68 H30      7.9789   3.9307   3.5722   H         2 RES2   0.0000
    69 C37      7.1346   1.2425   1.7503   C.ar      2 RES2   0.0000
    70 C38      6.5111   0.2920   0.9418   C.ar      2 RES2   0.0000
    71 H31      6.5771   0.3608  -0.0023   H         2 RES2   0.0000
    72 C39      5.7978  -0.7475   1.5063   C.ar      2 RES2   0.0000
    73 H32      5.3584  -1.3778   0.9474   H         2 RES2   0.0000
    74 C40      5.7198  -0.8735   2.8776   C.ar      2 RES2   0.0000
    75 H33      5.2382  -1.5951   3.2657   H         2 RES2   0.0000
    76 C41      6.3504   0.0574   3.6863   C.ar      2 RES2   0.0000
    77 H34      6.2979  -0.0316   4.6295   H         2 RES2   0.0000
    78 C42      7.0534   1.1142   3.1410   C.ar      2 RES2   0.0000
    79 H35      7.4787   1.7491   3.7055   H         2 RES2   0.0000
    80 C43      9.7678   2.4779   1.6890   C.ar      2 RES2   0.0000
    81 C44     10.2588   1.2813   2.1969   C.ar      2 RES2   0.0000
    82 H36      9.6952   0.5190   2.2575   H         2 RES2   0.0000
    83 C45     11.5708   1.2098   2.6102   C.ar      2 RES2   0.0000
    84 H37     11.9106   0.3946   2.9593   H         2 RES2   0.0000
    85 C46     12.3956   2.3131   2.5213   C.ar      2 RES2   0.0000
    86 H38     13.2975   2.2555   2.8142   H         2 RES2   0.0000
    87 C47     11.9100   3.5039   2.0048   C.ar      2 RES2   0.0000
    88 H39     12.4802   4.2599   1.9346   H         2 RES2   0.0000
    89 C48     10.6005   3.5868   1.5933   C.ar      2 RES2   0.0000
    90 H40     10.2646   4.4034   1.2422   H         2 RES2   0.0000
    91 Fe1      7.9488   4.6840   8.2747   Fe        3 RES3  -2.0000
    92 O1      10.7061   5.0169   8.5332   O.2       3 RES3   0.0000
    93 N1       8.3852   2.3580  10.2568   N.1       3 RES3   0.0000
    94 N2       6.9767   6.5183  10.5668   N.1       3 RES3   0.0000
    95 N3       4.9684   3.8947   7.9970   N.1       3 RES3   0.0000
    96 N4       7.3313   7.1646   6.5251   N.1       3 RES3   0.0000
    97 N5       8.2820   2.8190   5.8249   N.1       3 RES3   0.0000
    98 N6       9.5643   4.9604   8.4178   N.2       3 RES3   0.0000
    99 C49      8.1350   3.1904   9.5033   C.1       3 RES3   0.0000
   100 C50      7.3525   5.8077   9.7307   C.1       3 RES3   0.0000
   101 C51      6.0740   4.1932   8.1088   C.1       3 RES3   0.0000
   102 C52      7.5520   6.2099   7.1387   C.1       3 RES3   0.0000
   103 C53      8.1494   3.5140   6.7370   C.1       3 RES3   0.0000
@<TRIPOS>BOND
     1     1     2    1
     2     2     3   ar
     3     3     4    1
     4     5     3   ar
     5     6     5    1
     6     7     5   ar
     7     8     7    1
     8     9     7   ar
     9    10     9    1
    10    11     2   ar
    11    12    11    1
    12    13     1    1
    13    14    13   ar
    14    15    14    1
    15    16    14   ar
    16    17    16    1
    17    18    16   ar
    18    19    18    1
    19    20    18   ar
    20    21    20    1
    21    22    13   ar
    22    23    22    1
    23    24     1    1
    24    25    24   ar
    25    26    25    1
    26    27    25   ar
    27    28    27    1
    28    29    27   ar
    29    30    29    1
    30    31    29   ar
    31    32    31    1
    32    33    24   ar
    33    34    33    1
    34    35     1    1
    35    36    35   ar
    36    37    36    1
    37    38    36   ar
    38    39    38    1
    39    40    38   ar
    40    41    40    1
    41    42    40   ar
    42    43    42    1
    43    44    35   ar
    44    45    44    1
    45     9    11   ar
    46    20    22   ar
    47    31    33   ar
    48    42    44   ar
    49    46    57    1
    50    47    48    1
    51    49    47   ar
    52    50    49    1
    53    51    49   ar
    54    52    51    1
    55    53    51   ar
    56    54    53    1
    57    55    53   ar
    58    56    55    1
    59    57    47   ar
    60    58    46    1
    61    59    58   ar
    62    60    59    1
    63    61    59   ar
    64    62    61    1
    65    63    61   ar
    66    64    63    1
    67    65    63   ar
    68    66    65    1
    69    67    58   ar
    70    68    67    1
    71    69    46    1
    72    70    69   ar
    73    71    70    1
    74    72    70   ar
    75    73    72    1
    76    74    72   ar
    77    75    74    1
    78    76    74   ar
    79    77    76    1
    80    78    69   ar
    81    79    78    1
    82    80    46    1
    83    81    80   ar
    84    82    81    1
    85    83    81   ar
    86    84    83    1
    87    85    83   ar
    88    86    85    1
    89    87    85   ar
    90    88    87    1
    91    89    80   ar
    92    90    89    1
    93    55    57   ar
    94    65    67   ar
    95    76    78   ar
    96    87    89   ar
    97    91    98    1
    98    92    98    2
    99    93    99    3
   100    94   100    3
   101    95   101    3
   102    96   102    3
   103    97   103    3
   104    99    91    1
   105   100    91    1
   106   101    91    1
   107   102    91    1
   108   103    91    1
@<TRIPOS>SUBSTRUCTURE
     1 RES1        1 GROUP             0 ****  ****    0  
     2 RES2       46 GROUP             0 ****  ****    0  
     3 RES3       91 GROUP             0 ****  ****    0  
@<TRIPOS>CRYSIN
    8.9165   21.0990   23.5610   90.0000   96.8400   90.0000   231     1
