@<TRIPOS>MOLECULE
HAFJUX
   107   112     1     0     0
SMALL
NO_CHARGES
****
Generated from the CSD

@<TRIPOS>ATOM
     1 Fe1      1.8312   5.3493   6.4317   Fe        1 RES1   0.0000
     2 H1       2.1841   3.9600   6.1386   H         1 RES1   0.0000
     3 Si1      2.5212   5.1572   4.1992   Si        1 RES1   0.0000
     4 C1       1.6434   7.1334   6.3872   C.1       1 RES1   0.0000
     5 O1       1.5771   8.2762   6.2606   O.2       1 RES1   0.0000
     6 C2       3.5249   5.4497   6.9638   C.1       1 RES1   0.0000
     7 O2       4.6182   5.5134   7.3298   O.2       1 RES1   0.0000
     8 C3       0.2256   5.0089   5.7524   C.1       1 RES1   0.0000
     9 O3      -0.8197   4.7942   5.3238   O.2       1 RES1   0.0000
    10 C4       1.2202   4.7831   8.2475   C.3       1 RES1   0.0000
    11 N1       1.1079   3.5103   8.7500   N.pl3     1 RES1   0.0000
    12 C5       0.7020   3.5245  10.0782   C.2       1 RES1   0.0000
    13 H2       0.5698   2.7668  10.6355   H         1 RES1   0.0000
    14 C6       0.5331   4.8095  10.4273   C.2       1 RES1   0.0000
    15 H3       0.2549   5.1376  11.2743   H         1 RES1   0.0000
    16 N2       0.8462   5.5643   9.3040   N.pl3     1 RES1   0.0000
    17 C7       1.3470   2.2760   8.0295   C.ar      1 RES1   0.0000
    18 C8       2.6505   1.7707   7.9801   C.ar      1 RES1   0.0000
    19 C9       2.8552   0.5773   7.2814   C.ar      1 RES1   0.0000
    20 H4       3.7333   0.2198   7.2153   H         1 RES1   0.0000
    21 C10      1.8065  -0.0886   6.6879   C.ar      1 RES1   0.0000
    22 H5       1.9667  -0.8945   6.2115   H         1 RES1   0.0000
    23 C11      0.5256   0.4087   6.7811   C.ar      1 RES1   0.0000
    24 H6      -0.1905  -0.0702   6.3799   H         1 RES1   0.0000
    25 C12      0.2575   1.6066   7.4567   C.ar      1 RES1   0.0000
    26 C13      3.7981   2.4485   8.7026   C.3       1 RES1   0.0000
    27 H7       3.5373   3.3994   8.8682   H         1 RES1   0.0000
    28 C14      4.0068   1.7734  10.0679   C.3       1 RES1   0.0000
    29 H8       3.1599   1.7667  10.5614   H         1 RES1   0.0000
    30 H9       4.6787   2.2708  10.5790   H         1 RES1   0.0000
    31 H10      4.3137   0.8526   9.9336   H         1 RES1   0.0000
    32 C15      5.0858   2.4527   7.8759   C.3       1 RES1   0.0000
    33 H11      5.4171   1.5353   7.7827   H         1 RES1   0.0000
    34 H12      5.7618   3.0001   8.3275   H         1 RES1   0.0000
    35 H13      4.9025   2.8259   6.9887   H         1 RES1   0.0000
    36 C16     -1.1729   2.0962   7.6098   C.3       1 RES1   0.0000
    37 H14     -1.1520   3.0691   7.8395   H         1 RES1   0.0000
    38 C17     -2.0036   1.9156   6.3321   C.3       1 RES1   0.0000
    39 H15     -1.5092   2.2761   5.5671   H         1 RES1   0.0000
    40 H16     -2.8545   2.3935   6.4258   H         1 RES1   0.0000
    41 H17     -2.1790   0.9622   6.1884   H         1 RES1   0.0000
    42 C18     -1.8370   1.3356   8.7703   C.3       1 RES1   0.0000
    43 H18     -1.8339   0.3752   8.5751   H         1 RES1   0.0000
    44 H19     -2.7603   1.6447   8.8773   H         1 RES1   0.0000
    45 H20     -1.3382   1.5024   9.5974   H         1 RES1   0.0000
    46 C19      0.7194   7.0084   9.2820   C.ar      1 RES1   0.0000
    47 C20     -0.4929   7.5578   8.8398   C.ar      1 RES1   0.0000
    48 C21     -0.6048   8.9451   8.8678   C.ar      1 RES1   0.0000
    49 H21     -1.4108   9.3558   8.5787   H         1 RES1   0.0000
    50 C22      0.4418   9.7337   9.3111   C.ar      1 RES1   0.0000
    51 H22      0.3460  10.6789   9.3213   H         1 RES1   0.0000
    52 C23      1.6242   9.1640   9.7385   C.ar      1 RES1   0.0000
    53 H23      2.3312   9.7229  10.0396   H         1 RES1   0.0000
    54 C24      1.7970   7.7820   9.7351   C.ar      1 RES1   0.0000
    55 C25     -1.6450   6.6730   8.3663   C.3       1 RES1   0.0000
    56 H24     -1.2527   5.8087   8.0514   H         1 RES1   0.0000
    57 C26     -2.4275   7.2756   7.2018   C.3       1 RES1   0.0000
    58 H25     -2.8975   8.0803   7.5059   H         1 RES1   0.0000
    59 H26     -3.0797   6.6216   6.8734   H         1 RES1   0.0000
    60 H27     -1.8093   7.5115   6.4797   H         1 RES1   0.0000
    61 C27     -2.5946   6.3548   9.5250   C.3       1 RES1   0.0000
    62 H28     -2.9993   7.1850   9.8536   H         1 RES1   0.0000
    63 H29     -2.0935   5.9269  10.2506   H         1 RES1   0.0000
    64 H30     -3.2994   5.7492   9.2137   H         1 RES1   0.0000
    65 C28      3.0963   7.1476  10.2162   C.3       1 RES1   0.0000
    66 H31      3.1212   6.2048   9.8835   H         1 RES1   0.0000
    67 C29      3.1399   7.1096  11.7407   C.3       1 RES1   0.0000
    68 H32      3.0987   8.0237  12.0916   H         1 RES1   0.0000
    69 H33      3.9721   6.6839  12.0338   H         1 RES1   0.0000
    70 H34      2.3747   6.5966  12.0763   H         1 RES1   0.0000
    71 C30      4.3326   7.8748   9.6691   C.3       1 RES1   0.0000
    72 H35      4.2612   7.9529   8.6945   H         1 RES1   0.0000
    73 H36      5.1390   7.3661   9.8970   H         1 RES1   0.0000
    74 H37      4.3880   8.7693  10.0651   H         1 RES1   0.0000
    75 C31      1.5905   3.7772   3.2594   C.ar      1 RES1   0.0000
    76 C32      1.2842   3.9313   1.9058   C.ar      1 RES1   0.0000
    77 H38      1.5032   4.7479   1.4729   H         1 RES1   0.0000
    78 C33      0.6725   2.9296   1.1793   C.ar      1 RES1   0.0000
    79 H39      0.4942   3.0603   0.2552   H         1 RES1   0.0000
    80 C34      0.3165   1.7389   1.7824   C.ar      1 RES1   0.0000
    81 H40     -0.1173   1.0564   1.2840   H         1 RES1   0.0000
    82 C35      0.6016   1.5549   3.1241   C.ar      1 RES1   0.0000
    83 H41      0.3643   0.7401   3.5512   H         1 RES1   0.0000
    84 C36      1.2333   2.5566   3.8478   C.ar      1 RES1   0.0000
    85 H42      1.4282   2.4111   4.7661   H         1 RES1   0.0000
    86 C37      4.3576   4.7413   3.9087   C.ar      1 RES1   0.0000
    87 C38      4.7453   3.5832   3.2305   C.ar      1 RES1   0.0000
    88 H43      4.0744   2.9877   2.9163   H         1 RES1   0.0000
    89 C39      6.0800   3.2746   3.0016   C.ar      1 RES1   0.0000
    90 H44      6.3080   2.4750   2.5422   H         1 RES1   0.0000
    91 C40      7.0764   4.1226   3.4370   C.ar      1 RES1   0.0000
    92 H45      7.9898   3.9114   3.2814   H         1 RES1   0.0000
    93 C41      6.7296   5.2856   4.1046   C.ar      1 RES1   0.0000
    94 H46      7.4089   5.8773   4.4073   H         1 RES1   0.0000
    95 C42      5.3984   5.5904   4.3326   C.ar      1 RES1   0.0000
    96 H47      5.1809   6.3952   4.7881   H         1 RES1   0.0000
    97 C43      2.1774   6.7060   3.1473   C.ar      1 RES1   0.0000
    98 C44      3.1801   7.4014   2.4632   C.ar      1 RES1   0.0000
    99 H48      4.0851   7.1299   2.5634   H         1 RES1   0.0000
   100 C45      2.8817   8.4828   1.6384   C.ar      1 RES1   0.0000
   101 H49      3.5817   8.9365   1.1844   H         1 RES1   0.0000
   102 C46      1.5836   8.8987   1.4750   C.ar      1 RES1   0.0000
   103 H50      1.3845   9.6337   0.9075   H         1 RES1   0.0000
   104 C47      0.5646   8.2390   2.1458   C.ar      1 RES1   0.0000
   105 H51     -0.3361   8.5210   2.0391   H         1 RES1   0.0000
   106 C48      0.8631   7.1679   2.9704   C.ar      1 RES1   0.0000
   107 H52      0.1569   6.7313   3.4315   H         1 RES1   0.0000
@<TRIPOS>BOND
     1     1     2    1
     2     3     1    1
     3     4     1    1
     4     5     4    3
     5     6     1    1
     6     7     6    3
     7     8     1    1
     8     9     8    3
     9    10     1    1
    10    11    10    1
    11    12    11    1
    12    13    12    1
    13    14    12    2
    14    15    14    1
    15    16    10    1
    16    17    11    1
    17    18    17   ar
    18    19    18   ar
    19    20    19    1
    20    21    19   ar
    21    22    21    1
    22    23    21   ar
    23    24    23    1
    24    25    17   ar
    25    26    18    1
    26    27    26    1
    27    28    26    1
    28    29    28    1
    29    30    28    1
    30    31    28    1
    31    32    26    1
    32    33    32    1
    33    34    32    1
    34    35    32    1
    35    36    25    1
    36    37    36    1
    37    38    36    1
    38    39    38    1
    39    40    38    1
    40    41    38    1
    41    42    36    1
    42    43    42    1
    43    44    42    1
    44    45    42    1
    45    46    16    1
    46    47    46   ar
    47    48    47   ar
    48    49    48    1
    49    50    48   ar
    50    51    50    1
    51    52    50   ar
    52    53    52    1
    53    54    46   ar
    54    55    47    1
    55    56    55    1
    56    57    55    1
    57    58    57    1
    58    59    57    1
    59    60    57    1
    60    61    55    1
    61    62    61    1
    62    63    61    1
    63    64    61    1
    64    65    54    1
    65    66    65    1
    66    67    65    1
    67    68    67    1
    68    69    67    1
    69    70    67    1
    70    71    65    1
    71    72    71    1
    72    73    71    1
    73    74    71    1
    74    75     3    1
    75    76    75   ar
    76    77    76    1
    77    78    76   ar
    78    79    78    1
    79    80    78   ar
    80    81    80    1
    81    82    80   ar
    82    83    82    1
    83    84    75   ar
    84    85    84    1
    85    86     3    1
    86    87    86   ar
    87    88    87    1
    88    89    87   ar
    89    90    89    1
    90    91    89   ar
    91    92    91    1
    92    93    91   ar
    93    94    93    1
    94    95    86   ar
    95    96    95    1
    96    97     3    1
    97    98    97   ar
    98    99    98    1
    99   100    98   ar
   100   101   100    1
   101   102   100   ar
   102   103   102    1
   103   104   102   ar
   104   105   104    1
   105   106    97   ar
   106   107   106    1
   107    14    16    1
   108    23    25   ar
   109    52    54   ar
   110    82    84   ar
   111    93    95   ar
   112   104   106   ar
@<TRIPOS>SUBSTRUCTURE
     1 RES1        1 GROUP             0 ****  ****    0  
@<TRIPOS>CRYSIN
   10.5835   38.3351   11.4470   90.0000  110.0890   90.0000   231     1
