@<TRIPOS>MOLECULE
HAFKOS
   106   111     2     0     0
SMALL
NO_CHARGES
****
Generated from the CSD

@<TRIPOS>ATOM
     1 Fe1      4.9385   3.4211   3.0190   Fe        1 RES1   0.0000
     2 H1       5.2177   2.8672   1.7435   H         1 RES1   0.0000
     3 Si1      2.7576   3.3658   2.1243   Si        1 RES1   0.0000
     4 C1       4.7379   1.6955   3.3758   C.1       1 RES1   0.0000
     5 O1       4.6375   0.5670   3.5557   O.2       1 RES1   0.0000
     6 C2       4.2935   4.0894   4.5450   C.1       1 RES1   0.0000
     7 O2       3.7809   4.5042   5.4896   O.2       1 RES1   0.0000
     8 C3       5.0458   4.9217   2.0631   C.1       1 RES1   0.0000
     9 O3       5.0935   5.8541   1.4062   O.2       1 RES1   0.0000
    10 C4       1.7541   4.9143   2.6053   C.ar      1 RES1   0.0000
    11 C5       1.6765   6.0090   1.7271   C.ar      1 RES1   0.0000
    12 H2       2.1035   5.9537   0.8801   H         1 RES1   0.0000
    13 C6       0.9930   7.1702   2.0659   C.ar      1 RES1   0.0000
    14 H3       0.9529   7.8926   1.4503   H         1 RES1   0.0000
    15 C7       0.3686   7.2784   3.2978   C.ar      1 RES1   0.0000
    16 H4      -0.1062   8.0682   3.5276   H         1 RES1   0.0000
    17 C8       0.4453   6.2258   4.1884   C.ar      1 RES1   0.0000
    18 H5       0.0349   6.3003   5.0420   H         1 RES1   0.0000
    19 C9       1.1168   5.0597   3.8470   C.ar      1 RES1   0.0000
    20 H6       1.1454   4.3425   4.4692   H         1 RES1   0.0000
    21 C10      1.7535   1.8531   2.7058   C.ar      1 RES1   0.0000
    22 C11      1.5195   1.6038   4.0652   C.ar      1 RES1   0.0000
    23 H7       1.8750   2.2038   4.7103   H         1 RES1   0.0000
    24 C12      0.7837   0.5075   4.5002   C.ar      1 RES1   0.0000
    25 H8       0.6269   0.3767   5.4278   H         1 RES1   0.0000
    26 C13      0.2792  -0.3974   3.5724   C.ar      1 RES1   0.0000
    27 H9      -0.2245  -1.1490   3.8619   H         1 RES1   0.0000
    28 C14      0.5164  -0.1949   2.2276   C.ar      1 RES1   0.0000
    29 H10      0.1825  -0.8149   1.5898   H         1 RES1   0.0000
    30 C15      1.2413   0.9132   1.8025   C.ar      1 RES1   0.0000
    31 H11      1.3943   1.0358   0.8729   H         1 RES1   0.0000
    32 C16      2.6508   3.2970   0.2250   C.ar      1 RES1   0.0000
    33 C17      1.3885   3.4651  -0.3775   C.ar      1 RES1   0.0000
    34 H12      0.6350   3.6519   0.1695   H         1 RES1   0.0000
    35 C18      1.2208   3.3649  -1.7478   C.ar      1 RES1   0.0000
    36 H13      0.3589   3.4832  -2.1292   H         1 RES1   0.0000
    37 C19      2.3048   3.0930  -2.5643   C.ar      1 RES1   0.0000
    38 H14      2.1903   3.0216  -3.5046   H         1 RES1   0.0000
    39 C20      3.5577   2.9257  -2.0000   C.ar      1 RES1   0.0000
    40 H15      4.3062   2.7389  -2.5547   H         1 RES1   0.0000
    41 C21      3.7242   3.0301  -0.6249   C.ar      1 RES1   0.0000
    42 H16      4.5911   2.9168  -0.2536   H         1 RES1   0.0000
    43 C22      6.8893   3.2846   3.4123   C.3       1 RES1   0.0000
    44 N1       7.4688   3.2457   4.6298   N.pl3     1 RES1   0.0000
    45 C23      8.9267   3.0221   4.5893   C.3       1 RES1   0.0000
    46 H17      9.1838   2.2328   5.1289   H         1 RES1   0.0000
    47 H18      9.4206   3.8148   4.9173   H         1 RES1   0.0000
    48 C24      9.1839   2.7859   3.1115   C.3       1 RES1   0.0000
    49 H19      9.8670   3.4107   2.7614   H         1 RES1   0.0000
    50 H20      9.4764   1.8555   2.9420   H         1 RES1   0.0000
    51 N2       7.8559   3.0495   2.5090   N.pl3     1 RES1   0.0000
    52 C25      6.9052   3.7376   5.8584   C.ar      1 RES1   0.0000
    53 C26      6.4900   2.8384   6.8381   C.ar      1 RES1   0.0000
    54 C27      6.0104   3.3513   8.0430   C.ar      1 RES1   0.0000
    55 H21      5.7122   2.7487   8.7140   H         1 RES1   0.0000
    56 C28      5.9560   4.7214   8.2926   C.ar      1 RES1   0.0000
    57 C29      6.3925   5.5859   7.2988   C.ar      1 RES1   0.0000
    58 H22      6.3606   6.5223   7.4555   H         1 RES1   0.0000
    59 C30      6.8751   5.1222   6.0817   C.ar      1 RES1   0.0000
    60 C31      6.5528   1.3490   6.6172   C.3       1 RES1   0.0000
    61 H23      7.4889   1.0577   6.6216   H         1 RES1   0.0000
    62 H24      6.1466   1.1292   5.7531   H         1 RES1   0.0000
    63 H25      6.0653   0.8915   7.3335   H         1 RES1   0.0000
    64 C32      5.4458   5.2555   9.6133   C.3       1 RES1   0.0000
    65 H26      6.2024   5.5601  10.1566   H         1 RES1   0.0000
    66 H27      4.9665   4.5457  10.0895   H         1 RES1   0.0000
    67 H28      4.8382   6.0067   9.4492   H         1 RES1   0.0000
    68 C33      7.3168   6.0892   5.0151   C.3       1 RES1   0.0000
    69 H29      7.3043   7.0007   5.3748   H         1 RES1   0.0000
    70 H30      6.7081   6.0317   4.2494   H         1 RES1   0.0000
    71 H31      8.2264   5.8645   4.7268   H         1 RES1   0.0000
    72 C34      7.7639   3.1003   1.0784   C.ar      1 RES1   0.0000
    73 C35      8.0735   4.3039   0.4411   C.ar      1 RES1   0.0000
    74 C36      8.0243   4.3435  -0.9487   C.ar      1 RES1   0.0000
    75 H32      8.2228   5.1577  -1.3960   H         1 RES1   0.0000
    76 C37      7.6909   3.2225  -1.6990   C.ar      1 RES1   0.0000
    77 C38      7.4204   2.0376  -1.0354   C.ar      1 RES1   0.0000
    78 H33      7.1952   1.2672  -1.5434   H         1 RES1   0.0000
    79 C39      7.4689   1.9391   0.3538   C.ar      1 RES1   0.0000
    80 C40      8.4774   5.5352   1.2189   C.3       1 RES1   0.0000
    81 H34      9.3570   5.3904   1.6263   H         1 RES1   0.0000
    82 H35      7.8167   5.7090   1.9215   H         1 RES1   0.0000
    83 H36      8.5206   6.3045   0.6134   H         1 RES1   0.0000
    84 C41      7.6301   3.2907  -3.2103   C.3       1 RES1   0.0000
    85 H37      7.5627   2.3841  -3.5758   H         1 RES1   0.0000
    86 H38      8.4425   3.7206  -3.5507   H         1 RES1   0.0000
    87 H39      6.8462   3.8120  -3.4826   H         1 RES1   0.0000
    88 C42      7.2107   0.6238   1.0340   C.3       1 RES1   0.0000
    89 H40      6.2952   0.6100   1.3821   H         1 RES1   0.0000
    90 H41      7.8436   0.5091   1.7737   H         1 RES1   0.0000
    91 H42      7.3266  -0.1054   0.3895   H         1 RES1   0.0000
    92 C43     13.4888   1.7390   7.5629   C.3       2 RES2   0.0000
    93 H43     13.4627   1.1364   6.7907   H         2 RES2   0.0000
    94 H44     13.7341   1.2318   8.3649   H         2 RES2   0.0000
    95 H45     14.1529   2.4426   7.4058   H         2 RES2   0.0000
    96 C44     12.1319   2.3637   7.7591   C.ar      2 RES2   0.0000
    97 C45     11.9190   3.7034   7.5001   C.ar      2 RES2   0.0000
    98 H46     12.6334   4.2320   7.1640   H         2 RES2   0.0000
    99 C46     10.6798   4.2935   7.7220   C.ar      2 RES2   0.0000
   100 H47     10.5551   5.2179   7.5418   H         2 RES2   0.0000
   101 C47      9.6350   3.5416   8.2015   C.ar      2 RES2   0.0000
   102 H48      8.7873   3.9419   8.3545   H         2 RES2   0.0000
   103 C48      9.8240   2.2085   8.4574   C.ar      2 RES2   0.0000
   104 H49      9.1032   1.6840   8.7850   H         2 RES2   0.0000
   105 C49     11.0594   1.6228   8.2418   C.ar      2 RES2   0.0000
   106 H50     11.1757   0.6984   8.4267   H         2 RES2   0.0000
@<TRIPOS>BOND
     1     1     2    1
     2     3     1    1
     3     4     1    1
     4     5     4    3
     5     6     1    1
     6     7     6    3
     7     8     1    1
     8     9     8    3
     9    10     3    1
    10    11    10   ar
    11    12    11    1
    12    13    11   ar
    13    14    13    1
    14    15    13   ar
    15    16    15    1
    16    17    15   ar
    17    18    17    1
    18    19    10   ar
    19    20    19    1
    20    21     3    1
    21    22    21   ar
    22    23    22    1
    23    24    22   ar
    24    25    24    1
    25    26    24   ar
    26    27    26    1
    27    28    26   ar
    28    29    28    1
    29    30    21   ar
    30    31    30    1
    31    32     3    1
    32    33    32   ar
    33    34    33    1
    34    35    33   ar
    35    36    35    1
    36    37    35   ar
    37    38    37    1
    38    39    37   ar
    39    40    39    1
    40    41    32   ar
    41    42    41    1
    42    43     1    1
    43    44    43    1
    44    45    44    1
    45    46    45    1
    46    47    45    1
    47    48    45    1
    48    49    48    1
    49    50    48    1
    50    51    43    1
    51    52    44    1
    52    53    52   ar
    53    54    53   ar
    54    55    54    1
    55    56    54   ar
    56    57    56   ar
    57    58    57    1
    58    59    52   ar
    59    60    53    1
    60    61    60    1
    61    62    60    1
    62    63    60    1
    63    64    56    1
    64    65    64    1
    65    66    64    1
    66    67    64    1
    67    68    59    1
    68    69    68    1
    69    70    68    1
    70    71    68    1
    71    72    51    1
    72    73    72   ar
    73    74    73   ar
    74    75    74    1
    75    76    74   ar
    76    77    76   ar
    77    78    77    1
    78    79    72   ar
    79    80    73    1
    80    81    80    1
    81    82    80    1
    82    83    80    1
    83    84    76    1
    84    85    84    1
    85    86    84    1
    86    87    84    1
    87    88    79    1
    88    89    88    1
    89    90    88    1
    90    91    88    1
    91    17    19   ar
    92    28    30   ar
    93    39    41   ar
    94    48    51    1
    95    57    59   ar
    96    77    79   ar
    97    92    93    1
    98    94    92    1
    99    95    92    1
   100    96    92    1
   101    97    96   ar
   102    98    97    1
   103    99    97   ar
   104   100    99    1
   105   101    99   ar
   106   102   101    1
   107   103   101   ar
   108   104   103    1
   109   105    96   ar
   110   106   105    1
   111   103   105   ar
@<TRIPOS>SUBSTRUCTURE
     1 RES1        1 GROUP             0 ****  ****    0  
     2 RES2       92 GROUP             0 ****  ****    0  
@<TRIPOS>CRYSIN
   10.7559   14.2806   15.2278   85.8470   69.7430   73.2800     2     1
