@<TRIPOS>MOLECULE
HAFKAE
   110   115     2     0     0
SMALL
NO_CHARGES
****
Generated from the CSD

@<TRIPOS>ATOM
     1 Fe1      4.8691   4.2582   6.8447   Fe        1 RES1   0.0000
     2 H1       4.6124   2.8214   6.9919   H         1 RES1   0.0000
     3 C1       4.4925   3.9056   5.1507   C.1       1 RES1   0.0000
     4 O1       4.2173   3.5870   4.0938   O.2       1 RES1   0.0000
     5 C2       5.6632   5.8571   6.6934   C.1       1 RES1   0.0000
     6 O2       6.2651   6.8236   6.5782   O.2       1 RES1   0.0000
     7 C3       5.0681   3.8715   8.5624   C.1       1 RES1   0.0000
     8 O3       5.1175   3.5303   9.6563   O.2       1 RES1   0.0000
     9 C4       2.9737   4.7645   7.2543   C.3       1 RES1   0.0000
    10 C5       0.7736   4.6464   7.7850   C.2       1 RES1   0.0000
    11 H2      -0.0890   4.2814   7.9429   H         1 RES1   0.0000
    12 N1       1.8844   3.9575   7.3482   N.pl3     1 RES1   0.0000
    13 C6       1.8520   2.5283   6.9815   C.3       1 RES1   0.0000
    14 H3       2.6850   2.3343   6.4635   H         1 RES1   0.0000
    15 C7       0.6684   2.2300   6.0704   C.3       1 RES1   0.0000
    16 H4       0.7088   2.8100   5.2683   H         1 RES1   0.0000
    17 H5      -0.1780   2.4182   6.5466   H         1 RES1   0.0000
    18 C8       0.7100   0.7604   5.6470   C.3       1 RES1   0.0000
    19 H6      -0.0799   0.5561   5.0864   H         1 RES1   0.0000
    20 H7       1.5220   0.5948   5.1066   H         1 RES1   0.0000
    21 C9       0.7156  -0.1457   6.8583   C.3       1 RES1   0.0000
    22 H8      -0.1324  -0.0346   7.3561   H         1 RES1   0.0000
    23 H9       0.7757  -1.0885   6.5623   H         1 RES1   0.0000
    24 C10      1.8730   0.1653   7.7694   C.3       1 RES1   0.0000
    25 H10      2.7225  -0.0328   7.3003   H         1 RES1   0.0000
    26 H11      1.8247  -0.4136   8.5709   H         1 RES1   0.0000
    27 C11      1.8644   1.6370   8.2032   C.3       1 RES1   0.0000
    28 H12      1.0628   1.8172   8.7566   H         1 RES1   0.0000
    29 H13      2.6667   1.8294   8.7502   H         1 RES1   0.0000
    30 C12      1.1335   5.9170   7.9448   C.2       1 RES1   0.0000
    31 H14      0.5767   6.6343   8.2233   H         1 RES1   0.0000
    32 N2       2.4782   5.9894   7.6258   N.pl3     1 RES1   0.0000
    33 C13      3.1726   7.2518   7.5351   C.ar      1 RES1   0.0000
    34 C14      3.7572   7.7838   8.6752   C.ar      1 RES1   0.0000
    35 C15      4.3820   9.0292   8.5503   C.ar      1 RES1   0.0000
    36 H15      4.8019   9.4228   9.3065   H         1 RES1   0.0000
    37 C16      4.3924   9.6943   7.3338   C.ar      1 RES1   0.0000
    38 H16      4.8182  10.5407   7.2620   H         1 RES1   0.0000
    39 C17      3.7948   9.1402   6.2387   C.ar      1 RES1   0.0000
    40 H17      3.8113   9.6128   5.4141   H         1 RES1   0.0000
    41 C18      3.1643   7.9030   6.2960   C.ar      1 RES1   0.0000
    42 C19      3.7278   7.1107  10.0306   C.3       1 RES1   0.0000
    43 H18      3.2924   6.2168   9.9213   H         1 RES1   0.0000
    44 C20      2.8880   7.9245  11.0284   C.3       1 RES1   0.0000
    45 H19      2.8437   7.4483  11.8832   H         1 RES1   0.0000
    46 H20      1.9825   8.0427  10.6724   H         1 RES1   0.0000
    47 H21      3.3027   8.8021  11.1638   H         1 RES1   0.0000
    48 C21      5.1241   6.8861  10.6067   C.3       1 RES1   0.0000
    49 H22      5.6722   6.4019   9.9540   H         1 RES1   0.0000
    50 H23      5.0575   6.3604  11.4310   H         1 RES1   0.0000
    51 H24      5.5394   7.7516  10.8036   H         1 RES1   0.0000
    52 C22      2.5214   7.3221   5.0639   C.3       1 RES1   0.0000
    53 H25      2.1594   6.4206   5.3016   H         1 RES1   0.0000
    54 C23      1.3545   8.1832   4.5710   C.3       1 RES1   0.0000
    55 H26      0.6725   8.2414   5.2734   H         1 RES1   0.0000
    56 H27      0.9640   7.7769   3.7699   H         1 RES1   0.0000
    57 H28      1.6797   9.0823   4.3572   H         1 RES1   0.0000
    58 C24      3.5480   7.1372   3.9376   C.3       1 RES1   0.0000
    59 H29      3.9562   8.0019   3.7224   H         1 RES1   0.0000
    60 H30      3.1001   6.7805   3.1423   H         1 RES1   0.0000
    61 H31      4.2436   6.5114   4.2291   H         1 RES1   0.0000
    62 Si1      6.9899   3.3493   6.3880   Si        1 RES1   0.0000
    63 C25      6.9814   1.6185   5.6098   C.ar      1 RES1   0.0000
    64 C26      5.9673   0.6833   5.7771   C.ar      1 RES1   0.0000
    65 H32      5.1884   0.9336   6.2603   H         1 RES1   0.0000
    66 C27      6.0530  -0.6078   5.2635   C.ar      1 RES1   0.0000
    67 H33      5.3391  -1.2207   5.3944   H         1 RES1   0.0000
    68 C28      7.1720  -0.9936   4.5641   C.ar      1 RES1   0.0000
    69 H34      7.2368  -1.8756   4.2173   H         1 RES1   0.0000
    70 C29      8.1921  -0.1035   4.3715   C.ar      1 RES1   0.0000
    71 H35      8.9609  -0.3639   3.8777   H         1 RES1   0.0000
    72 C30      8.1066   1.1786   4.8938   C.ar      1 RES1   0.0000
    73 H36      8.8323   1.7780   4.7629   H         1 RES1   0.0000
    74 C31      8.0779   3.2051   7.9318   C.ar      1 RES1   0.0000
    75 C32      8.7821   2.0457   8.2553   C.ar      1 RES1   0.0000
    76 H37      8.7047   1.2836   7.6931   H         1 RES1   0.0000
    77 C33      9.5959   1.9797   9.3781   C.ar      1 RES1   0.0000
    78 H38     10.0622   1.1765   9.5776   H         1 RES1   0.0000
    79 C34      9.7290   3.0680  10.2041   C.ar      1 RES1   0.0000
    80 H39     10.2826   3.0193  10.9741   H         1 RES1   0.0000
    81 C35      9.0540   4.2311   9.9074   C.ar      1 RES1   0.0000
    82 H40      9.1492   4.9919  10.4679   H         1 RES1   0.0000
    83 C36      8.2388   4.2908   8.7952   C.ar      1 RES1   0.0000
    84 H41      7.7721   5.0972   8.6107   H         1 RES1   0.0000
    85 C37      8.0024   4.4076   5.1906   C.ar      1 RES1   0.0000
    86 C38      9.1400   5.1089   5.5845   C.ar      1 RES1   0.0000
    87 H42      9.4394   5.0296   6.4833   H         1 RES1   0.0000
    88 C39      9.8478   5.9166   4.7151   C.ar      1 RES1   0.0000
    89 H43     10.6235   6.3746   5.0177   H         1 RES1   0.0000
    90 C40      9.4361   6.0582   3.4135   C.ar      1 RES1   0.0000
    91 H44      9.9183   6.6214   2.8199   H         1 RES1   0.0000
    92 C41      8.3285   5.3868   2.9745   C.ar      1 RES1   0.0000
    93 H45      8.0432   5.4727   2.0729   H         1 RES1   0.0000
    94 C42      7.6227   4.5763   3.8595   C.ar      1 RES1   0.0000
    95 H46      6.8513   4.1203   3.5439   H         1 RES1   0.0000
    96 C43     11.5256  10.8007   6.8548   C.3       2 RES2   0.0000
    97 H47     11.0430  10.8624   6.0034   H         2 RES2   0.0000
    98 H48     12.4393  10.4872   6.6895   H         2 RES2   0.0000
    99 H49     11.5540  11.6832   7.2786   H         2 RES2   0.0000
   100 C44     10.8113   9.8200   7.7711   C.ar      2 RES2   0.0000
   101 C45      9.9188   8.9014   7.2678   C.ar      2 RES2   0.0000
   102 H50      9.7635   8.8721   6.3313   H         2 RES2   0.0000
   103 C46      9.2433   8.0207   8.0921   C.ar      2 RES2   0.0000
   104 H51      8.6281   7.3982   7.7222   H         2 RES2   0.0000
   105 C47      9.4645   8.0504   9.4458   C.ar      2 RES2   0.0000
   106 H52      9.0179   7.4403  10.0213   H         2 RES2   0.0000
   107 C48     10.3376   8.9686   9.9490   C.ar      2 RES2   0.0000
   108 H53     10.4835   9.0018  10.8878   H         2 RES2   0.0000
   109 C49     10.9997   9.8308   9.1473   C.ar      2 RES2   0.0000
   110 H54     11.6034  10.4560   9.5304   H         2 RES2   0.0000
@<TRIPOS>BOND
     1     1     2    1
     2     3     1    1
     3     4     3    3
     4     5     1    1
     5     6     5    3
     6     7     1    1
     7     8     7    3
     8     9     1    1
     9    10    11    1
    10    12     9    1
    11    13    12    1
    12    14    13    1
    13    15    13    1
    14    16    15    1
    15    17    15    1
    16    18    15    1
    17    19    18    1
    18    20    18    1
    19    21    18    1
    20    22    21    1
    21    23    21    1
    22    24    21    1
    23    25    24    1
    24    26    24    1
    25    27    13    1
    26    28    27    1
    27    29    27    1
    28    30    10    2
    29    31    30    1
    30    32     9    1
    31    33    32    1
    32    34    33   ar
    33    35    34   ar
    34    36    35    1
    35    37    35   ar
    36    38    37    1
    37    39    37   ar
    38    40    39    1
    39    41    33   ar
    40    42    34    1
    41    43    42    1
    42    44    42    1
    43    45    44    1
    44    46    44    1
    45    47    44    1
    46    48    42    1
    47    49    48    1
    48    50    48    1
    49    51    48    1
    50    52    41    1
    51    53    52    1
    52    54    52    1
    53    55    54    1
    54    56    54    1
    55    57    54    1
    56    58    52    1
    57    59    58    1
    58    60    58    1
    59    61    58    1
    60    62     1    1
    61    63    62    1
    62    64    63   ar
    63    65    64    1
    64    66    64   ar
    65    67    66    1
    66    68    66   ar
    67    69    68    1
    68    70    68   ar
    69    71    70    1
    70    72    63   ar
    71    73    72    1
    72    74    62    1
    73    75    74   ar
    74    76    75    1
    75    77    75   ar
    76    78    77    1
    77    79    77   ar
    78    80    79    1
    79    81    79   ar
    80    82    81    1
    81    83    74   ar
    82    84    83    1
    83    85    62    1
    84    86    85   ar
    85    87    86    1
    86    88    86   ar
    87    89    88    1
    88    90    88   ar
    89    91    90    1
    90    92    90   ar
    91    93    92    1
    92    94    85   ar
    93    95    94    1
    94    10    12    1
    95    24    27    1
    96    30    32    1
    97    39    41   ar
    98    70    72   ar
    99    81    83   ar
   100    92    94   ar
   101    96    97    1
   102    98    96    1
   103    99    96    1
   104   100    96    1
   105   101   100   ar
   106   102   101    1
   107   103   101   ar
   108   104   103    1
   109   105   103   ar
   110   106   105    1
   111   107   105   ar
   112   108   107    1
   113   109   100   ar
   114   110   109    1
   115   107   109   ar
@<TRIPOS>SUBSTRUCTURE
     1 RES1        1 GROUP             0 ****  ****    0  
     2 RES2       96 GROUP             0 ****  ****    0  
@<TRIPOS>CRYSIN
   11.4261   21.5540   17.8301   90.0000  103.2710   90.0000   231     1
