@<TRIPOS>MOLECULE
HAGMIL01
    98    94     6     0     0
SMALL
USER_CHARGES
****
Generated from the CSD

@<TRIPOS>ATOM
     1 Fe1      1.1336  10.3721   5.3548   Fe        1 RES1  -2.0000
     2 Cl1      2.9203   9.4517   4.1392   Cl        1 RES1   0.0000
     3 Cl2      1.4798   8.8318   7.1362   Cl        1 RES1   0.0000
     4 Cl3      0.9168  12.0804   3.6744   Cl        1 RES1   0.0000
     5 Cl4     -0.5006   9.0895   4.3772   Cl        1 RES1   0.0000
     6 Cl5     -0.4910  11.5241   6.7221   Cl        1 RES1   0.0000
     7 O1       2.4824  11.6120   6.3690   O.3       1 RES1   0.0000
     8 H1       2.2628  12.3716   6.2977   H         1 RES1   0.0000
     9 H2       3.2346  11.5539   6.0749   H         1 RES1   0.0000
    10 Cl6      5.5323  12.1292   6.1283   Cl        2 RES2  -1.0000
    11 Cl7      4.5931   7.4027   9.1651   Cl        3 RES3  -1.0000
    12 N1       7.8394  12.4916   4.0378   N.4       4 RES4   1.0000
    13 C1       7.9466  13.9725   3.9450   C.3       4 RES4   0.0000
    14 C2       7.6135  11.7775   2.7278   C.3       4 RES4   0.0000
    15 C3       8.1114  14.5620   5.3397   C.3       4 RES4   0.0000
    16 N2       7.9562  16.0532   5.3367   N.4       4 RES4   1.0000
    17 C4       6.6763  16.6165   4.7753   C.3       4 RES4   0.0000
    18 C5       6.3446  12.1794   1.9970   C.3       4 RES4   0.0000
    19 H3       6.7145  17.5305   4.9461   H         4 RES4   0.0000
    20 H4       7.6217  10.8385   2.9409   H         4 RES4   0.0000
    21 H5       8.3842  11.9607   2.2428   H         4 RES4   0.0000
    22 H6       6.6951  16.4999   3.9064   H         4 RES4   0.0000
    23 H7       6.3111  13.0844   1.9235   H         4 RES4   0.0000
    24 H8       9.0100  14.4119   5.6739   H         4 RES4   0.0000
    25 H9       8.0243  16.3428   6.1640   H         4 RES4   0.0000
    26 H10      6.4116  11.8029   1.0917   H         4 RES4   0.0000
    27 H11      7.4633  14.2157   5.9709   H         4 RES4   0.0000
    28 H12      7.2463  12.2557   4.5970   H         4 RES4   0.0000
    29 H13      7.1430  14.2971   3.5350   H         4 RES4   0.0000
    30 H14      8.6987  14.1865   3.3865   H         4 RES4   0.0000
    31 H15      8.5487  12.1638   4.3074   H         4 RES4   0.0000
    32 H16      8.6347  16.3901   4.9312   H         4 RES4   0.0000
    33 C5A      5.4252  16.0562   5.4295   C.3       4 RES4   0.0000
    34 C2A      4.1564  16.4581   4.6988   C.3       4 RES4   0.0000
    35 N1A      3.9305  15.7440   3.3887   N.4       4 RES4   1.0000
    36 C1A      3.8233  14.2631   3.4816   C.3       4 RES4   0.0000
    37 C3A      3.6585  13.6735   2.0869   C.3       4 RES4   0.0000
    38 N2A      3.8137  12.1824   2.0898   N.4       4 RES4   1.0000
    39 C4A      5.0936  11.6191   2.6513   C.3       4 RES4   0.0000
    40 H3A      5.0554  10.7051   2.4805   H         4 RES4   0.0000
    41 H6A      5.0748  11.7357   3.5202   H         4 RES4   0.0000
    42 H9A      3.7456  11.8928   1.2625   H         4 RES4   0.0000
    43 H16A     3.1352  11.8455   2.4953   H         4 RES4   0.0000
    44 H8A      2.7599  13.8237   1.7527   H         4 RES4   0.0000
    45 H11A     4.3066  14.0199   1.4556   H         4 RES4   0.0000
    46 H13A     4.6269  13.9385   3.8915   H         4 RES4   0.0000
    47 H14A     3.0712  14.0491   4.0400   H         4 RES4   0.0000
    48 H12A     4.5236  15.9799   2.8295   H         4 RES4   0.0000
    49 H15A     3.2212  16.0718   3.1191   H         4 RES4   0.0000
    50 H4A      4.1482  17.3971   4.4856   H         4 RES4   0.0000
    51 H5A      3.3857  16.2749   5.1837   H         4 RES4   0.0000
    52 H7A      5.4588  15.1511   5.5031   H         4 RES4   0.0000
    53 H10A     5.3583  16.4327   6.3348   H         4 RES4   0.0000
    54 O2       7.3683  12.9292   8.4967   O.3       5 RES5   0.0000
    55 H17      6.8816  12.6363   7.9315   H         5 RES5   0.0000
    56 H18      8.0771  12.6282   8.2954   H         5 RES5   0.0000
    57 N3       4.6750   4.6002   7.8498   N.4       6 RES6   1.0000
    58 C6       5.8585   3.6895   8.0801   C.3       6 RES6   0.0000
    59 C7       4.3173   4.7202   6.3965   C.3       6 RES6   0.0000
    60 C8       6.5543   3.9024   9.4064   C.3       6 RES6   0.0000
    61 C9       7.3208   5.2010   9.5891   C.3       6 RES6   0.0000
    62 N4       8.5507   5.2800   8.7366   N.4       6 RES6   1.0000
    63 C10      3.5036   5.9479   6.0467   C.3       6 RES6   0.0000
    64 H19      6.8164   6.0198   9.3351   H         6 RES6   0.0000
    65 H20      6.4939   3.8644   7.4117   H         6 RES6   0.0000
    66 H21      4.7994   5.4297   8.2360   H         6 RES6   0.0000
    67 H22      2.7840   6.0411   6.6022   H         6 RES6   0.0000
    68 H23      5.1661   4.7243   5.9041   H         6 RES6   0.0000
    69 H24      3.1876   5.8884   5.1689   H         6 RES6   0.0000
    70 H25      5.4961   2.7660   8.0355   H         6 RES6   0.0000
    71 H26      8.3979   5.1455   7.8573   H         6 RES6   0.0000
    72 H27      7.2002   3.1243   9.5060   H         6 RES6   0.0000
    73 H28      7.6714   5.2620  10.5382   H         6 RES6   0.0000
    74 H29      3.9842   4.2347   8.2954   H         6 RES6   0.0000
    75 H30      5.9643   3.8211  10.0629   H         6 RES6   0.0000
    76 H31      3.7990   3.9816   6.1714   H         6 RES6   0.0000
    77 H32      9.0508   4.6781   8.9861   H         6 RES6   0.0000
    78 C10A     9.3017   6.5784   8.8064   C.3       6 RES6   0.0000
    79 C7A      8.4880   7.8061   8.4566   C.3       6 RES6   0.0000
    80 N3A      8.1303   7.9262   7.0032   N.4       6 RES6   1.0000
    81 C6A      6.9469   8.8368   6.7730   C.3       6 RES6   0.0000
    82 C8A      6.2510   8.6239   5.4466   C.3       6 RES6   0.0000
    83 C9A      5.4846   7.3253   5.2639   C.3       6 RES6   0.0000
    84 N4A      4.2546   7.2463   6.1165   N.4       6 RES6   1.0000
    85 H26A     4.4074   7.3808   6.9958   H         6 RES6   0.0000
    86 H32A     3.7545   7.8483   5.8670   H         6 RES6   0.0000
    87 H19A     5.9889   6.5065   5.5179   H         6 RES6   0.0000
    88 H28A     5.1340   7.2643   4.3148   H         6 RES6   0.0000
    89 H27A     5.6052   9.4020   5.3471   H         6 RES6   0.0000
    90 H30A     6.8411   8.7052   4.7901   H         6 RES6   0.0000
    91 H20A     6.3114   8.6619   7.4414   H         6 RES6   0.0000
    92 H25A     7.3092   9.7603   6.8176   H         6 RES6   0.0000
    93 H21A     8.0059   7.0966   6.6170   H         6 RES6   0.0000
    94 H29A     8.8211   8.2916   6.5576   H         6 RES6   0.0000
    95 H23A     7.6393   7.8020   8.9490   H         6 RES6   0.0000
    96 H31A     9.0063   8.5448   8.6816   H         6 RES6   0.0000
    97 H22A    10.0213   6.4852   8.2509   H         6 RES6   0.0000
    98 H24A     9.6177   6.6379   9.6842   H         6 RES6   0.0000
@<TRIPOS>BOND
     1     1     2    1
     2     3     1    1
     3     4     1    1
     4     5     1    1
     5     6     1    1
     6     7     1    1
     7     8     7    1
     8     9     7    1
     9    12    13    1
    10    13    15    1
    11    14    12    1
    12    15    16    1
    13    16    17    1
    14    17    19    1
    15    18    14    1
    16    20    14    1
    17    21    14    1
    18    22    17    1
    19    23    18    1
    20    24    15    1
    21    25    16    1
    22    26    18    1
    23    27    15    1
    24    28    12    1
    25    29    13    1
    26    30    13    1
    27    31    12    1
    28    32    16    1
    29    33    17    1
    30    34    33    1
    31    35    34    1
    32    36    35    1
    33    37    36    1
    34    38    37    1
    35    39    18    1
    36    40    39    1
    37    41    39    1
    38    42    38    1
    39    43    38    1
    40    44    37    1
    41    45    37    1
    42    46    36    1
    43    47    36    1
    44    48    35    1
    45    49    35    1
    46    50    34    1
    47    51    34    1
    48    52    33    1
    49    53    33    1
    50    38    39    1
    51    54    55    1
    52    56    54    1
    53    57    58    1
    54    58    60    1
    55    59    57    1
    56    60    61    1
    57    61    62    1
    58    62    71    1
    59    63    59    1
    60    64    61    1
    61    65    58    1
    62    66    57    1
    63    67    63    1
    64    68    59    1
    65    69    63    1
    66    70    58    1
    67    72    60    1
    68    73    61    1
    69    74    57    1
    70    75    60    1
    71    76    59    1
    72    77    62    1
    73    78    62    1
    74    79    78    1
    75    80    79    1
    76    81    80    1
    77    82    81    1
    78    83    82    1
    79    84    63    1
    80    85    84    1
    81    86    84    1
    82    87    83    1
    83    88    83    1
    84    89    82    1
    85    90    82    1
    86    91    81    1
    87    92    81    1
    88    93    80    1
    89    94    80    1
    90    95    79    1
    91    96    79    1
    92    97    78    1
    93    98    78    1
    94    83    84    1
@<TRIPOS>SUBSTRUCTURE
     1 RES1        1 GROUP             0 ****  ****    0  
     2 RES2       10 GROUP             0 ****  ****    0  
     3 RES3       11 GROUP             0 ****  ****    0  
     4 RES4       12 GROUP             0 ****  ****    0  
     5 RES5       54 GROUP             0 ****  ****    0  
     6 RES6       57 GROUP             0 ****  ****    0  
@<TRIPOS>CRYSIN
   10.1620   14.9930    7.8070   94.2300  106.0700  102.3100     2     1
