@<TRIPOS>MOLECULE
HAJYOJ
    87    89     6     0     0
SMALL
USER_CHARGES
****
Generated from the CSD

@<TRIPOS>ATOM
     1 Fe1     10.2029   5.7058  -4.4428   Fe        1 RES1   2.0000
     2 N1      10.1569   3.8616  -3.7456   N.3       1 RES1   0.0000
     3 N2       9.3453   5.1063  -6.1903   N.ar      1 RES1   0.0000
     4 N3      11.9823   5.1648  -5.0756   N.ar      1 RES1   0.0000
     5 N4      10.9715   6.1872  -2.6889   N.ar      1 RES1   0.0000
     6 N5       8.4096   5.8547  -3.6525   N.ar      1 RES1   0.0000
     7 N6      10.3391   7.5356  -5.0853   N.1       1 RES1   0.0000
     8 C1      10.9043   3.0441  -4.7770   C.3       1 RES1   0.0000
     9 H1      11.1732   2.1967  -4.3659   H         1 RES1   0.0000
    10 C2      10.1300   2.7398  -6.0392   C.3       1 RES1   0.0000
    11 H2      10.7307   2.2931  -6.6546   H         1 RES1   0.0000
    12 H3       9.4306   2.1073  -5.8119   H         1 RES1   0.0000
    13 C3       9.4928   3.8790  -6.7719   C.ar      1 RES1   0.0000
    14 C4       8.9960   3.6408  -8.0462   C.ar      1 RES1   0.0000
    15 H4       9.1282   2.8082  -8.4416   H         1 RES1   0.0000
    16 C5       8.3187   4.6051  -8.7245   C.ar      1 RES1   0.0000
    17 H5       8.0000   4.4451  -9.5829   H         1 RES1   0.0000
    18 C6       8.1149   5.8187  -8.1236   C.ar      1 RES1   0.0000
    19 H6       7.6433   6.4913  -8.5601   H         1 RES1   0.0000
    20 C7       8.6214   6.0212  -6.8638   C.ar      1 RES1   0.0000
    21 H7       8.4537   6.8371  -6.4503   H         1 RES1   0.0000
    22 C8      12.1469   3.8285  -5.1107   C.ar      1 RES1   0.0000
    23 C9      13.3292   3.2339  -5.5060   C.ar      1 RES1   0.0000
    24 H8      13.4067   2.3072  -5.5411   H         1 RES1   0.0000
    25 C10     14.3907   4.0406  -5.8470   C.ar      1 RES1   0.0000
    26 H9      15.1986   3.6667  -6.1166   H         1 RES1   0.0000
    27 C11     14.2432   5.4094  -5.7829   C.ar      1 RES1   0.0000
    28 H10     14.9538   5.9716  -5.9969   H         1 RES1   0.0000
    29 C12     13.0394   5.9323  -5.4020   C.ar      1 RES1   0.0000
    30 H11     12.9450   6.8559  -5.3658   H         1 RES1   0.0000
    31 C13     10.8998   3.7937  -2.4350   C.3       1 RES1   0.0000
    32 H12     10.3830   3.2645  -1.8039   H         1 RES1   0.0000
    33 H13     11.7494   3.3468  -2.5717   H         1 RES1   0.0000
    34 C14     11.1405   5.1437  -1.8607   C.ar      1 RES1   0.0000
    35 C15     11.5741   5.3318  -0.5489   C.ar      1 RES1   0.0000
    36 H14     11.6600   4.6051   0.0230   H         1 RES1   0.0000
    37 C16     11.8676   6.5689  -0.1149   C.ar      1 RES1   0.0000
    38 H15     12.1750   6.6959   0.7532   H         1 RES1   0.0000
    39 C17     11.7151   7.6391  -0.9503   C.ar      1 RES1   0.0000
    40 H16     11.9208   8.4975  -0.6589   H         1 RES1   0.0000
    41 C18     11.2502   7.4274  -2.2367   C.ar      1 RES1   0.0000
    42 H17     11.1270   8.1565  -2.8014   H         1 RES1   0.0000
    43 C19      8.7408   3.4738  -3.5546   C.3       1 RES1   0.0000
    44 H18      8.6760   2.8364  -2.8256   H         1 RES1   0.0000
    45 H19      8.4106   3.0434  -4.3586   H         1 RES1   0.0000
    46 C20      7.8997   4.6686  -3.2487   C.ar      1 RES1   0.0000
    47 C21      6.6567   4.5651  -2.6648   C.ar      1 RES1   0.0000
    48 H20      6.3410   3.7396  -2.3782   H         1 RES1   0.0000
    49 C22      5.8769   5.7128  -2.5088   C.ar      1 RES1   0.0000
    50 H21      5.0216   5.6634  -2.1497   H         1 RES1   0.0000
    51 C23      6.4134   6.9170  -2.9029   C.ar      1 RES1   0.0000
    52 H22      5.9251   7.7026  -2.7929   H         1 RES1   0.0000
    53 C24      7.6682   6.9594  -3.4579   C.ar      1 RES1   0.0000
    54 H23      8.0195   7.7825  -3.7094   H         1 RES1   0.0000
    55 C25     10.3835   8.6104  -5.4432   C.1       1 RES1   0.0000
    56 C26     10.4220   9.9910  -5.9183   C.3       1 RES1   0.0000
    57 H24      9.5273  10.3062  -6.0598   H         1 RES1   0.0000
    58 H25     10.9107  10.0333  -6.7453   H         1 RES1   0.0000
    59 H26     10.8578  10.5437  -5.2642   H         1 RES1   0.0000
    60 Cl1     14.2939   0.7738  -8.4350   Cl        2 RES2   0.0000
    61 O1      15.1209   1.7734  -8.8019   O.2       2 RES2   0.0000
    62 O2      14.4379   0.3693  -7.1854   O.2       2 RES2   0.0000
    63 O3      14.4114  -0.3034  -9.2662   O.2       2 RES2   0.0000
    64 O4      13.0148   1.4347  -8.4017   O.3       2 RES2  -1.0000
    65 Cl2     14.4537   9.7186  -5.5175   Cl        3 RES3   0.0000
    66 O5      14.0195  10.2826  -6.7187   O.2       3 RES3   0.0000
    67 O6      13.3269   9.2313  -4.7492   O.3       3 RES3  -1.0000
    68 O7      15.2954   8.6104  -5.7672   O.2       3 RES3   0.0000
    69 O8      15.0922  10.6942  -4.7407   O.2       3 RES3   0.0000
    70 N7       6.7751   1.5099  -5.4831   N.1       4 RES4   0.0000
    71 C27      6.7616   0.6562  -4.5098   C.1       4 RES4   0.0000
    72 C28      6.8062  -0.2517  -3.5425   C.3       4 RES4   0.0000
    73 H27      6.0710  -0.8608  -3.6392   H         4 RES4   0.0000
    74 H28      6.7516   0.1858  -2.6901   H         4 RES4   0.0000
    75 H29      7.6338  -0.7362  -3.6006   H         4 RES4   0.0000
    76 N8       3.8422   2.7706  -3.4059   N.1       5 RES5   0.0000
    77 C29      3.2857   1.8133  -3.6441   C.1       5 RES5   0.0000
    78 C30      2.5156   0.6679  -3.8121   C.3       5 RES5   0.0000
    79 H30      1.6637   0.7879  -3.3866   H         5 RES5   0.0000
    80 H31      2.9670  -0.0823  -3.4156   H         5 RES5   0.0000
    81 H32      2.3854   0.5033  -4.7492   H         5 RES5   0.0000
    82 N9      13.9228   2.6271  -0.7254   N.1       6 RES6   0.0000
    83 C31     13.1406   2.0391  -0.1257   C.1       6 RES6   0.0000
    84 C32     12.0864   1.2583   0.5936   C.3       6 RES6   0.0000
    85 H33     11.4450   0.9290  -0.0399   H         6 RES6   0.0000
    86 H34     11.6479   1.8274   1.2296   H         6 RES6   0.0000
    87 H35     12.4928   0.5198   1.0519   H         6 RES6   0.0000
@<TRIPOS>BOND
     1     1     2    1
     2     2     8    1
     3     3     1    1
     4     4     1    1
     5     5     1    1
     6     6     1    1
     7     7     1    1
     8     8     9    1
     9    10     8    1
    10    11    10    1
    11    12    10    1
    12    13     3   ar
    13    14    13   ar
    14    15    14    1
    15    16    14   ar
    16    17    16    1
    17    18    16   ar
    18    19    18    1
    19    20     3   ar
    20    21    20    1
    21    22     4   ar
    22    23    22   ar
    23    24    23    1
    24    25    23   ar
    25    26    25    1
    26    27    25   ar
    27    28    27    1
    28    29     4   ar
    29    30    29    1
    30    31     2    1
    31    32    31    1
    32    33    31    1
    33    34     5   ar
    34    35    34   ar
    35    36    35    1
    36    37    35   ar
    37    38    37    1
    38    39    37   ar
    39    40    39    1
    40    41     5   ar
    41    42    41    1
    42    43     2    1
    43    44    43    1
    44    45    43    1
    45    46     6   ar
    46    47    46   ar
    47    48    47    1
    48    49    47   ar
    49    50    49    1
    50    51    49   ar
    51    52    51    1
    52    53     6   ar
    53    54    53    1
    54    55     7    3
    55    56    55    1
    56    57    56    1
    57    58    56    1
    58    59    56    1
    59     8    22    1
    60    10    13    1
    61    18    20   ar
    62    27    29   ar
    63    31    34    1
    64    39    41   ar
    65    43    46    1
    66    51    53   ar
    67    60    61    2
    68    62    60    2
    69    63    60    2
    70    64    60    1
    71    65    66    2
    72    67    65    1
    73    68    65    2
    74    69    65    2
    75    70    71    3
    76    71    72    1
    77    72    73    1
    78    74    72    1
    79    75    72    1
    80    76    77    3
    81    77    78    1
    82    78    79    1
    83    80    78    1
    84    81    78    1
    85    82    83    3
    86    83    84    1
    87    84    85    1
    88    86    84    1
    89    87    84    1
@<TRIPOS>SUBSTRUCTURE
     1 RES1        1 GROUP             0 ****  ****    0  
     2 RES2       60 GROUP             0 ****  ****    0  
     3 RES3       65 GROUP             0 ****  ****    0  
     4 RES4       70 GROUP             0 ****  ****    0  
     5 RES5       76 GROUP             0 ****  ****    0  
     6 RES6       82 GROUP             0 ****  ****    0  
@<TRIPOS>CRYSIN
   12.9962   23.5193   17.3109   90.0000  135.6985   90.0000    14     1
