@<TRIPOS>MOLECULE
HALXOI
    90   100     1     0     0
SMALL
NO_CHARGES
****
Generated from the CSD

@<TRIPOS>ATOM
     1 Fe1      0.2161   2.4146  12.9999   Fe        1 RES1   0.0000
     2 Na1      0.5261   5.7334  12.3415   Na        1 RES1   0.0000
     3 O1       1.1469   0.8080  12.3780   O.3       1 RES1   0.0000
     4 O2      -0.4240   4.0877  13.8360   O.3       1 RES1   0.0000
     5 O3      -0.7145   1.2242  14.2380   O.3       1 RES1   0.0000
     6 O4       0.8383   3.5872  11.5374   O.3       1 RES1   0.0000
     7 N1      -1.5173   2.0897  11.7043   N.ar      1 RES1   0.0000
     8 C1       0.9742   3.1056  10.2960   C.ar      1 RES1   0.0000
     9 N2       2.0019   2.7162  14.2261   N.ar      1 RES1   0.0000
    10 C2      -0.5029   4.1654  15.1798   C.ar      1 RES1   0.0000
    11 C3       1.8787   3.2995  15.4678   C.ar      1 RES1   0.0000
    12 C4       3.3983   1.6565  12.4656   C.ar      1 RES1   0.0000
    13 C5      -0.0245   2.2749   9.7211   C.ar      1 RES1   0.0000
    14 C6       3.2301   2.3434  13.7805   C.ar      1 RES1   0.0000
    15 C7       0.5528   3.7024  15.9962   C.ar      1 RES1   0.0000
    16 C8      -2.3210   1.3539  15.9920   C.ar      1 RES1   0.0000
    17 C9      -1.6430   4.6936  15.7851   C.ar      1 RES1   0.0000
    18 C10      2.7187   0.0150  10.8051   C.ar      1 RES1   0.0000
    19 C11      2.1011   3.4416   9.5359   C.ar      1 RES1   0.0000
    20 C12      4.3647   2.5440  14.5608   C.ar      1 RES1   0.0000
    21 C13      2.3909   0.8391  11.8969   C.ar      1 RES1   0.0000
    22 C14     -4.2108   2.2933  14.2262   C.ar      1 RES1   0.0000
    23 C15      4.2519   3.1658  15.7903   C.ar      1 RES1   0.0000
    24 C16      4.6484   1.6865  11.8207   C.ar      1 RES1   0.0000
    25 C17      2.3214   2.8984   8.2892   C.ar      1 RES1   0.0000
    26 C18     -1.3474   2.0292  10.3439   C.ar      1 RES1   0.0000
    27 C19      0.2557   1.7216   8.4599   C.ar      1 RES1   0.0000
    28 C20     -3.6815   1.5278  10.0618   C.ar      1 RES1   0.0000
    29 C21      0.3462   3.7074  17.3871   C.ar      1 RES1   0.0000
    30 C22      1.3951   2.0142   7.7460   C.ar      1 RES1   0.0000
    31 C23     -1.9725   1.4977  14.6291   C.ar      1 RES1   0.0000
    32 C24     -2.7474   1.8738  12.2415   C.ar      1 RES1   0.0000
    33 C25     -3.5805   1.7049  16.4300   C.ar      1 RES1   0.0000
    34 C26     -2.9562   1.9122  13.7124   C.ar      1 RES1   0.0000
    35 C27     -2.4563   1.7684   9.5256   C.ar      1 RES1   0.0000
    36 C28      4.9358   0.9143  10.7188   C.ar      1 RES1   0.0000
    37 C29     -3.8390   1.5612  11.4189   C.ar      1 RES1   0.0000
    38 C30     -1.7972   4.7053  17.1456   C.ar      1 RES1   0.0000
    39 C31      3.0180   3.5486  16.2352   C.ar      1 RES1   0.0000
    40 C32      3.9635   0.0451  10.2360   C.ar      1 RES1   0.0000
    41 C33     -0.8152   4.1771  17.9527   C.ar      1 RES1   0.0000
    42 C34     -4.5225   2.2114  15.5454   C.ar      1 RES1   0.0000
    43 O5       2.1061   6.7311  13.7382   O.3       1 RES1   0.0000
    44 O6       1.0582   7.3713  10.7826   O.3       1 RES1   0.0000
    45 O7      -1.9243   5.6246  11.9018   O.3       1 RES1   0.0000
    46 C35      0.6094   8.4260   8.6737   C.3       1 RES1   0.0000
    47 H1      -0.1452   8.6333   8.1184   H         1 RES1   0.0000
    48 H2       1.2159   7.8594   8.1909   H         1 RES1   0.0000
    49 H3       1.0584   9.2384   8.9203   H         1 RES1   0.0000
    50 C36      3.4965   6.6225  13.6693   C.3       1 RES1   0.0000
    51 H4       3.7975   6.1026  14.4315   H         1 RES1   0.0000
    52 H5       3.8743   7.5117  13.7572   H         1 RES1   0.0000
    53 C37      0.1686   7.7591   9.8377   C.3       1 RES1   0.0000
    54 H6      -0.4781   8.3374  10.2722   H         1 RES1   0.0000
    55 H7      -0.3103   6.9668   9.5497   H         1 RES1   0.0000
    56 C38      4.0284   6.0324  12.4950   C.3       1 RES1   0.0000
    57 H8       4.9866   6.0124  12.5519   H         1 RES1   0.0000
    58 H9       3.7636   6.5473  11.7293   H         1 RES1   0.0000
    59 H10      3.6940   5.1365  12.4070   H         1 RES1   0.0000
    60 C39     -2.8092   6.5255  12.2673   C.3       1 RES1   0.0000
    61 H11     -2.7983   7.2142  11.5828   H         1 RES1   0.0000
    62 H12     -2.4651   6.9367  13.0761   H         1 RES1   0.0000
    63 C40     -4.1492   6.2364  12.5122   C.3       1 RES1   0.0000
    64 H13     -4.6095   7.0404  12.7657   H         1 RES1   0.0000
    65 H14     -4.2127   5.5928  13.2209   H         1 RES1   0.0000
    66 H15     -4.5490   5.8770  11.7155   H         1 RES1   0.0000
    67 H16      2.0717  -0.5850  10.5085   H         1 RES1   0.0000
    68 H17      2.7535   3.9615   9.8756   H         1 RES1   0.0000
    69 H18     -4.8233   2.6911  13.6227   H         1 RES1   0.0000
    70 H19      5.2878   2.3234  12.1397   H         1 RES1   0.0000
    71 H20      5.1920   2.2381  14.2711   H         1 RES1   0.0000
    72 H21      2.9049   4.0283  17.0629   H         1 RES1   0.0000
    73 H22      3.1821   3.1257   7.8115   H         1 RES1   0.0000
    74 H23      4.1633  -0.5516   9.5359   H         1 RES1   0.0000
    75 H24     -4.6223   1.4208  11.8466   H         1 RES1   0.0000
    76 H25     -2.3565   1.8052   8.6565   H         1 RES1   0.0000
    77 H26      5.8419   0.9695  10.3119   H         1 RES1   0.0000
    78 H27     -4.4205   1.3372   9.4669   H         1 RES1   0.0000
    79 H28     -2.6088   4.9811  17.5371   H         1 RES1   0.0000
    80 H29     -0.3642   1.1868   8.1909   H         1 RES1   0.0000
    81 H30     -1.6651   1.0196  16.6404   H         1 RES1   0.0000
    82 H31     -0.9223   4.1620  18.8649   H         1 RES1   0.0000
    83 H32     -3.7811   1.5879  17.3819   H         1 RES1   0.0000
    84 H33      1.6095   1.5712   6.8631   H         1 RES1   0.0000
    85 H34      1.0445   3.4099  17.9509   H         1 RES1   0.0000
    86 H35     -5.3244   2.4571  15.8127   H         1 RES1   0.0000
    87 H36     -2.2541   4.9978  15.2333   H         1 RES1   0.0000
    88 H37      5.0635   3.3263  16.2955   H         1 RES1   0.0000
    89 H38      1.7877   7.6722  13.7434   H         1 RES1   0.0000
    90 H39      1.4618   7.9563  11.0189   H         1 RES1   0.0000
@<TRIPOS>BOND
     1     1     3    1
     2     2     4    1
     3     3    21    1
     4     4     1    1
     5     5     1    1
     6     6     1    1
     7     7     1    1
     8     8     6    1
     9     9     1    1
    10    10     4    1
    11    11     9   ar
    12    12    14    1
    13    13     8   ar
    14    14     9   ar
    15    15    10   ar
    16    16    31   ar
    17    17    10   ar
    18    18    21   ar
    19    19     8   ar
    20    20    14   ar
    21    21    12   ar
    22    22    34   ar
    23    23    20   ar
    24    24    12   ar
    25    25    19   ar
    26    26     7   ar
    27    27    13   ar
    28    28    35   ar
    29    29    15   ar
    30    30    25   ar
    31    31     5    1
    32    32     7   ar
    33    33    16   ar
    34    34    31   ar
    35    35    26   ar
    36    36    24   ar
    37    37    28   ar
    38    38    17   ar
    39    39    11   ar
    40    40    18   ar
    41    41    29   ar
    42    42    22   ar
    43    43     2    1
    44    44     2    1
    45    45     2    1
    46    46    47    1
    47    48    46    1
    48    49    46    1
    49    50    43    1
    50    51    50    1
    51    52    50    1
    52    53    44    1
    53    54    53    1
    54    55    53    1
    55    56    50    1
    56    57    56    1
    57    58    56    1
    58    59    56    1
    59    60    45    1
    60    61    60    1
    61    62    60    1
    62    63    60    1
    63    64    63    1
    64    65    63    1
    65    66    63    1
    66    67    18    1
    67    68    19    1
    68    69    22    1
    69    70    24    1
    70    71    20    1
    71    72    39    1
    72    73    25    1
    73    74    40    1
    74    75    37    1
    75    76    35    1
    76    77    36    1
    77    78    28    1
    78    79    38    1
    79    80    27    1
    80    81    16    1
    81    82    41    1
    82    83    33    1
    83    84    30    1
    84    85    29    1
    85    86    42    1
    86    87    17    1
    87    88    23    1
    88    89    43    1
    89    90    44    1
    90     2     6    1
    91    11    15    1
    92    13    26    1
    93    23    39   ar
    94    27    30   ar
    95    32    34    1
    96    32    37   ar
    97    33    42   ar
    98    36    40   ar
    99    38    41   ar
   100    46    53    1
@<TRIPOS>SUBSTRUCTURE
     1 RES1        1 GROUP             0 ****  ****    0  
@<TRIPOS>CRYSIN
   12.7530   16.7150   17.4930   90.0000   99.6800   90.0000   231     1
