@<TRIPOS>MOLECULE
HAMCUU
    75    74     1     0     0
SMALL
NO_CHARGES
****
Generated from the CSD

@<TRIPOS>ATOM
     1 Bi1      7.1402   6.3072   4.1814   Bi        1 RES1   0.0000
     2 Bi2      9.1283   3.1796   2.7914   Bi        1 RES1   0.0000
     3 Fe1      8.5121   5.6619   1.8273   Fe        1 RES1   0.0000
     4 O1       9.9118   4.8752  -0.6068   O.2       1 RES1   0.0000
     5 O2      10.8239   6.3909   3.4700   O.2       1 RES1   0.0000
     6 O3       7.8862   8.2761   0.8439   O.2       1 RES1   0.0000
     7 O4       5.8944   4.5144   1.3003   O.2       1 RES1   0.0000
     8 C1       9.3706   5.1689   0.3429   C.1       1 RES1   0.0000
     9 C2       9.9517   6.0904   2.8454   C.1       1 RES1   0.0000
    10 C3       8.1191   7.2637   1.2276   C.1       1 RES1   0.0000
    11 C4       6.9081   4.9571   1.5323   C.1       1 RES1   0.0000
    12 C5       5.2445   7.0950   3.1653   C.3       1 RES1   0.0000
    13 H1       5.4766   7.3857   2.2475   H         1 RES1   0.0000
    14 H2       4.5974   6.3509   3.0876   H         1 RES1   0.0000
    15 C6       4.5818   8.2218   3.8601   C.3       1 RES1   0.0000
    16 C7       5.5256   9.3793   3.8486   C.3       1 RES1   0.0000
    17 H3       6.2274   9.2354   4.5166   H         1 RES1   0.0000
    18 H4       5.0357  10.2022   4.0603   H         1 RES1   0.0000
    19 H5       5.9315   9.4607   2.9601   H         1 RES1   0.0000
    20 C8       3.3021   8.6106   3.1195   C.3       1 RES1   0.0000
    21 H6       3.5226   8.8662   2.1990   H         1 RES1   0.0000
    22 H7       2.8777   9.3660   3.5758   H         1 RES1   0.0000
    23 H8       2.6871   7.8471   3.1080   H         1 RES1   0.0000
    24 C9       4.2196   7.8369   5.2866   C.3       1 RES1   0.0000
    25 H9       3.6040   7.0740   5.2726   H         1 RES1   0.0000
    26 H10      3.7881   8.5963   5.7303   H         1 RES1   0.0000
    27 H11      5.0328   7.5911   5.7749   H         1 RES1   0.0000
    28 C10      6.1157   4.4215   4.8022   C.3       1 RES1   0.0000
    29 H12      5.1407   4.5413   4.6773   H         1 RES1   0.0000
    30 H13      6.4059   3.6956   4.1954   H         1 RES1   0.0000
    31 C11      6.3681   3.9644   6.2670   C.3       1 RES1   0.0000
    32 C12      5.8390   4.9550   7.2409   C.3       1 RES1   0.0000
    33 H14      4.8807   5.0859   7.0841   H         1 RES1   0.0000
    34 H15      6.3074   5.8070   7.1275   H         1 RES1   0.0000
    35 H16      5.9785   4.6238   8.1524   H         1 RES1   0.0000
    36 C13      5.6397   2.6830   6.5053   C.3       1 RES1   0.0000
    37 H17      5.8149   2.3721   7.4181   H         1 RES1   0.0000
    38 H18      5.9484   2.0082   5.8654   H         1 RES1   0.0000
    39 H19      4.6771   2.8279   6.3881   H         1 RES1   0.0000
    40 C14      7.8442   3.7610   6.5347   C.3       1 RES1   0.0000
    41 H20      7.9705   3.4651   7.4602   H         1 RES1   0.0000
    42 H21      8.3205   4.6061   6.3944   H         1 RES1   0.0000
    43 H22      8.1966   3.0820   5.9228   H         1 RES1   0.0000
    44 C15     11.3584   3.0860   2.2602   C.3       1 RES1   0.0000
    45 H23     11.7209   2.5257   1.5285   H         1 RES1   0.0000
    46 H24     11.6963   3.9952   2.0639   H         1 RES1   0.0000
    47 C16     12.2787   2.6811   3.4139   C.3       1 RES1   0.0000
    48 C17     12.2429   3.6578   4.5217   C.3       1 RES1   0.0000
    49 H25     11.3381   3.6948   4.8953   H         1 RES1   0.0000
    50 H26     12.4937   4.5428   4.1852   H         1 RES1   0.0000
    51 H27     12.8737   3.3826   5.2191   H         1 RES1   0.0000
    52 C18     13.7390   2.5714   2.8619   C.3       1 RES1   0.0000
    53 H28     14.3364   2.2652   3.5758   H         1 RES1   0.0000
    54 H29     14.0355   3.4502   2.5432   H         1 RES1   0.0000
    55 H30     13.7609   1.9308   2.1200   H         1 RES1   0.0000
    56 C19     11.8725   1.3578   4.0016   C.3       1 RES1   0.0000
    57 H31     12.4929   1.1153   4.7206   H         1 RES1   0.0000
    58 H32     11.8941   0.6697   3.3043   H         1 RES1   0.0000
    59 H33     10.9646   1.4262   4.3649   H         1 RES1   0.0000
    60 C20      8.4675   2.1112   0.9459   C.3       1 RES1   0.0000
    61 H34      7.6645   2.6610   0.7623   H         1 RES1   0.0000
    62 H35      8.8917   1.9765   0.0612   H         1 RES1   0.0000
    63 C21      7.8849   0.7784   1.2264   C.3       1 RES1   0.0000
    64 C22      6.6805   0.8389   2.1251   C.3       1 RES1   0.0000
    65 H36      6.9550   1.1311   3.0200   H         1 RES1   0.0000
    66 H37      6.2718  -0.0493   2.1837   H         1 RES1   0.0000
    67 H38      6.0308   1.4740   1.7592   H         1 RES1   0.0000
    68 C23      7.4818   0.2207  -0.1237   C.3       1 RES1   0.0000
    69 H39      6.7835   0.7855  -0.5150   H         1 RES1   0.0000
    70 H40      7.1405  -0.6908  -0.0115   H         1 RES1   0.0000
    71 H41      8.2620   0.2063  -0.7164   H         1 RES1   0.0000
    72 C24      8.9567  -0.1181   1.8765   C.3       1 RES1   0.0000
    73 H42      9.7162  -0.2148   1.2646   H         1 RES1   0.0000
    74 H43      8.5747  -0.9996   2.0665   H         1 RES1   0.0000
    75 H44      9.2617   0.2924   2.7128   H         1 RES1   0.0000
@<TRIPOS>BOND
     1     1     3    1
     2     2     3    1
     3     3     8    1
     4     4     8    3
     5     5     9    3
     6     6    10    3
     7     7    11    3
     8     9     3    1
     9    10     3    1
    10    11     3    1
    11    12     1    1
    12    13    12    1
    13    14    12    1
    14    15    12    1
    15    16    15    1
    16    17    16    1
    17    18    16    1
    18    19    16    1
    19    20    15    1
    20    21    20    1
    21    22    20    1
    22    23    20    1
    23    24    15    1
    24    25    24    1
    25    26    24    1
    26    27    24    1
    27    28     1    1
    28    29    28    1
    29    30    28    1
    30    31    28    1
    31    32    31    1
    32    33    32    1
    33    34    32    1
    34    35    32    1
    35    36    31    1
    36    37    36    1
    37    38    36    1
    38    39    36    1
    39    40    31    1
    40    41    40    1
    41    42    40    1
    42    43    40    1
    43    44     2    1
    44    45    44    1
    45    46    44    1
    46    47    44    1
    47    48    47    1
    48    49    48    1
    49    50    48    1
    50    51    48    1
    51    52    47    1
    52    53    52    1
    53    54    52    1
    54    55    52    1
    55    56    47    1
    56    57    56    1
    57    58    56    1
    58    59    56    1
    59    60     2    1
    60    61    60    1
    61    62    60    1
    62    63    60    1
    63    64    63    1
    64    65    64    1
    65    66    64    1
    66    67    64    1
    67    68    63    1
    68    69    68    1
    69    70    68    1
    70    71    68    1
    71    72    63    1
    72    73    72    1
    73    74    72    1
    74    75    72    1
@<TRIPOS>SUBSTRUCTURE
     1 RES1        1 GROUP             0 ****  ****    0  
@<TRIPOS>CRYSIN
   10.3790   11.3190   13.6430   75.9200   72.8100   80.8600     2     1
