@<TRIPOS>MOLECULE
HAPDOU
    92   103     2     0     0
SMALL
NO_CHARGES
****
Generated from the CSD

@<TRIPOS>ATOM
     1 Fe1      3.7550   0.1805   3.8253   Fe        1 RES1   0.0000
     2 O1       1.3749  -2.7660   7.3068   O.3       1 RES1   0.0000
     3 O2       0.7146  -4.0665   3.1936   O.3       1 RES1   0.0000
     4 S1       8.1072   2.2198   4.6300   S.2       1 RES1   0.0000
     5 S2       2.3921   3.6546   0.6748   S.2       1 RES1   0.0000
     6 N1       5.1158  -0.9706   2.4032   N.ar      1 RES1   0.0000
     7 N2       2.4515  -1.2125   2.6211   N.ar      1 RES1   0.0000
     8 N3       2.7788   1.6549   5.2535   N.ar      1 RES1   0.0000
     9 N4       3.5931  -0.8400   5.8438   N.ar      1 RES1   0.0000
    10 N5       3.2519   1.5228   2.2699   N.2       1 RES1   0.0000
    11 N6       5.5494   1.1109   4.4292   N.2       1 RES1   0.0000
    12 C1       6.4410  -0.9542   2.3170   C.ar      1 RES1   0.0000
    13 H1       6.9354  -0.6361   3.0633   H         1 RES1   0.0000
    14 C2       7.1553  -1.3815   1.1853   C.ar      1 RES1   0.0000
    15 H2       8.1063  -1.3776   1.1821   H         1 RES1   0.0000
    16 C3       6.4551  -1.8088   0.0813   C.ar      1 RES1   0.0000
    17 H3       6.9191  -2.0840  -0.6992   H         1 RES1   0.0000
    18 C4       5.0591  -1.8342   0.1122   C.ar      1 RES1   0.0000
    19 C5       4.4211  -1.4244   1.3203   C.ar      1 RES1   0.0000
    20 C6       4.2457  -2.2147  -1.0000   C.ar      1 RES1   0.0000
    21 H4       4.6635  -2.5094  -1.8000   H         1 RES1   0.0000
    22 C7       2.8956  -2.1659  -0.9414   C.ar      1 RES1   0.0000
    23 H5       2.3848  -2.3903  -1.7105   H         1 RES1   0.0000
    24 C8       2.2205  -1.7796   0.2699   C.ar      1 RES1   0.0000
    25 C9       2.9949  -1.4596   1.4016   C.ar      1 RES1   0.0000
    26 C10      0.8152  -1.6527   0.3886   C.ar      1 RES1   0.0000
    27 H6       0.2636  -1.7601  -0.3772   H         1 RES1   0.0000
    28 C11      0.2484  -1.3718   1.6065   C.ar      1 RES1   0.0000
    29 C12      1.1282  -1.2904   2.7235   C.ar      1 RES1   0.0000
    30 C13     -1.2144  -1.1571   1.8910   C.3       1 RES1   0.0000
    31 H7      -1.6403  -2.0235   2.1121   H         1 RES1   0.0000
    32 H8      -1.6599  -0.7903   1.0862   H         1 RES1   0.0000
    33 C14     -1.3877  -0.1776   3.0715   C.3       1 RES1   0.0000
    34 H9      -1.0142   0.7064   2.8292   H         1 RES1   0.0000
    35 H10     -2.3506  -0.0644   3.2715   H         1 RES1   0.0000
    36 C15     -0.6730  -0.7200   4.2893   C.ar      1 RES1   0.0000
    37 C16      0.5605  -1.3522   4.0731   C.ar      1 RES1   0.0000
    38 C17     -1.1720  -0.7103   5.5787   C.ar      1 RES1   0.0000
    39 H11     -1.9961  -0.2712   5.7592   H         1 RES1   0.0000
    40 C18     -0.4831  -1.3327   6.6145   C.ar      1 RES1   0.0000
    41 H12     -0.8114  -1.2683   7.5039   H         1 RES1   0.0000
    42 C19      0.6840  -2.0489   6.3592   C.ar      1 RES1   0.0000
    43 C20      1.2084  -2.1093   5.0487   C.ar      1 RES1   0.0000
    44 C21      0.9278  -2.6713   8.6632   C.3       1 RES1   0.0000
    45 H13      1.4985  -3.2235   9.2355   H         1 RES1   0.0000
    46 H14      0.9754  -1.7366   8.9591   H         1 RES1   0.0000
    47 H15      0.0018  -2.9855   8.7250   H         1 RES1   0.0000
    48 C22      2.2998   2.8625   4.9836   C.ar      1 RES1   0.0000
    49 H16      2.0026   3.0460   4.1007   H         1 RES1   0.0000
    50 C23      2.2141   3.8889   5.9527   C.ar      1 RES1   0.0000
    51 H17      1.8793   4.7455   5.7202   H         1 RES1   0.0000
    52 C24      2.6196   3.6255   7.2275   C.ar      1 RES1   0.0000
    53 H18      2.5831   4.3104   7.8844   H         1 RES1   0.0000
    54 C25      3.0885   2.3591   7.5738   C.ar      1 RES1   0.0000
    55 C26      3.1556   1.3991   6.5380   C.ar      1 RES1   0.0000
    56 C27      3.5195   1.9942   8.8990   C.ar      1 RES1   0.0000
    57 H19      3.4293   2.6206   9.6079   H         1 RES1   0.0000
    58 C28      4.0446   0.7864   9.1542   C.ar      1 RES1   0.0000
    59 H20      4.3531   0.5893  10.0306   H         1 RES1   0.0000
    60 C29      4.1496  -0.2166   8.1282   C.ar      1 RES1   0.0000
    61 C30      3.6571   0.0917   6.8340   C.ar      1 RES1   0.0000
    62 C31      4.7510  -1.4674   8.3169   C.ar      1 RES1   0.0000
    63 H21      5.1986  -1.6605   9.1315   H         1 RES1   0.0000
    64 C32      4.6943  -2.4118   7.3315   C.ar      1 RES1   0.0000
    65 C33      3.9608  -2.0781   6.1576   C.ar      1 RES1   0.0000
    66 C34      5.3481  -3.7718   7.3982   C.3       1 RES1   0.0000
    67 H22      4.7516  -4.4021   7.8778   H         1 RES1   0.0000
    68 H23      6.1962  -3.7075   7.9055   H         1 RES1   0.0000
    69 C35      5.6300  -4.3045   6.0031   C.3       1 RES1   0.0000
    70 H24      6.3103  -3.7348   5.5608   H         1 RES1   0.0000
    71 H25      5.9881  -5.2236   6.0616   H         1 RES1   0.0000
    72 C36      4.3635  -4.3045   5.1885   C.ar      1 RES1   0.0000
    73 C37      3.5249  -3.1787   5.2909   C.ar      1 RES1   0.0000
    74 C38      3.9511  -5.3582   4.3885   C.ar      1 RES1   0.0000
    75 H26      4.4925  -6.1349   4.3202   H         1 RES1   0.0000
    76 C39      2.7595  -5.2899   3.6877   C.ar      1 RES1   0.0000
    77 H27      2.5111  -5.9963   3.1040   H         1 RES1   0.0000
    78 C40      1.9218  -4.1836   3.8357   C.ar      1 RES1   0.0000
    79 C41      2.2632  -3.1299   4.6909   C.ar      1 RES1   0.0000
    80 C42      0.3770  -5.0304   2.1983   C.3       1 RES1   0.0000
    81 H28     -0.5068  -4.8236   1.8292   H         1 RES1   0.0000
    82 H29      1.0446  -5.0090   1.4813   H         1 RES1   0.0000
    83 H30      0.3604  -5.9241   2.6016   H         1 RES1   0.0000
    84 C43      6.6086   1.5962   4.5088   C.1       1 RES1   0.0000
    85 C44      2.8708   2.3962   1.6016   C.1       1 RES1   0.0000
    86 N7       5.2446   5.4441   4.1153   N.pl3     2 RES2   0.0000
    87 O3       5.2827   6.6324   3.9788   O.2       2 RES2   0.0000
    88 O4       5.2137   4.8704   5.1413   O.2       2 RES2   0.0000
    89 C45      5.3419   4.6343   2.8520   C.3       2 RES2   0.0000
    90 H31      6.0488   5.0031   2.2812   H         2 RES2   0.0000
    91 H32      4.4866   4.6675   2.3739   H         2 RES2   0.0000
    92 H33      5.5549   3.7035   3.0747   H         2 RES2   0.0000
@<TRIPOS>BOND
     1     1     6    1
     2     2    42    1
     3     3    78    1
     4     4    84    2
     5     5    85    2
     6     6    12   ar
     7     7     1    1
     8     8     1    1
     9     9     1    1
    10    10     1    1
    11    11     1    1
    12    12    13    1
    13    14    12   ar
    14    15    14    1
    15    16    14   ar
    16    17    16    1
    17    18    16   ar
    18    19     6   ar
    19    20    18   ar
    20    21    20    1
    21    22    20   ar
    22    23    22    1
    23    24    22   ar
    24    25     7   ar
    25    26    24   ar
    26    27    26    1
    27    28    26   ar
    28    29     7   ar
    29    30    28    1
    30    31    30    1
    31    32    30    1
    32    33    30    1
    33    34    33    1
    34    35    33    1
    35    36    33    1
    36    37    29    1
    37    38    36   ar
    38    39    38    1
    39    40    38   ar
    40    41    40    1
    41    42    40   ar
    42    43    37   ar
    43    44     2    1
    44    45    44    1
    45    46    44    1
    46    47    44    1
    47    48     8   ar
    48    49    48    1
    49    50    48   ar
    50    51    50    1
    51    52    50   ar
    52    53    52    1
    53    54    52   ar
    54    55     8   ar
    55    56    54   ar
    56    57    56    1
    57    58    56   ar
    58    59    58    1
    59    60    58   ar
    60    61     9   ar
    61    62    60   ar
    62    63    62    1
    63    64    62   ar
    64    65     9   ar
    65    66    64    1
    66    67    66    1
    67    68    66    1
    68    69    66    1
    69    70    69    1
    70    71    69    1
    71    72    69    1
    72    73    65    1
    73    74    72   ar
    74    75    74    1
    75    76    74   ar
    76    77    76    1
    77    78    76   ar
    78    79    43    1
    79    80     3    1
    80    81    80    1
    81    82    80    1
    82    83    80    1
    83    84    11    2
    84    85    10    2
    85    18    19   ar
    86    19    25   ar
    87    24    25   ar
    88    28    29   ar
    89    36    37   ar
    90    42    43   ar
    91    54    55   ar
    92    55    61   ar
    93    60    61   ar
    94    64    65   ar
    95    72    73   ar
    96    73    79   ar
    97    78    79   ar
    98    86    87    2
    99    88    86    2
   100    89    86    1
   101    90    89    1
   102    91    89    1
   103    92    89    1
@<TRIPOS>SUBSTRUCTURE
     1 RES1        1 GROUP             0 ****  ****    0  
     2 RES2       86 GROUP             0 ****  ****    0  
@<TRIPOS>CRYSIN
   12.3338   19.5129   16.2697   90.0000   92.0040   90.0000    14     2
