@<TRIPOS>MOLECULE
HAQFEO02
    83    90     3     0     0
SMALL
USER_CHARGES
****
Generated from the CSD

@<TRIPOS>ATOM
     1 Fe1      0.5313   4.3750   7.3329   Fe        1 RES1   2.0000
     2 N1       0.7495   2.5134   6.9597   N.ar      1 RES1   0.0000
     3 C1      -0.3202   1.7428   6.7359   C.ar      1 RES1   0.0000
     4 C2      -0.2160   0.3990   6.4341   C.ar      1 RES1   0.0000
     5 H1      -0.9869  -0.1378   6.2912   H         1 RES1   0.0000
     6 C3       1.0674  -0.1345   6.3501   C.ar      1 RES1   0.0000
     7 C4       2.1965   0.6731   6.5492   C.ar      1 RES1   0.0000
     8 H2       3.0770   0.3236   6.4755   H         1 RES1   0.0000
     9 C5       1.9704   1.9895   6.8525   C.ar      1 RES1   0.0000
    10 N2      -1.4926   2.4833   6.8475   N.pl3     1 RES1   0.0000
    11 N3      -1.3620   3.8112   7.2133   N.2       1 RES1   0.0000
    12 C6      -2.5848   4.3055   7.2025   C.2       1 RES1   0.0000
    13 H3      -2.8083   5.2029   7.4199   H         1 RES1   0.0000
    14 C7      -3.5144   3.3135   6.8230   C.2       1 RES1   0.0000
    15 H4      -4.4547   3.4151   6.7375   H         1 RES1   0.0000
    16 C8      -2.7913   2.1848   6.6067   C.2       1 RES1   0.0000
    17 H5      -3.1342   1.3409   6.3366   H         1 RES1   0.0000
    18 N4       2.9569   2.9633   7.0565   N.pl3     1 RES1   0.0000
    19 N5       2.5223   4.2438   7.3100   N.2       1 RES1   0.0000
    20 C9       3.6135   4.9669   7.4717   C.2       1 RES1   0.0000
    21 H6       3.6286   5.8954   7.6688   H         1 RES1   0.0000
    22 C10      4.7540   4.1561   7.3083   C.2       1 RES1   0.0000
    23 H7       5.6601   4.4354   7.3725   H         1 RES1   0.0000
    24 C11      4.3086   2.9014   7.0423   C.2       1 RES1   0.0000
    25 H8       4.8415   2.1314   6.8780   H         1 RES1   0.0000
    26 S1       1.4403  -1.8275   6.0039   S.3       1 RES1   0.0000
    27 S2      -0.2966  -2.6454   5.3476   S.3       1 RES1   0.0000
    28 C12     -0.4066  -1.9825   3.6230   C.3       1 RES1   0.0000
    29 H9      -0.5065  -0.9898   3.6823   H         1 RES1   0.0000
    30 C13     -1.6698  -2.5365   3.0521   C.3       1 RES1   0.0000
    31 H10     -1.7879  -2.2054   2.1371   H         1 RES1   0.0000
    32 H11     -2.4293  -2.2526   3.6025   H         1 RES1   0.0000
    33 H12     -1.6224  -3.5155   3.0412   H         1 RES1   0.0000
    34 C14      0.8162  -2.2721   2.8095   C.3       1 RES1   0.0000
    35 H13      0.9805  -3.2375   2.7999   H         1 RES1   0.0000
    36 H14      1.5863  -1.8126   3.2045   H         1 RES1   0.0000
    37 H15      0.6803  -1.9536   1.8929   H         1 RES1   0.0000
    38 N6       0.2956   6.2386   7.6330   N.ar      1 RES1   0.0000
    39 C15      0.2852   6.7317   8.8764   C.ar      1 RES1   0.0000
    40 C16      0.1347   8.0808   9.1393   C.ar      1 RES1   0.0000
    41 H16      0.1361   8.4207  10.0266   H         1 RES1   0.0000
    42 C17     -0.0188   8.9250   8.0224   C.ar      1 RES1   0.0000
    43 C18     -0.0390   8.4265   6.7374   C.ar      1 RES1   0.0000
    44 H17     -0.1651   8.9940   5.9866   H         1 RES1   0.0000
    45 C19      0.1315   7.0755   6.5943   C.ar      1 RES1   0.0000
    46 N7       0.4144   5.7035   9.8102   N.pl3     1 RES1   0.0000
    47 N8       0.5437   4.4200   9.3117   N.2       1 RES1   0.0000
    48 C20      0.7179   3.6475  10.3698   C.2       1 RES1   0.0000
    49 H18      0.8363   2.7054  10.3385   H         1 RES1   0.0000
    50 C21      0.7018   4.4148  11.5458   C.2       1 RES1   0.0000
    51 H19      0.8043   4.0957  12.4346   H         1 RES1   0.0000
    52 C22      0.5110   5.7062  11.1632   C.2       1 RES1   0.0000
    53 H20      0.4552   6.4639  11.7336   H         1 RES1   0.0000
    54 N9       0.1532   6.3705   5.3856   N.pl3     1 RES1   0.0000
    55 N10      0.4174   5.0256   5.4606   N.2       1 RES1   0.0000
    56 C23      0.3749   4.5827   4.2157   C.2       1 RES1   0.0000
    57 H21      0.5173   3.6790   3.9588   H         1 RES1   0.0000
    58 C24      0.0884   5.6309   3.3259   C.2       1 RES1   0.0000
    59 H22      0.0040   5.5716   2.3812   H         1 RES1   0.0000
    60 C25     -0.0447   6.7467   4.0913   C.2       1 RES1   0.0000
    61 H23     -0.2378   7.6238   3.7815   H         1 RES1   0.0000
    62 S3      -0.1931  10.6534   8.3887   S.3       1 RES1   0.0000
    63 S4      -0.6700  11.5183   6.6084   S.3       1 RES1   0.0000
    64 C26      0.9545  11.8584   5.8025   C.3       1 RES1   0.0000
    65 H24      1.4944  11.0183   5.7700   H         1 RES1   0.0000
    66 C27      0.6020  12.2908   4.3962   C.3       1 RES1   0.0000
    67 H25      0.0130  13.0735   4.4315   H         1 RES1   0.0000
    68 H26      0.1453  11.5584   3.9332   H         1 RES1   0.0000
    69 H27      1.4223  12.5227   3.9104   H         1 RES1   0.0000
    70 C28      1.7133  12.9143   6.5523   C.3       1 RES1   0.0000
    71 H28      2.5682  13.0831   6.1033   H         1 RES1   0.0000
    72 H29      1.8812  12.6080   7.4684   H         1 RES1   0.0000
    73 H30      1.1880  13.7411   6.5757   H         1 RES1   0.0000
    74 Cl1      1.9480  -0.1228  10.3916   Cl        2 RES2   0.0000
    75 O1       3.1743   0.2008   9.7289   O.2       2 RES2   0.0000
    76 O2       0.8496   0.4401   9.6500   O.3       2 RES2  -1.0000
    77 O3       1.7900  -1.5447  10.4585   O.2       2 RES2   0.0000
    78 O4       1.9722   0.4334  11.7002   O.2       2 RES2   0.0000
    79 Cl2      3.4116   8.1565  10.4211   Cl        3 RES3   0.0000
    80 O5       3.2468   6.8587   9.8424   O.2       3 RES3   0.0000
    81 O6       3.2448   9.1558   9.4131   O.2       3 RES3   0.0000
    82 O7       4.7085   8.2518  11.0309   O.3       3 RES3  -1.0000
    83 O8       2.4148   8.3391  11.4245   O.2       3 RES3   0.0000
@<TRIPOS>BOND
     1     1     2    1
     2     2     3   ar
     3     3     4   ar
     4     4     5    1
     5     6     4   ar
     6     7     6   ar
     7     8     7    1
     8     9     2   ar
     9    10     3    1
    10    11     1    1
    11    12    11    2
    12    13    12    1
    13    14    12    1
    14    15    14    1
    15    16    10    1
    16    17    16    1
    17    18     9    1
    18    19     1    1
    19    20    19    2
    20    21    20    1
    21    22    20    1
    22    23    22    1
    23    24    18    1
    24    25    24    1
    25    26     6    1
    26    27    26    1
    27    28    27    1
    28    29    28    1
    29    30    28    1
    30    31    30    1
    31    32    30    1
    32    33    30    1
    33    34    28    1
    34    35    34    1
    35    36    34    1
    36    37    34    1
    37    38     1    1
    38    39    38   ar
    39    40    39   ar
    40    41    40    1
    41    42    40   ar
    42    43    42   ar
    43    44    43    1
    44    45    38   ar
    45    46    39    1
    46    47     1    1
    47    48    47    2
    48    49    48    1
    49    50    48    1
    50    51    50    1
    51    52    46    1
    52    53    52    1
    53    54    45    1
    54    55     1    1
    55    56    55    2
    56    57    56    1
    57    58    56    1
    58    59    58    1
    59    60    54    1
    60    61    60    1
    61    62    42    1
    62    63    62    1
    63    64    63    1
    64    65    64    1
    65    66    64    1
    66    67    66    1
    67    68    66    1
    68    69    66    1
    69    70    64    1
    70    71    70    1
    71    72    70    1
    72    73    70    1
    73     7     9   ar
    74    10    11    1
    75    14    16    2
    76    18    19    1
    77    22    24    2
    78    43    45   ar
    79    46    47    1
    80    50    52    2
    81    54    55    1
    82    58    60    2
    83    74    75    2
    84    76    74    1
    85    77    74    2
    86    78    74    2
    87    79    80    2
    88    81    79    2
    89    82    79    1
    90    83    79    2
@<TRIPOS>SUBSTRUCTURE
     1 RES1        1 GROUP             0 ****  ****    0  
     2 RES2       74 GROUP             0 ****  ****    0  
     3 RES3       79 GROUP             0 ****  ****    0  
@<TRIPOS>CRYSIN
   12.4030   19.3039   16.0229   90.0000  103.8620   90.0000   231     1
