@<TRIPOS>MOLECULE
HAQHIU01
    83    90     3     0     0
SMALL
USER_CHARGES
****
Generated from the CSD

@<TRIPOS>ATOM
     1 Fe1      6.6489   4.2745   7.3380   Fe        1 RES1   2.0000
     2 N1       6.8894   2.4224   6.9619   N.ar      1 RES1   0.0000
     3 C1       5.8221   1.6407   6.7193   C.ar      1 RES1   0.0000
     4 C2       5.9495   0.3129   6.3854   C.ar      1 RES1   0.0000
     5 H1       5.1866  -0.2306   6.2280   H         1 RES1   0.0000
     6 C3       7.2325  -0.2060   6.2895   C.ar      1 RES1   0.0000
     7 C4       8.3544   0.6010   6.4998   C.ar      1 RES1   0.0000
     8 H2       9.2382   0.2635   6.4137   H         1 RES1   0.0000
     9 C5       8.1084   1.9155   6.8367   C.ar      1 RES1   0.0000
    10 N2       4.6366   2.3703   6.8429   N.pl3     1 RES1   0.0000
    11 N3       4.7624   3.6951   7.2355   N.2       1 RES1   0.0000
    12 C6       3.5347   4.1743   7.2263   C.2       1 RES1   0.0000
    13 H3       3.3043   5.0658   7.4590   H         1 RES1   0.0000
    14 C7       2.6056   3.1880   6.8259   C.2       1 RES1   0.0000
    15 H4       1.6650   3.2868   6.7421   H         1 RES1   0.0000
    16 C8       3.3468   2.0604   6.5817   C.2       1 RES1   0.0000
    17 H5       3.0159   1.2209   6.2871   H         1 RES1   0.0000
    18 N4       9.0870   2.8959   7.0408   N.pl3     1 RES1   0.0000
    19 N5       8.6330   4.1707   7.3051   N.2       1 RES1   0.0000
    20 C9       9.7222   4.9069   7.4535   C.2       1 RES1   0.0000
    21 H6       9.7260   5.8364   7.6525   H         1 RES1   0.0000
    22 C10     10.8828   4.1152   7.2711   C.2       1 RES1   0.0000
    23 H7      11.7864   4.4051   7.3254   H         1 RES1   0.0000
    24 C11     10.4406   2.8541   7.0021   C.2       1 RES1   0.0000
    25 H8      10.9777   2.0919   6.8237   H         1 RES1   0.0000
    26 S1       7.6223  -1.8830   5.8818   S.3       1 RES1   0.0000
    27 S2       5.9001  -2.6734   5.1619   S.3       1 RES1   0.0000
    28 C12      5.7909  -1.9135   3.4872   C.3       1 RES1   0.0000
    29 H9       5.6447  -0.9307   3.6067   H         1 RES1   0.0000
    30 C13      4.5516  -2.4897   2.8549   C.3       1 RES1   0.0000
    31 H10      4.4194  -2.0871   1.9705   H         1 RES1   0.0000
    32 H11      3.7759  -2.2972   3.4206   H         1 RES1   0.0000
    33 H12      4.6551  -3.4595   2.7593   H         1 RES1   0.0000
    34 C14      7.0475  -2.0967   2.6586   C.3       1 RES1   0.0000
    35 H13      7.2439  -3.0536   2.5719   H         1 RES1   0.0000
    36 H14      7.7988  -1.6487   3.1004   H         1 RES1   0.0000
    37 H15      6.9124  -1.7093   1.7693   H         1 RES1   0.0000
    38 N6       6.4156   6.1487   7.6220   N.ar      1 RES1   0.0000
    39 C15      6.4331   6.6488   8.8601   C.ar      1 RES1   0.0000
    40 C16      6.3028   7.9976   9.1059   C.ar      1 RES1   0.0000
    41 H16      6.3296   8.3432   9.9909   H         1 RES1   0.0000
    42 C17      6.1299   8.8351   8.0053   C.ar      1 RES1   0.0000
    43 C18      6.0800   8.3257   6.7038   C.ar      1 RES1   0.0000
    44 H17      5.9469   8.8862   5.9482   H         1 RES1   0.0000
    45 C19      6.2372   6.9559   6.5786   C.ar      1 RES1   0.0000
    46 N7       6.5671   5.6244   9.8092   N.pl3     1 RES1   0.0000
    47 N8       6.6793   4.3369   9.3223   N.2       1 RES1   0.0000
    48 C20      6.8151   3.5714  10.3842   C.2       1 RES1   0.0000
    49 H18      6.9074   2.6266  10.3615   H         1 RES1   0.0000
    50 C21      6.8023   4.3441  11.5558   C.2       1 RES1   0.0000
    51 H19      6.8818   4.0272  12.4477   H         1 RES1   0.0000
    52 C22      6.6515   5.6452  11.1555   C.2       1 RES1   0.0000
    53 H20      6.6145   6.4109  11.7159   H         1 RES1   0.0000
    54 N9       6.2429   6.2424   5.3807   N.pl3     1 RES1   0.0000
    55 N10      6.4969   4.8970   5.4610   N.2       1 RES1   0.0000
    56 C23      6.4462   4.4395   4.2276   C.2       1 RES1   0.0000
    57 H21      6.5970   3.5351   3.9767   H         1 RES1   0.0000
    58 C24      6.1349   5.4869   3.3310   C.2       1 RES1   0.0000
    59 H22      6.0268   5.4189   2.3889   H         1 RES1   0.0000
    60 C25      6.0225   6.6106   4.0884   C.2       1 RES1   0.0000
    61 H23      5.8268   7.4853   3.7753   H         1 RES1   0.0000
    62 S3       5.9778  10.5644   8.3494   S.3       1 RES1   0.0000
    63 S4       5.4760  11.4013   6.5634   S.3       1 RES1   0.0000
    64 C26      7.0883  11.6988   5.7269   C.3       1 RES1   0.0000
    65 H24      7.6033  10.8420   5.6962   H         1 RES1   0.0000
    66 C27      6.7343  12.1127   4.3141   C.3       1 RES1   0.0000
    67 H25      6.1946  12.9300   4.3392   H         1 RES1   0.0000
    68 H26      6.2239  11.3966   3.8823   H         1 RES1   0.0000
    69 H27      7.5566  12.2795   3.8074   H         1 RES1   0.0000
    70 C28      7.9103  12.7442   6.4488   C.3       1 RES1   0.0000
    71 H28      8.7984  12.8006   6.0397   H         1 RES1   0.0000
    72 H29      7.9999  12.4934   7.3921   H         1 RES1   0.0000
    73 H30      7.4632  13.6133   6.3828   H         1 RES1   0.0000
    74 B1       8.1117  -0.1068  10.2976   B         2 RES2  -1.0000
    75 F1       9.2809   0.1851   9.6206   F         2 RES2   0.0000
    76 F2       7.0295   0.4581   9.6057   F         2 RES2   0.0000
    77 F3       7.9266  -1.4902  10.3517   F         2 RES2   0.0000
    78 F4       8.1676   0.4102  11.5699   F         2 RES2   0.0000
    79 B2       9.4859   8.0644  10.3703   B         3 RES3  -1.0000
    80 F5       9.3454   6.7905   9.7926   F         3 RES3   0.0000
    81 F6       9.2996   9.0244   9.3995   F         3 RES3   0.0000
    82 F7      10.7693   8.1655  10.9276   F         3 RES3   0.0000
    83 F8       8.5408   8.2086  11.3799   F         3 RES3   0.0000
@<TRIPOS>BOND
     1     1     2    1
     2     2     3   ar
     3     3     4   ar
     4     4     5    1
     5     6     4   ar
     6     7     6   ar
     7     8     7    1
     8     9     2   ar
     9    10     3    1
    10    11     1    1
    11    12    11    2
    12    13    12    1
    13    14    12    1
    14    15    14    1
    15    16    10    1
    16    17    16    1
    17    18     9    1
    18    19     1    1
    19    20    19    2
    20    21    20    1
    21    22    20    1
    22    23    22    1
    23    24    18    1
    24    25    24    1
    25    26     6    1
    26    27    26    1
    27    28    27    1
    28    29    28    1
    29    30    28    1
    30    31    30    1
    31    32    30    1
    32    33    30    1
    33    34    28    1
    34    35    34    1
    35    36    34    1
    36    37    34    1
    37    38     1    1
    38    39    38   ar
    39    40    39   ar
    40    41    40    1
    41    42    40   ar
    42    43    42   ar
    43    44    43    1
    44    45    38   ar
    45    46    39    1
    46    47     1    1
    47    48    47    2
    48    49    48    1
    49    50    48    1
    50    51    50    1
    51    52    46    1
    52    53    52    1
    53    54    45    1
    54    55     1    1
    55    56    55    2
    56    57    56    1
    57    58    56    1
    58    59    58    1
    59    60    54    1
    60    61    60    1
    61    62    42    1
    62    63    62    1
    63    64    63    1
    64    65    64    1
    65    66    64    1
    66    67    66    1
    67    68    66    1
    68    69    66    1
    69    70    64    1
    70    71    70    1
    71    72    70    1
    72    73    70    1
    73     7     9   ar
    74    10    11    1
    75    14    16    2
    76    18    19    1
    77    22    24    2
    78    43    45   ar
    79    46    47    1
    80    50    52    2
    81    54    55    1
    82    58    60    2
    83    74    75    1
    84    76    74    1
    85    77    74    1
    86    78    74    1
    87    79    80    1
    88    81    79    1
    89    82    79    1
    90    83    79    1
@<TRIPOS>SUBSTRUCTURE
     1 RES1        1 GROUP             0 ****  ****    0  
     2 RES2       74 GROUP             0 ****  ****    0  
     3 RES3       79 GROUP             0 ****  ****    0  
@<TRIPOS>CRYSIN
   12.2754   19.0782   15.9164   90.0000  103.7960   90.0000   231     1
