@<TRIPOS>MOLECULE
HAQHIU
    83    90     3     0     0
SMALL
USER_CHARGES
****
Generated from the CSD

@<TRIPOS>ATOM
     1 Fe1      0.9590   4.0363   7.7961   Fe        1 RES1   2.0000
     2 N1       1.2327   2.0976   6.9673   N.ar      1 RES1   0.0000
     3 C1       0.1891   1.3295   6.6632   C.ar      1 RES1   0.0000
     4 C2       0.3023   0.0537   6.1454   C.ar      1 RES1   0.0000
     5 H1      -0.4627  -0.4615   5.9171   H         1 RES1   0.0000
     6 C3       1.5965  -0.4409   5.9745   C.ar      1 RES1   0.0000
     7 C4       2.7061   0.3357   6.3071   C.ar      1 RES1   0.0000
     8 H2       3.5918   0.0080   6.2023   H         1 RES1   0.0000
     9 C5       2.4571   1.6026   6.7960   C.ar      1 RES1   0.0000
    10 N2      -1.0449   1.9512   6.9407   N.pl3     1 RES1   0.0000
    11 N3      -1.0306   3.1579   7.5974   N.2       1 RES1   0.0000
    12 C6      -2.3055   3.4973   7.7086   C.2       1 RES1   0.0000
    13 H3      -2.6130   4.2939   8.1253   H         1 RES1   0.0000
    14 C7      -3.1481   2.5314   7.1326   C.2       1 RES1   0.0000
    15 H4      -4.0969   2.5498   7.0893   H         1 RES1   0.0000
    16 C8      -2.3181   1.5588   6.6477   C.2       1 RES1   0.0000
    17 H5      -2.5775   0.7650   6.1950   H         1 RES1   0.0000
    18 N4       3.4707   2.5080   7.1401   N.pl3     1 RES1   0.0000
    19 N5       3.1150   3.7248   7.6536   N.2       1 RES1   0.0000
    20 C9       4.2581   4.3482   7.8899   C.2       1 RES1   0.0000
    21 H6       4.3271   5.2246   8.2499   H         1 RES1   0.0000
    22 C10      5.3579   3.5434   7.5384   C.2       1 RES1   0.0000
    23 H7       6.2793   3.7614   7.6153   H         1 RES1   0.0000
    24 C11      4.8187   2.3825   7.0636   C.2       1 RES1   0.0000
    25 H8       5.2979   1.6287   6.7405   H         1 RES1   0.0000
    26 S1       1.9605  -2.0478   5.3424   S.3       1 RES1   0.0000
    27 S2       0.2109  -2.7594   4.6015   S.3       1 RES1   0.0000
    28 C12      0.0692  -1.8915   2.9917   C.3       1 RES1   0.0000
    29 H9      -0.0116  -0.9123   3.1780   H         1 RES1   0.0000
    30 C13     -1.2475  -2.3625   2.3896   C.3       1 RES1   0.0000
    31 H10     -1.3723  -1.9439   1.5118   H         1 RES1   0.0000
    32 H11     -1.9860  -2.1074   2.9808   H         1 RES1   0.0000
    33 H12     -1.2301  -3.3362   2.2880   H         1 RES1   0.0000
    34 C14      1.2533  -2.0911   2.0712   C.3       1 RES1   0.0000
    35 H13      1.3960  -3.0501   1.9256   H         1 RES1   0.0000
    36 H14      2.0542  -1.7005   2.4792   H         1 RES1   0.0000
    37 H15      1.0774  -1.6533   1.2124   H         1 RES1   0.0000
    38 N6       0.6000   6.1294   8.0621   N.ar      1 RES1   0.0000
    39 C15      0.6999   6.6839   9.2745   C.ar      1 RES1   0.0000
    40 C16      0.6247   8.0441   9.4968   C.ar      1 RES1   0.0000
    41 H16      0.7230   8.4128  10.3667   H         1 RES1   0.0000
    42 C17      0.3965   8.8540   8.3778   C.ar      1 RES1   0.0000
    43 C18      0.2530   8.2993   7.1150   C.ar      1 RES1   0.0000
    44 H17      0.0830   8.8366   6.3503   H         1 RES1   0.0000
    45 C19      0.3700   6.9258   7.0253   C.ar      1 RES1   0.0000
    46 N7       0.8656   5.7249  10.2882   N.pl3     1 RES1   0.0000
    47 N8       0.9883   4.4094   9.9236   N.2       1 RES1   0.0000
    48 C20      1.1437   3.7441  11.0657   C.2       1 RES1   0.0000
    49 H18      1.2537   2.8025  11.1289   H         1 RES1   0.0000
    50 C21      1.1221   4.6136  12.1602   C.2       1 RES1   0.0000
    51 H19      1.2112   4.3847  13.0779   H         1 RES1   0.0000
    52 C22      0.9443   5.8658  11.6314   C.2       1 RES1   0.0000
    53 H20      0.8879   6.6803  12.1172   H         1 RES1   0.0000
    54 N9       0.2631   6.2277   5.8077   N.pl3     1 RES1   0.0000
    55 N10      0.6042   4.9062   5.7969   N.2       1 RES1   0.0000
    56 C23      0.3774   4.5024   4.5509   C.2       1 RES1   0.0000
    57 H21      0.5259   3.6180   4.2374   H         1 RES1   0.0000
    58 C24     -0.1086   5.5547   3.7593   C.2       1 RES1   0.0000
    59 H22     -0.3461   5.5187   2.8401   H         1 RES1   0.0000
    60 C25     -0.1710   6.6438   4.5878   C.2       1 RES1   0.0000
    61 H23     -0.4600   7.5184   4.3556   H         1 RES1   0.0000
    62 S3       0.3277  10.6062   8.6616   S.3       1 RES1   0.0000
    63 S4      -0.2078  11.3945   6.8642   S.3       1 RES1   0.0000
    64 C26      1.3782  11.5682   5.9316   C.3       1 RES1   0.0000
    65 H24      1.8932  10.7142   6.0048   H         1 RES1   0.0000
    66 C27      0.9808  11.7839   4.4763   C.3       1 RES1   0.0000
    67 H25      0.4497  12.6040   4.4008   H         1 RES1   0.0000
    68 H26      0.4496  11.0209   4.1662   H         1 RES1   0.0000
    69 H27      1.7876  11.8653   3.9261   H         1 RES1   0.0000
    70 C28      2.2210  12.7010   6.4844   C.3       1 RES1   0.0000
    71 H28      3.0806  12.7277   6.0149   H         1 RES1   0.0000
    72 H29      2.3756  12.5560   7.4413   H         1 RES1   0.0000
    73 H30      1.7511  13.5511   6.3547   H         1 RES1   0.0000
    74 B1       2.4849   0.2091  10.2903   B         2 RES2  -1.0000
    75 F1       3.6952   0.6200   9.7196   F         2 RES2   0.0000
    76 F2       1.4283   0.8274   9.6294   F         2 RES2   0.0000
    77 F3       2.3663  -1.1711  10.1632   F         2 RES2   0.0000
    78 F4       2.4533   0.5676  11.6296   F         2 RES2   0.0000
    79 B2       4.0200   7.7803  10.4573   B         3 RES3  -1.0000
    80 F5       3.7267   6.4594  10.1326   F         3 RES3   0.0000
    81 F6       3.9376   8.5582   9.3223   F         3 RES3   0.0000
    82 F7       5.3081   7.8427  11.0018   F         3 RES3   0.0000
    83 F8       3.1181   8.2360  11.4083   F         3 RES3   0.0000
@<TRIPOS>BOND
     1     1     2    1
     2     2     3   ar
     3     3     4   ar
     4     4     5    1
     5     6     4   ar
     6     7     6   ar
     7     8     7    1
     8     9     2   ar
     9    10     3    1
    10    11     1    1
    11    12    11    2
    12    13    12    1
    13    14    12    1
    14    15    14    1
    15    16    10    1
    16    17    16    1
    17    18     9    1
    18    19     1    1
    19    20    19    2
    20    21    20    1
    21    22    20    1
    22    23    22    1
    23    24    18    1
    24    25    24    1
    25    26     6    1
    26    27    26    1
    27    28    27    1
    28    29    28    1
    29    30    28    1
    30    31    30    1
    31    32    30    1
    32    33    30    1
    33    34    28    1
    34    35    34    1
    35    36    34    1
    36    37    34    1
    37    38     1    1
    38    39    38   ar
    39    40    39   ar
    40    41    40    1
    41    42    40   ar
    42    43    42   ar
    43    44    43    1
    44    45    38   ar
    45    46    39    1
    46    47     1    1
    47    48    47    2
    48    49    48    1
    49    50    48    1
    50    51    50    1
    51    52    46    1
    52    53    52    1
    53    54    45    1
    54    55     1    1
    55    56    55    2
    56    57    56    1
    57    58    56    1
    58    59    58    1
    59    60    54    1
    60    61    60    1
    61    62    42    1
    62    63    62    1
    63    64    63    1
    64    65    64    1
    65    66    64    1
    66    67    66    1
    67    68    66    1
    68    69    66    1
    69    70    64    1
    70    71    70    1
    71    72    70    1
    72    73    70    1
    73     7     9   ar
    74    10    11    1
    75    14    16    2
    76    18    19    1
    77    22    24    2
    78    43    45   ar
    79    46    47    1
    80    50    52    2
    81    54    55    1
    82    58    60    2
    83    74    75    1
    84    76    74    1
    85    77    74    1
    86    78    74    1
    87    79    80    1
    88    81    79    1
    89    82    79    1
    90    83    79    1
@<TRIPOS>SUBSTRUCTURE
     1 RES1        1 GROUP             0 ****  ****    0  
     2 RES2       74 GROUP             0 ****  ****    0  
     3 RES3       79 GROUP             0 ****  ****    0  
@<TRIPOS>CRYSIN
   12.5878   18.7203   15.8938   90.0000  100.8847   90.0000   231     1
