@<TRIPOS>MOLECULE
HAQRAW
    93    99     4     0     0
SMALL
USER_CHARGES
****
Generated from the CSD

@<TRIPOS>ATOM
     1 Fe1      2.4845   8.4195   4.3208   Fe        1 RES1   2.0000
     2 N1       2.3662   7.9329   6.1568   N.ar      1 RES1   0.0000
     3 C1       2.3192   8.8804   7.1020   C.ar      1 RES1   0.0000
     4 C2       2.1181   8.6065   8.4358   C.ar      1 RES1   0.0000
     5 H1       2.0860   9.2961   9.0885   H         1 RES1   0.0000
     6 C3       1.9648   7.2585   8.7806   C.ar      1 RES1   0.0000
     7 C4       2.0454   6.2486   7.8132   C.ar      1 RES1   0.0000
     8 H2       1.9712   5.3303   8.0451   H         1 RES1   0.0000
     9 C5       2.2370   6.6481   6.5172   C.ar      1 RES1   0.0000
    10 N2       2.5174  10.1539   6.5386   N.pl3     1 RES1   0.0000
    11 N3       2.6724  10.1963   5.1652   N.2       1 RES1   0.0000
    12 C6       2.9474  11.4612   4.8850   C.2       1 RES1   0.0000
    13 H3       3.0928  11.8004   4.0098   H         1 RES1   0.0000
    14 C7       2.9932  12.2350   6.0596   C.2       1 RES1   0.0000
    15 H4       3.1823  13.1638   6.1234   H         1 RES1   0.0000
    16 C8       2.7128  11.3833   7.0886   C.2       1 RES1   0.0000
    17 H5       2.6638  11.6057   8.0108   H         1 RES1   0.0000
    18 N4       2.3223   5.8141   5.3931   N.pl3     1 RES1   0.0000
    19 N5       2.3924   6.4317   4.1592   N.2       1 RES1   0.0000
    20 C9       2.6152   5.4564   3.2953   C.2       1 RES1   0.0000
    21 H6       2.7064   5.5780   2.3574   H         1 RES1   0.0000
    22 C10      2.7009   4.2190   3.9476   C.2       1 RES1   0.0000
    23 H7       2.8564   3.3724   3.5455   H         1 RES1   0.0000
    24 C11      2.5164   4.4732   5.2771   C.2       1 RES1   0.0000
    25 H8       2.5218   3.8373   5.9828   H         1 RES1   0.0000
    26 S1       1.6736   6.6908  10.4336   S.3       1 RES1   0.0000
    27 S2       1.6281   8.3709  11.5629   S.3       1 RES1   0.0000
    28 C12     -0.1590   8.7918  11.6452   C.3       1 RES1   0.0000
    29 H9      -0.2304   9.6260  12.1921   H         1 RES1   0.0000
    30 C13     -0.7397   9.1184  10.2830   C.3       1 RES1   0.0000
    31 H10     -0.7266   8.3157   9.7211   H         1 RES1   0.0000
    32 H11     -0.2049   9.8222   9.8601   H         1 RES1   0.0000
    33 H12     -1.6637   9.4287  10.3874   H         1 RES1   0.0000
    34 C14     -0.9596   7.7269  12.3758   C.3       1 RES1   0.0000
    35 H13     -1.8902   8.0198  12.4628   H         1 RES1   0.0000
    36 H14     -0.5765   7.5851  13.2668   H         1 RES1   0.0000
    37 H15     -0.9262   6.8887  11.8690   H         1 RES1   0.0000
    38 N6       2.4989   9.0249   2.5126   N.ar      1 RES1   0.0000
    39 C15      3.6634   9.2316   1.8868   C.ar      1 RES1   0.0000
    40 C16      3.7437   9.7975   0.6334   C.ar      1 RES1   0.0000
    41 H16      4.5796   9.9524   0.2106   H         1 RES1   0.0000
    42 C17      2.5391  10.1324   0.0136   C.ar      1 RES1   0.0000
    43 C18      1.3103   9.9067   0.6375   C.ar      1 RES1   0.0000
    44 H17      0.4866  10.1136   0.2124   H         1 RES1   0.0000
    45 C19      1.3598   9.3660   1.9075   C.ar      1 RES1   0.0000
    46 N7       4.7315   8.8146   2.6859   N.pl3     1 RES1   0.0000
    47 N8       4.4151   8.3023   3.9258   N.2       1 RES1   0.0000
    48 C20      5.5487   7.7987   4.3967   C.2       1 RES1   0.0000
    49 H18      5.6400   7.3682   5.2386   H         1 RES1   0.0000
    50 C21      6.5955   7.9887   3.4813   C.2       1 RES1   0.0000
    51 H19      7.5019   7.7230   3.5870   H         1 RES1   0.0000
    52 C22      6.0486   8.6346   2.4048   C.2       1 RES1   0.0000
    53 H20      6.5015   8.9045   1.6147   H         1 RES1   0.0000
    54 N9       0.2650   9.1508   2.7604   N.pl3     1 RES1   0.0000
    55 N10      0.5496   8.7137   4.0300   N.2       1 RES1   0.0000
    56 C23     -0.6102   8.6997   4.6743   C.2       1 RES1   0.0000
    57 H21     -0.7256   8.4418   5.5812   H         1 RES1   0.0000
    58 C24     -1.6427   9.1215   3.8215   C.2       1 RES1   0.0000
    59 H22     -2.5649   9.1981   4.0373   H         1 RES1   0.0000
    60 C25     -1.0570   9.3998   2.6197   C.2       1 RES1   0.0000
    61 H23     -1.4936   9.7094   1.8352   H         1 RES1   0.0000
    62 S3       2.7303  10.8829  -1.5798   S.3       1 RES1   0.0000
    63 S4       0.8737  11.1844  -2.3522   S.3       1 RES1   0.0000
    64 C26      0.4738  12.9291  -1.9211   C.3       1 RES1   0.0000
    65 H24     -0.3214  13.1804  -2.4732   H         1 RES1   0.0000
    66 C27      0.0503  13.0738  -0.4736   C.3       1 RES1   0.0000
    67 H25     -0.6663  12.4348  -0.2774   H         1 RES1   0.0000
    68 H26      0.8167  12.8946   0.1103   H         1 RES1   0.0000
    69 H27     -0.2731  13.9856  -0.3174   H         1 RES1   0.0000
    70 C28      1.5870  13.8884  -2.3126   C.3       1 RES1   0.0000
    71 H28      1.8202  13.7515  -3.2546   H         1 RES1   0.0000
    72 H29      1.2849  14.8112  -2.1815   H         1 RES1   0.0000
    73 H30      2.3747  13.7202  -1.7538   H         1 RES1   0.0000
    74 Cl1      5.8371  14.5997  10.0182   Cl        2 RES2   0.0000
    75 O1       7.0672  15.2268   9.5605   O.3       2 RES2  -1.0000
    76 O2       4.7139  15.3196   9.4732   O.2       2 RES2   0.0000
    77 O3       5.8169  13.2388   9.5597   O.2       2 RES2   0.0000
    78 O4       5.7866  14.6351  11.4593   O.2       2 RES2   0.0000
    79 Cl2      4.1319  13.2820   1.7791   Cl        3 RES3   0.0000
    80 O5       5.0873  12.2195   1.9100   O.2       3 RES3   0.0000
    81 O6       4.2740  14.1871   2.8991   O.3       3 RES3  -1.0000
    82 O7       4.3508  13.9893   0.5516   O.2       3 RES3   0.0000
    83 O8       2.7989  12.7384   1.7921   O.2       3 RES3   0.0000
    84 O9      -1.1037  15.1882   2.5961   O.2       4 RES4   0.0000
    85 C29     -0.6129  14.2125   3.1411   C.2       4 RES4   0.0000
    86 C30      0.5528  14.3340   4.0836   C.3       4 RES4   0.0000
    87 H31      1.3546  13.9625   3.6605   H         4 RES4   0.0000
    88 H32      0.3591  13.8394   4.9074   H         4 RES4   0.0000
    89 H33      0.7029  15.2782   4.2971   H         4 RES4   0.0000
    90 C31     -1.1258  12.8419   2.9044   C.3       4 RES4   0.0000
    91 H34     -1.5905  12.5231   3.7052   H         4 RES4   0.0000
    92 H35     -0.3760  12.2432   2.7014   H         4 RES4   0.0000
    93 H36     -1.7483  12.8521   2.1471   H         4 RES4   0.0000
@<TRIPOS>BOND
     1     1     2    1
     2     2     3   ar
     3     3     4   ar
     4     4     5    1
     5     6     4   ar
     6     7     6   ar
     7     8     7    1
     8     9     2   ar
     9    10     3    1
    10    11     1    1
    11    12    11    2
    12    13    12    1
    13    14    12    1
    14    15    14    1
    15    16    10    1
    16    17    16    1
    17    18     9    1
    18    19     1    1
    19    20    19    2
    20    21    20    1
    21    22    20    1
    22    23    22    1
    23    24    18    1
    24    25    24    1
    25    26     6    1
    26    27    26    1
    27    28    27    1
    28    29    28    1
    29    30    28    1
    30    31    30    1
    31    32    30    1
    32    33    30    1
    33    34    28    1
    34    35    34    1
    35    36    34    1
    36    37    34    1
    37    38     1    1
    38    39    38   ar
    39    40    39   ar
    40    41    40    1
    41    42    40   ar
    42    43    42   ar
    43    44    43    1
    44    45    38   ar
    45    46    39    1
    46    47     1    1
    47    48    47    2
    48    49    48    1
    49    50    48    1
    50    51    50    1
    51    52    46    1
    52    53    52    1
    53    54    45    1
    54    55     1    1
    55    56    55    2
    56    57    56    1
    57    58    56    1
    58    59    58    1
    59    60    54    1
    60    61    60    1
    61    62    42    1
    62    63    62    1
    63    64    63    1
    64    65    64    1
    65    66    64    1
    66    67    66    1
    67    68    66    1
    68    69    66    1
    69    70    64    1
    70    71    70    1
    71    72    70    1
    72    73    70    1
    73     7     9   ar
    74    10    11    1
    75    14    16    2
    76    18    19    1
    77    22    24    2
    78    43    45   ar
    79    46    47    1
    80    50    52    2
    81    54    55    1
    82    58    60    2
    83    74    75    1
    84    76    74    2
    85    77    74    2
    86    78    74    2
    87    79    80    2
    88    81    79    1
    89    82    79    2
    90    83    79    2
    91    84    85    2
    92    85    86    1
    93    86    87    1
    94    88    86    1
    95    89    86    1
    96    90    85    1
    97    91    90    1
    98    92    90    1
    99    93    90    1
@<TRIPOS>SUBSTRUCTURE
     1 RES1        1 GROUP             0 ****  ****    0  
     2 RES2       74 GROUP             0 ****  ****    0  
     3 RES3       79 GROUP             0 ****  ****    0  
     4 RES4       84 GROUP             0 ****  ****    0  
@<TRIPOS>CRYSIN
   11.9704   17.0136   20.0001   90.0000  104.0570   90.0000    14     1
