@<TRIPOS>MOLECULE
HAQROK
    93    99     4     0     0
SMALL
USER_CHARGES
****
Generated from the CSD

@<TRIPOS>ATOM
     1 Fe1      2.6155   8.3221   4.1898   Fe        1 RES1   2.0000
     2 N1       2.4990   7.8265   6.0233   N.ar      1 RES1   0.0000
     3 C1       2.4156   8.7667   6.9716   C.ar      1 RES1   0.0000
     4 C2       2.1868   8.4853   8.2948   C.ar      1 RES1   0.0000
     5 H1       2.1288   9.1726   8.9482   H         1 RES1   0.0000
     6 C3       2.0459   7.1397   8.6326   C.ar      1 RES1   0.0000
     7 C4       2.1685   6.1311   7.6678   C.ar      1 RES1   0.0000
     8 H2       2.1066   5.2109   7.8962   H         1 RES1   0.0000
     9 C5       2.3800   6.5407   6.3781   C.ar      1 RES1   0.0000
    10 N2       2.5961  10.0436   6.4099   N.pl3     1 RES1   0.0000
    11 N3       2.7794  10.0967   5.0501   N.2       1 RES1   0.0000
    12 C6       3.0455  11.3644   4.7755   C.2       1 RES1   0.0000
    13 H3       3.2193  11.7044   3.9055   H         1 RES1   0.0000
    14 C7       3.0369  12.1384   5.9503   C.2       1 RES1   0.0000
    15 H4       3.1949  13.0725   6.0203   H         1 RES1   0.0000
    16 C8       2.7549  11.2737   6.9702   C.2       1 RES1   0.0000
    17 H5       2.6826  11.4897   7.8926   H         1 RES1   0.0000
    18 N4       2.4897   5.7101   5.2463   N.pl3     1 RES1   0.0000
    19 N5       2.5440   6.3337   4.0176   N.2       1 RES1   0.0000
    20 C9       2.7767   5.3670   3.1504   C.2       1 RES1   0.0000
    21 H6       2.8641   5.4938   2.2129   H         1 RES1   0.0000
    22 C10      2.8796   4.1247   3.7996   C.2       1 RES1   0.0000
    23 H7       3.0418   3.2812   3.3938   H         1 RES1   0.0000
    24 C11      2.7021   4.3724   5.1276   C.2       1 RES1   0.0000
    25 H8       2.7218   3.7354   5.8321   H         1 RES1   0.0000
    26 S1       1.7075   6.5618  10.2718   S.3       1 RES1   0.0000
    27 S2       1.6586   8.2288  11.4155   S.3       1 RES1   0.0000
    28 C12     -0.1226   8.6912  11.4733   C.3       1 RES1   0.0000
    29 H9      -0.1806   9.5341  12.0082   H         1 RES1   0.0000
    30 C13     -0.6897   9.0108  10.1056   C.3       1 RES1   0.0000
    31 H10     -0.6559   8.2089   9.5430   H         1 RES1   0.0000
    32 H11     -0.1592   9.7230   9.6911   H         1 RES1   0.0000
    33 H12     -1.6189   9.3065  10.1979   H         1 RES1   0.0000
    34 C14     -0.9461   7.6588  12.2104   C.3       1 RES1   0.0000
    35 H13     -1.8627   7.9866  12.3175   H         1 RES1   0.0000
    36 H14     -0.5516   7.4961  13.0930   H         1 RES1   0.0000
    37 H15     -0.9554   6.8226  11.6986   H         1 RES1   0.0000
    38 N6       2.6082   8.9550   2.3923   N.ar      1 RES1   0.0000
    39 C15      3.7690   9.1927   1.7601   C.ar      1 RES1   0.0000
    40 C16      3.8254   9.7812   0.5234   C.ar      1 RES1   0.0000
    41 H16      4.6559   9.9663   0.1003   H         1 RES1   0.0000
    42 C17      2.6135  10.0962  -0.0859   C.ar      1 RES1   0.0000
    43 C18      1.3910   9.8377   0.5438   C.ar      1 RES1   0.0000
    44 H17      0.5596  10.0332   0.1278   H         1 RES1   0.0000
    45 C19      1.4648   9.2843   1.8005   C.ar      1 RES1   0.0000
    46 N7       4.8441   8.7851   2.5545   N.pl3     1 RES1   0.0000
    47 N8       4.5372   8.2318   3.7840   N.2       1 RES1   0.0000
    48 C20      5.6874   7.7545   4.2403   C.2       1 RES1   0.0000
    49 H18      5.7899   7.3014   5.0689   H         1 RES1   0.0000
    50 C21      6.7334   8.0077   3.3358   C.2       1 RES1   0.0000
    51 H19      7.6478   7.7719   3.4395   H         1 RES1   0.0000
    52 C22      6.1679   8.6608   2.2780   C.2       1 RES1   0.0000
    53 H20      6.6154   8.9693   1.4985   H         1 RES1   0.0000
    54 N9       0.3724   9.0383   2.6583   N.pl3     1 RES1   0.0000
    55 N10      0.6787   8.5959   3.9215   N.2       1 RES1   0.0000
    56 C23     -0.4798   8.5566   4.5724   C.2       1 RES1   0.0000
    57 H21     -0.5852   8.2851   5.4768   H         1 RES1   0.0000
    58 C24     -1.5277   8.9731   3.7344   C.2       1 RES1   0.0000
    59 H22     -2.4484   9.0340   3.9584   H         1 RES1   0.0000
    60 C25     -0.9514   9.2733   2.5289   C.2       1 RES1   0.0000
    61 H23     -1.3974   9.5868   1.7508   H         1 RES1   0.0000
    62 S3       2.7655  10.8715  -1.6736   S.3       1 RES1   0.0000
    63 S4       0.8881  11.1515  -2.4055   S.3       1 RES1   0.0000
    64 C26      0.4715  12.8815  -1.9368   C.3       1 RES1   0.0000
    65 H24     -0.3448  13.1262  -2.4602   H         1 RES1   0.0000
    66 C27      0.0881  12.9961  -0.4679   C.3       1 RES1   0.0000
    67 H25     -0.6100  12.3400  -0.2606   H         1 RES1   0.0000
    68 H26      0.8756  12.8214   0.0893   H         1 RES1   0.0000
    69 H27     -0.2468  13.8984  -0.2869   H         1 RES1   0.0000
    70 C28      1.5490  13.8610  -2.3454   C.3       1 RES1   0.0000
    71 H28      1.7541  13.7436  -3.2956   H         1 RES1   0.0000
    72 H29      1.2334  14.7764  -2.1895   H         1 RES1   0.0000
    73 H30      2.3558  13.6994  -1.8134   H         1 RES1   0.0000
    74 B1       6.0992  14.5168   9.9159   B         2 RES2  -1.0000
    75 F1       7.2817  15.1029   9.4273   F         2 RES2   0.0000
    76 F2       5.0092  15.1260   9.3016   F         2 RES2   0.0000
    77 F3       6.1334  13.1713   9.6043   F         2 RES2   0.0000
    78 F4       6.0324  14.6855  11.2886   F         2 RES2   0.0000
    79 B2       4.2054  13.1917   1.7561   B         3 RES3  -1.0000
    80 F5       5.1140  12.1650   1.9236   F         3 RES3   0.0000
    81 F6       4.3182  14.0719   2.8420   F         3 RES3   0.0000
    82 F7       4.4599  13.8701   0.5737   F         3 RES3   0.0000
    83 F8       2.9151  12.6736   1.7413   F         3 RES3   0.0000
    84 O1      -1.0859  15.0812   2.5491   O.2       4 RES4   0.0000
    85 C29     -0.6706  14.0616   3.0794   C.2       4 RES4   0.0000
    86 C30      0.5464  14.0616   3.9192   C.3       4 RES4   0.0000
    87 H31      1.2849  13.6480   3.4253   H         4 RES4   0.0000
    88 H32      0.3777  13.5548   4.7404   H         4 RES4   0.0000
    89 H33      0.7845  14.9849   4.1486   H         4 RES4   0.0000
    90 C31     -1.3907  12.7905   2.8980   C.3       4 RES4   0.0000
    91 H34     -1.8998  12.5849   3.7109   H         4 RES4   0.0000
    92 H35     -0.7474  12.0716   2.7263   H         4 RES4   0.0000
    93 H36     -2.0053  12.8679   2.1393   H         4 RES4   0.0000
@<TRIPOS>BOND
     1     1     2    1
     2     2     3   ar
     3     3     4   ar
     4     4     5    1
     5     6     4   ar
     6     7     6   ar
     7     8     7    1
     8     9     2   ar
     9    10     3    1
    10    11     1    1
    11    12    11    2
    12    13    12    1
    13    14    12    1
    14    15    14    1
    15    16    10    1
    16    17    16    1
    17    18     9    1
    18    19     1    1
    19    20    19    2
    20    21    20    1
    21    22    20    1
    22    23    22    1
    23    24    18    1
    24    25    24    1
    25    26     6    1
    26    27    26    1
    27    28    27    1
    28    29    28    1
    29    30    28    1
    30    31    30    1
    31    32    30    1
    32    33    30    1
    33    34    28    1
    34    35    34    1
    35    36    34    1
    36    37    34    1
    37    38     1    1
    38    39    38   ar
    39    40    39   ar
    40    41    40    1
    41    42    40   ar
    42    43    42   ar
    43    44    43    1
    44    45    38   ar
    45    46    39    1
    46    47     1    1
    47    48    47    2
    48    49    48    1
    49    50    48    1
    50    51    50    1
    51    52    46    1
    52    53    52    1
    53    54    45    1
    54    55     1    1
    55    56    55    2
    56    57    56    1
    57    58    56    1
    58    59    58    1
    59    60    54    1
    60    61    60    1
    61    62    42    1
    62    63    62    1
    63    64    63    1
    64    65    64    1
    65    66    64    1
    66    67    66    1
    67    68    66    1
    68    69    66    1
    69    70    64    1
    70    71    70    1
    71    72    70    1
    72    73    70    1
    73     7     9   ar
    74    10    11    1
    75    14    16    2
    76    18    19    1
    77    22    24    2
    78    43    45   ar
    79    46    47    1
    80    50    52    2
    81    54    55    1
    82    58    60    2
    83    74    75    1
    84    76    74    1
    85    77    74    1
    86    78    74    1
    87    79    80    1
    88    81    79    1
    89    82    79    1
    90    83    79    1
    91    84    85    2
    92    85    86    1
    93    86    87    1
    94    88    86    1
    95    89    86    1
    96    90    85    1
    97    91    90    1
    98    92    90    1
    99    93    90    1
@<TRIPOS>SUBSTRUCTURE
     1 RES1        1 GROUP             0 ****  ****    0  
     2 RES2       74 GROUP             0 ****  ****    0  
     3 RES3       79 GROUP             0 ****  ****    0  
     4 RES4       84 GROUP             0 ****  ****    0  
@<TRIPOS>CRYSIN
   12.1943   16.8584   19.6797   90.0000  104.4960   90.0000    14     1
