@<TRIPOS>MOLECULE
HATJAP
   101   108     6     0     0
SMALL
USER_CHARGES
****
Generated from the CSD

@<TRIPOS>ATOM
     1 Gd1      1.9060  -2.3810   2.7845   Gd        1 RES1   0.0000
     2 Fe1     -0.3018   2.1792   5.5383   Fe        1 RES1   1.0000
     3 O1       2.2770  -0.0597   3.3385   O.2       1 RES1   0.0000
     4 O2      -0.2620  -1.2145   3.3172   O.3       1 RES1   0.0000
     5 O3      -1.0994   4.0495   8.9744   O.3       1 RES1  -1.0000
     6 O4      -1.4494   5.7926   6.7563   O.2       1 RES1   0.0000
     7 N1       1.5768   2.7658   5.3706   N.ar      1 RES1   0.0000
     8 N2       0.3468   0.7729   4.3751   N.2       1 RES1   0.0000
     9 N3      -1.9813   1.1977   5.2532   N.ar      1 RES1   0.0000
    10 N4       0.0487   1.1951   7.2228   N.ar      1 RES1   0.0000
    11 N5      -0.8821   3.5322   6.7167   N.2       1 RES1   0.0000
    12 N6      -0.8009   3.4933   4.1602   N.ar      1 RES1   0.0000
    13 C1       2.1298   3.8687   5.8889   C.ar      1 RES1   0.0000
    14 H1       1.5992   4.4394   6.4331   H         1 RES1   0.0000
    15 C2       3.4438   4.2003   5.6542   C.ar      1 RES1   0.0000
    16 H2       3.8067   4.9971   6.0215   H         1 RES1   0.0000
    17 C3       4.2295   3.3810   4.8889   C.ar      1 RES1   0.0000
    18 H3       5.1457   3.5899   4.7517   H         1 RES1   0.0000
    19 C4       3.6863   2.2554   4.3218   C.ar      1 RES1   0.0000
    20 H4       4.2110   1.6907   3.7654   H         1 RES1   0.0000
    21 C5       2.3702   1.9625   4.5748   C.ar      1 RES1   0.0000
    22 C6       1.6819   0.7806   4.0169   C.2       1 RES1   0.0000
    23 C7      -0.5331  -0.2160   3.9559   C.2       1 RES1   0.0000
    24 C8      -1.8926   0.0786   4.4742   C.ar      1 RES1   0.0000
    25 C9      -2.9942  -0.6912   4.1815   C.ar      1 RES1   0.0000
    26 H5      -2.9081  -1.4596   3.6297   H         1 RES1   0.0000
    27 C10     -4.2126  -0.3441   4.6907   C.ar      1 RES1   0.0000
    28 H6      -4.9814  -0.8742   4.5154   H         1 RES1   0.0000
    29 C11     -4.3027   0.8007   5.4697   C.ar      1 RES1   0.0000
    30 H7      -5.1441   1.0734   5.8142   H         1 RES1   0.0000
    31 C12     -3.1800   1.5391   5.7410   C.ar      1 RES1   0.0000
    32 H8      -3.2546   2.3109   6.2898   H         1 RES1   0.0000
    33 C13      0.5463  -0.0310   7.3600   C.ar      1 RES1   0.0000
    34 H9       0.7532  -0.5416   6.5856   H         1 RES1   0.0000
    35 C14      0.7697  -0.5842   8.6268   C.ar      1 RES1   0.0000
    36 H10      1.1445  -1.4533   8.7091   H         1 RES1   0.0000
    37 C15      0.4406   0.1403   9.7595   C.ar      1 RES1   0.0000
    38 H11      0.5824  -0.2271  10.6254   H         1 RES1   0.0000
    39 C16     -0.1012   1.4146   9.6147   C.ar      1 RES1   0.0000
    40 H12     -0.3459   1.9302  10.3754   H         1 RES1   0.0000
    41 C17     -0.2749   1.9156   8.3280   C.ar      1 RES1   0.0000
    42 C18     -0.8182   3.2897   8.0704   C.2       1 RES1   0.0000
    43 C19     -1.2161   4.7655   6.1572   C.2       1 RES1   0.0000
    44 C20     -1.2049   4.6737   4.6572   C.ar      1 RES1   0.0000
    45 C21     -1.5864   5.7106   3.8401   C.ar      1 RES1   0.0000
    46 H13     -1.9003   6.5225   4.2181   H         1 RES1   0.0000
    47 C22     -1.5117   5.5710   2.4879   C.ar      1 RES1   0.0000
    48 H14     -1.7422   6.2892   1.9101   H         1 RES1   0.0000
    49 C23     -1.0980   4.3751   1.9863   C.ar      1 RES1   0.0000
    50 H15     -1.0477   4.2555   1.0458   H         1 RES1   0.0000
    51 C24     -0.7460   3.3214   2.8324   C.ar      1 RES1   0.0000
    52 H16     -0.4699   2.4875   2.4696   H         1 RES1   0.0000
    53 N7       1.8747  -1.2875   0.0945   N.pl3     1 RES1   0.0000
    54 O5       0.8132  -1.7111   0.6586   O.3       1 RES1   0.0000
    55 O6       1.8822  -0.8732  -1.0427   O.2       1 RES1   0.0000
    56 O7       2.9329  -1.3990   0.7683   O.3       1 RES1   0.0000
    57 N8       0.3530  -4.5690   1.6571   N.pl3     1 RES1   0.0000
    58 O8      -0.0970  -3.8301   2.5672   O.3       1 RES1   0.0000
    59 O9      -0.3424  -5.3248   0.9833   O.2       1 RES1   0.0000
    60 O10      1.5849  -4.4197   1.3720   O.3       1 RES1   0.0000
    61 N9       4.7572  -2.9657   2.9971   N.pl3     1 RES1   0.0000
    62 O11      4.2105  -2.0198   3.6266   O.3       1 RES1   0.0000
    63 O12      4.0309  -3.6712   2.2516   O.3       1 RES1   0.0000
    64 O13      5.9770  -3.1803   3.0702   O.2       1 RES1   0.0000
    65 N10      1.9183  -3.3029   5.5657   N.pl3     1 RES1   0.0000
    66 O14      2.2741  -4.0695   4.6114   O.3       1 RES1   0.0000
    67 O15      1.9753  -3.6311   6.7213   O.2       1 RES1   0.0000
    68 O16      1.4955  -2.1581   5.1953   O.3       1 RES1   0.0000
    69 N11      4.1121   0.5676   7.8722   N.pl3     2 RES2   0.0000
    70 O17      3.8499  -0.2378   7.0323   O.2       2 RES2   0.0000
    71 O18      3.6617   1.6487   7.8067   O.2       2 RES2   0.0000
    72 C25      5.0129   0.1963   8.9835   C.3       2 RES2   0.0000
    73 H17      5.1180   0.9604   9.5887   H         2 RES2   0.0000
    74 H18      5.8879  -0.0582   8.6238   H         2 RES2   0.0000
    75 H19      4.6301  -0.5602   9.4759   H         2 RES2   0.0000
    76 N12      3.3431   2.0635  12.0431   N.pl3     3 RES3   0.0000
    77 O19      4.2656   2.6828  11.6025   O.2       3 RES3   0.0000
    78 O20      2.5321   1.5336  11.4196   O.2       3 RES3   0.0000
    79 C26      3.1667   1.9106  13.5050   C.3       3 RES3   0.0000
    80 H20      3.9176   2.3444  13.9685   H         3 RES3   0.0000
    81 H21      3.1525   0.9582  13.7337   H         3 RES3   0.0000
    82 H22      2.3288   2.3292  13.7794   H         3 RES3   0.0000
    83 N13     -0.7602   4.6270  13.0081   N.pl3     4 RES4   0.0000
    84 O21     -0.4014   3.5723  12.4349   O.2       4 RES4   0.0000
    85 O22     -1.0819   5.5976  12.4394   O.2       4 RES4   0.0000
    86 C27     -0.8610   4.5542  14.4959   C.3       4 RES4   0.0000
    87 H23     -0.5256   3.6865  14.8039   H         4 RES4   0.0000
    88 H24     -1.7972   4.6568  14.7642   H         4 RES4   0.0000
    89 H25     -0.3257   5.2723  14.8938   H         4 RES4   0.0000
    90 N14      3.2518   5.8063  14.6072   N.pl3     5 RES5   0.0000
    91 O23      3.9056   6.3180  13.7992   O.2       5 RES5   0.0000
    92 O24      2.3163   4.9350  14.4807   O.2       5 RES5   0.0000
    93 C28      3.3150   6.2211  15.9411   C.3       5 RES5   0.0000
    94 H26      2.7694   5.6249  16.4945   H         5 RES5   0.0000
    95 H27      2.9737   7.1377  16.0143   H         5 RES5   0.0000
    96 H28      4.2439   6.1938  16.2490   H         5 RES5   0.0000
    97 O25      0.5385   7.9687  14.3663   O.3       6 RES6   0.0000
    98 C29      0.0177   8.9130  14.3328   C.3       6 RES6   0.0000
    99 H29     -0.1682   9.1513  13.3998   H         6 RES6   0.0000
   100 H30      0.5754   9.6073  14.7429   H         6 RES6   0.0000
   101 H31     -0.8267   8.8393  14.8252   H         6 RES6   0.0000
@<TRIPOS>BOND
     1     1     3    1
     2     2     7    1
     3     3    22    2
     4     4     1    1
     5     5    42    1
     6     6    43    2
     7     7    13   ar
     8     8     2    1
     9     9     2    1
    10    10     2    1
    11    11     2    1
    12    12     2    1
    13    13    14    1
    14    15    13   ar
    15    16    15    1
    16    17    15   ar
    17    18    17    1
    18    19    17   ar
    19    20    19    1
    20    21     7   ar
    21    22     8    1
    22    23     4    1
    23    24     9   ar
    24    25    24   ar
    25    26    25    1
    26    27    25   ar
    27    28    27    1
    28    29    27   ar
    29    30    29    1
    30    31     9   ar
    31    32    31    1
    32    33    10   ar
    33    34    33    1
    34    35    33   ar
    35    36    35    1
    36    37    35   ar
    37    38    37    1
    38    39    37   ar
    39    40    39    1
    40    41    10   ar
    41    42    11    2
    42    43    11    1
    43    44    12   ar
    44    45    44   ar
    45    46    45    1
    46    47    45   ar
    47    48    47    1
    48    49    47   ar
    49    50    49    1
    50    51    12   ar
    51    52    51    1
    52    53    54    1
    53    54     1    1
    54    55    53    2
    55    56     1    1
    56    57    58    1
    57    58     1    1
    58    59    57    2
    59    60     1    1
    60    61    62    1
    61    62     1    1
    62    63     1    1
    63    64    61    2
    64    65    66    1
    65    66     1    1
    66    67    65    2
    67    68     1    1
    68     8    23    2
    69    19    21   ar
    70    21    22    1
    71    23    24    1
    72    29    31   ar
    73    39    41   ar
    74    41    42    1
    75    43    44    1
    76    49    51   ar
    77    53    56    1
    78    57    60    1
    79    61    63    1
    80    65    68    1
    81    69    70    2
    82    71    69    2
    83    72    69    1
    84    73    72    1
    85    74    72    1
    86    75    72    1
    87    76    77    2
    88    78    76    2
    89    79    76    1
    90    80    79    1
    91    81    79    1
    92    82    79    1
    93    83    84    2
    94    85    83    2
    95    86    83    1
    96    87    86    1
    97    88    86    1
    98    89    86    1
    99    90    91    2
   100    92    90    2
   101    93    90    1
   102    94    93    1
   103    95    93    1
   104    96    93    1
   105    97    98    1
   106    98    99    1
   107   100    98    1
   108   101    98    1
@<TRIPOS>SUBSTRUCTURE
     1 RES1        1 GROUP             0 ****  ****    0  
     2 RES2       69 GROUP             0 ****  ****    0  
     3 RES3       76 GROUP             0 ****  ****    0  
     4 RES4       83 GROUP             0 ****  ****    0  
     5 RES5       90 GROUP             0 ****  ****    0  
     6 RES6       97 GROUP             0 ****  ****    0  
@<TRIPOS>CRYSIN
   11.1640   13.6170   15.8160  103.3150   92.7440  109.8240     2     1
