@<TRIPOS>MOLECULE
HAXHIY
    80    85     3     0     0
SMALL
USER_CHARGES
****
Generated from the CSD

@<TRIPOS>ATOM
     1 Fe1      4.2646   3.5997  13.1403   Fe        1 RES1   1.0000
     2 N1       5.0873   5.1003  14.1260   N.ar      1 RES1   0.0000
     3 C1       5.9981   5.0045  15.1099   C.ar      1 RES1   0.0000
     4 H1       6.2735   4.1565  15.3770   H         1 RES1   0.0000
     5 C2       6.5314   6.0760  15.7289   C.ar      1 RES1   0.0000
     6 H2       7.1539   5.9695  16.4114   H         1 RES1   0.0000
     7 C3       6.1372   7.3249  15.3330   C.ar      1 RES1   0.0000
     8 H3       6.5049   8.0770  15.7386   H         1 RES1   0.0000
     9 C4       5.1916   7.4711  14.3296   C.ar      1 RES1   0.0000
    10 H4       4.9112   8.3125  14.0494   H         1 RES1   0.0000
    11 C5       4.6826   6.3271  13.7595   C.ar      1 RES1   0.0000
    12 C6       3.6027   6.3759  12.7382   C.3       1 RES1   0.0000
    13 H5       3.8853   6.9532  12.0117   H         1 RES1   0.0000
    14 H6       2.8116   6.7705  13.1372   H         1 RES1   0.0000
    15 N2       2.7269   3.7111  14.3557   N.ar      1 RES1   0.0000
    16 C7       2.6621   3.2864  15.6344   C.ar      1 RES1   0.0000
    17 H7       3.4056   2.8771  16.0123   H         1 RES1   0.0000
    18 C8       1.5243   3.4409  16.3935   C.ar      1 RES1   0.0000
    19 H8       1.4984   3.1236  17.2666   H         1 RES1   0.0000
    20 C9       0.4343   4.0632  15.8559   C.ar      1 RES1   0.0000
    21 H9      -0.3415   4.1737  16.3576   H         1 RES1   0.0000
    22 C10      0.5002   4.5219  14.5626   C.ar      1 RES1   0.0000
    23 H10     -0.2264   4.9652  14.1879   H         1 RES1   0.0000
    24 C11      1.6368   4.3255  13.8328   C.ar      1 RES1   0.0000
    25 C12      1.8075   4.7584  12.4042   C.3       1 RES1   0.0000
    26 H11      1.5001   4.0607  11.8064   H         1 RES1   0.0000
    27 H12      1.2880   5.5601  12.2348   H         1 RES1   0.0000
    28 N3       3.4728   2.1147  12.0703   N.ar      1 RES1   0.0000
    29 C13      2.3267   1.4340  12.3326   C.ar      1 RES1   0.0000
    30 H13      1.8297   1.6814  13.0770   H         1 RES1   0.0000
    31 C14      1.8678   0.4096  11.5621   C.ar      1 RES1   0.0000
    32 H14      1.0800  -0.0307  11.7852   H         1 RES1   0.0000
    33 C15      2.5947   0.0300  10.4381   C.ar      1 RES1   0.0000
    34 H15      2.3027  -0.6599   9.8859   H         1 RES1   0.0000
    35 C16      3.7795   0.7234  10.1677   C.ar      1 RES1   0.0000
    36 H16      4.2835   0.5069   9.4168   H         1 RES1   0.0000
    37 C17      4.1974   1.7183  11.0066   C.ar      1 RES1   0.0000
    38 C18      5.5234   2.3803  10.8454   C.3       1 RES1   0.0000
    39 H17      6.2135   1.7935  11.1923   H         1 RES1   0.0000
    40 H18      5.6959   2.5148   9.9006   H         1 RES1   0.0000
    41 N4       5.6054   3.6910  11.5442   N.3       1 RES1   0.0000
    42 C19      7.0447   3.9525  11.9449   C.3       1 RES1   0.0000
    43 H19      7.0678   4.7576  12.4857   H         1 RES1   0.0000
    44 H20      7.3410   3.2194  12.5069   H         1 RES1   0.0000
    45 C20      8.0348   4.1127  10.8160   C.ar      1 RES1   0.0000
    46 C21      8.7229   3.0405  10.2997   C.ar      1 RES1   0.0000
    47 H21      8.5434   2.1855  10.6206   H         1 RES1   0.0000
    48 C22      9.6661   3.2048   9.3191   C.ar      1 RES1   0.0000
    49 H22     10.1188   2.4652   8.9819   H         1 RES1   0.0000
    50 C23      9.9440   4.4457   8.8369   C.ar      1 RES1   0.0000
    51 H23     10.5726   4.5486   8.1593   H         1 RES1   0.0000
    52 C24      9.2968   5.5529   9.3467   C.ar      1 RES1   0.0000
    53 H24      9.5020   6.4032   9.0307   H         1 RES1   0.0000
    54 C25      8.3438   5.3834  10.3274   C.ar      1 RES1   0.0000
    55 H25      7.9000   6.1254  10.6678   H         1 RES1   0.0000
    56 N5       3.2433   5.0272  12.1762   N.3       1 RES1   0.0000
    57 C26      3.6182   4.9247  10.7444   C.3       1 RES1   0.0000
    58 H26      3.3203   5.7123  10.2622   H         1 RES1   0.0000
    59 H27      3.2040   4.1448  10.3436   H         1 RES1   0.0000
    60 C27      5.1254   4.8099  10.6808   C.3       1 RES1   0.0000
    61 H28      5.4000   4.6514   9.7638   H         1 RES1   0.0000
    62 H29      5.5276   5.6426  10.9757   H         1 RES1   0.0000
    63 N6       5.3210   2.2510  14.0820   N.1       1 RES1   0.0000
    64 C28      6.0918   1.4693  14.4013   C.1       1 RES1   0.0000
    65 N7       6.8893   0.4902  14.7792   N.2       1 RES1   0.0000
    66 C29      8.1834   0.5674  14.5756   C.1       1 RES1   0.0000
    67 N8       9.2906   0.4985  14.4290   N.1       1 RES1   0.0000
    68 P1      12.3464   9.1836   9.7196   P.3       2 RES2  -1.0000
    69 F1      11.1238   9.8828   9.1220   F         2 RES2   0.0000
    70 F2      11.4565   8.0928  10.4088   F         2 RES2   0.0000
    71 F3      13.6285   8.4934  10.3062   F         2 RES2   0.0000
    72 F4      13.3235  10.2608   9.1040   F         2 RES2   0.0000
    73 F5      12.2333  10.0456  11.0066   F         2 RES2   0.0000
    74 F6      12.5059   8.3525   8.4508   F         2 RES2   0.0000
    75 C30      9.1438   8.4269  12.9434   C.3       3 RES3   0.0000
    76 H30      8.3504   8.1561  13.4109   H         3 RES3   0.0000
    77 H31      9.2394   7.9000  12.1452   H         3 RES3   0.0000
    78 H32      9.0756   9.3548  12.7072   H         3 RES3   0.0000
    79 O1      10.2129   8.2424  13.7318   O.3       3 RES3   0.0000
    80 H33     10.7540   8.8461  13.6064   H         3 RES3   0.0000
@<TRIPOS>BOND
     1     1     2    1
     2     2     3   ar
     3     3     4    1
     4     5     3   ar
     5     6     5    1
     6     7     5   ar
     7     8     7    1
     8     9     7   ar
     9    10     9    1
    10    11     2   ar
    11    12    11    1
    12    13    12    1
    13    14    12    1
    14    15     1    1
    15    16    15   ar
    16    17    16    1
    17    18    16   ar
    18    19    18    1
    19    20    18   ar
    20    21    20    1
    21    22    20   ar
    22    23    22    1
    23    24    15   ar
    24    25    24    1
    25    26    25    1
    26    27    25    1
    27    28     1    1
    28    29    28   ar
    29    30    29    1
    30    31    29   ar
    31    32    31    1
    32    33    31   ar
    33    34    33    1
    34    35    33   ar
    35    36    35    1
    36    37    28   ar
    37    38    37    1
    38    39    38    1
    39    40    38    1
    40    41     1    1
    41    42    41    1
    42    43    42    1
    43    44    42    1
    44    45    42    1
    45    46    45   ar
    46    47    46    1
    47    48    46   ar
    48    49    48    1
    49    50    48   ar
    50    51    50    1
    51    52    50   ar
    52    53    52    1
    53    54    45   ar
    54    55    54    1
    55    56     1    1
    56    57    56    1
    57    58    57    1
    58    59    57    1
    59    60    41    1
    60    61    60    1
    61    62    60    1
    62    63     1    1
    63    64    63    3
    64    65    64    1
    65    66    65    1
    66    67    66    3
    67     9    11   ar
    68    12    56    1
    69    22    24   ar
    70    25    56    1
    71    35    37   ar
    72    38    41    1
    73    52    54   ar
    74    57    60    1
    75    68    69    1
    76    70    68    1
    77    71    68    1
    78    72    68    1
    79    73    68    1
    80    74    68    1
    81    75    76    1
    82    77    75    1
    83    78    75    1
    84    79    75    1
    85    80    79    1
@<TRIPOS>SUBSTRUCTURE
     1 RES1        1 GROUP             0 ****  ****    0  
     2 RES2       68 GROUP             0 ****  ****    0  
     3 RES3       75 GROUP             0 ****  ****    0  
@<TRIPOS>CRYSIN
    9.4220   11.4330   16.5440   81.3120   81.9080   66.6040     2     1
