@<TRIPOS>MOLECULE
HAZPAD
   119   126     1     0     0
SMALL
NO_CHARGES
****
Generated from the CSD

@<TRIPOS>ATOM
     1 Fe1      6.9055   4.5945  21.0415   Fe        1 RES1   0.0000
     2 O1       7.6525   5.5927  19.5080   O.3       1 RES1   0.0000
     3 O2       5.0688   4.6522  20.2263   O.3       1 RES1   0.0000
     4 N1       6.1266   4.2402  22.8067   N.ar      1 RES1   0.0000
     5 N2       8.6843   3.8931  21.5678   N.ar      1 RES1   0.0000
     6 N3       5.6573   2.4970  19.6384   N.2       1 RES1   0.0000
     7 N4       6.7975   2.8822  20.2913   N.2       1 RES1   0.0000
     8 O3      -0.0841   2.4417  17.1129   O.3       1 RES1   0.0000
     9 N5       7.1042   6.2966  21.8010   N.2       1 RES1   0.0000
    10 N6       7.6908   7.3008  21.0545   N.2       1 RES1   0.0000
    11 C1       8.9212   2.6276  21.1158   C.ar      1 RES1   0.0000
    12 C2       3.5162   3.2937  19.0022   C.ar      1 RES1   0.0000
    13 C3       6.1518   5.3180  23.6326   C.ar      1 RES1   0.0000
    14 C4       4.8124   3.5262  19.6649   C.2       1 RES1   0.0000
    15 O4      10.3164  10.2118  16.0776   O.3       1 RES1   0.0000
    16 C5       7.9163   6.7985  19.8438   C.2       1 RES1   0.0000
    17 C6       7.8063   2.0753  20.3859   C.2       1 RES1   0.0000
    18 H1       7.8107   1.2203  20.0186   H         1 RES1   0.0000
    19 C7       5.5641   3.1181  23.2592   C.ar      1 RES1   0.0000
    20 H2       5.5235   2.3833  22.6907   H         1 RES1   0.0000
    21 C8      10.1192   1.9797  21.3487   C.ar      1 RES1   0.0000
    22 H3      10.2642   1.1247  21.0129   H         1 RES1   0.0000
    23 C9       8.6821   7.2871  17.5447   C.ar      1 RES1   0.0000
    24 H4       8.3919   6.4373  17.3023   H         1 RES1   0.0000
    25 C10      3.2618   2.0792  18.3528   C.ar      1 RES1   0.0000
    26 H5       3.9229   1.4245  18.3387   H         1 RES1   0.0000
    27 C11      9.6654   4.4793  22.2950   C.ar      1 RES1   0.0000
    28 H6       9.5216   5.3369  22.6242   H         1 RES1   0.0000
    29 C12      8.5169   7.6989  18.8403   C.ar      1 RES1   0.0000
    30 C13     11.0953   2.6134  22.0832   C.ar      1 RES1   0.0000
    31 H7      11.9073   2.1909  22.2477   H         1 RES1   0.0000
    32 C14      5.0425   2.9960  24.5219   C.ar      1 RES1   0.0000
    33 H8       4.6721   2.1921  24.8066   H         1 RES1   0.0000
    34 C15      2.5043   4.2417  19.0095   C.ar      1 RES1   0.0000
    35 H9       2.6463   5.0530  19.4409   H         1 RES1   0.0000
    36 C16      6.7316   6.4883  23.0265   C.2       1 RES1   0.0000
    37 H10      6.8294   7.3002  23.4701   H         1 RES1   0.0000
    38 C17      1.0656   2.7912  17.7510   C.ar      1 RES1   0.0000
    39 C18      1.2832   4.0095  18.3895   C.ar      1 RES1   0.0000
    40 H11      0.6195   4.6610  18.4004   H         1 RES1   0.0000
    41 C19     10.8601   3.8644  22.5669   C.ar      1 RES1   0.0000
    42 H12     11.5048   4.2987  23.0777   H         1 RES1   0.0000
    43 C20      9.2656   8.0904  16.5870   C.ar      1 RES1   0.0000
    44 H13      9.3584   7.7828  15.7145   H         1 RES1   0.0000
    45 C21      2.0562   1.8306  17.7345   C.ar      1 RES1   0.0000
    46 H14      1.9104   1.0171  17.3073   H         1 RES1   0.0000
    47 C22      5.6312   5.2626  24.9096   C.ar      1 RES1   0.0000
    48 H15      5.6541   6.0111  25.4604   H         1 RES1   0.0000
    49 C23     -1.0929   3.4329  16.9563   C.3       1 RES1   0.0000
    50 H16     -0.7343   4.1947  16.4739   H         1 RES1   0.0000
    51 H17     -1.3933   3.7380  17.8266   H         1 RES1   0.0000
    52 C24     -3.3393   3.8679  16.0023   C.3       1 RES1   0.0000
    53 H18     -2.9536   4.6505  15.5776   H         1 RES1   0.0000
    54 H19     -3.6617   4.1398  16.8758   H         1 RES1   0.0000
    55 C25     -2.2486   2.8414  16.1934   C.3       1 RES1   0.0000
    56 H20     -2.6013   2.0793  16.6790   H         1 RES1   0.0000
    57 H21     -1.9402   2.5302  15.3277   H         1 RES1   0.0000
    58 C26      5.0796   4.0853  25.3568   C.ar      1 RES1   0.0000
    59 H22      4.7340   4.0281  26.2184   H         1 RES1   0.0000
    60 C27      9.7046   9.3361  16.9217   C.ar      1 RES1   0.0000
    61 C28     10.5887   9.8209  14.7452   C.3       1 RES1   0.0000
    62 H23      9.7642   9.6139  14.2782   H         1 RES1   0.0000
    63 H24     11.1575   9.0351  14.7324   H         1 RES1   0.0000
    64 C29     -4.5220   3.4064  15.1751   C.3       1 RES1   0.0000
    65 H25     -4.8961   2.6057  15.5757   H         1 RES1   0.0000
    66 H26     -4.2161   3.1772  14.2838   H         1 RES1   0.0000
    67 C30     13.3402  13.0054   9.9659   C.3       1 RES1   0.0000
    68 H27     12.7155  13.7425  10.0576   H         1 RES1   0.0000
    69 H28     14.1301  13.2243  10.4846   H         1 RES1   0.0000
    70 C31     11.2826  10.9796  14.0925   C.3       1 RES1   0.0000
    71 H29     12.0926  11.1799  14.5875   H         1 RES1   0.0000
    72 H30     10.7067  11.7583  14.1407   H         1 RES1   0.0000
    73 C32     13.7350  12.8803   8.5070   C.3       1 RES1   0.0000
    74 H31     14.3510  12.1381   8.4112   H         1 RES1   0.0000
    75 H32     12.9433  12.6772   7.9842   H         1 RES1   0.0000
    76 C33     -7.8647   5.1428  14.1746   C.3       1 RES1   0.0000
    77 H33     -8.1869   5.3223  15.0718   H         1 RES1   0.0000
    78 H34     -7.4793   5.9634  13.8291   H         1 RES1   0.0000
    79 C34     11.6441  10.7245  12.6416   C.3       1 RES1   0.0000
    80 H35     10.8396  10.5083  12.1449   H         1 RES1   0.0000
    81 H36     12.2412   9.9619  12.5900   H         1 RES1   0.0000
    82 C35     12.3174  11.9335  12.0047   C.3       1 RES1   0.0000
    83 H37     11.7180  12.6931  12.0725   H         1 RES1   0.0000
    84 H38     13.1166  12.1457  12.5125   H         1 RES1   0.0000
    85 C36     12.7045  11.7515  10.5483   C.3       1 RES1   0.0000
    86 H39     11.9138  11.5254  10.0339   H         1 RES1   0.0000
    87 H40     13.3294  11.0128  10.4741   H         1 RES1   0.0000
    88 C37     14.7530  14.0301   6.4876   C.3       1 RES1   0.0000
    89 H41     15.3941  13.3120   6.3666   H         1 RES1   0.0000
    90 H42     13.9631  13.8144   5.9683   H         1 RES1   0.0000
    91 C38      8.9489   8.9765  19.1583   C.ar      1 RES1   0.0000
    92 H43      8.8514   9.2882  20.0293   H         1 RES1   0.0000
    93 C39     14.3760  14.1173   7.9551   C.3       1 RES1   0.0000
    94 H44     15.1753  14.3085   8.4700   H         1 RES1   0.0000
    95 H45     13.7658  14.8625   8.0742   H         1 RES1   0.0000
    96 C40     -6.7831   4.0795  14.2418   C.3       1 RES1   0.0000
    97 H46     -7.1682   3.2662  14.6033   H         1 RES1   0.0000
    98 H47     -6.4797   3.8866  13.3411   H         1 RES1   0.0000
    99 C41     -5.6087   4.4621  15.0707   C.3       1 RES1   0.0000
   100 H48     -5.9188   4.6743  15.9650   H         1 RES1   0.0000
   101 H49     -5.2188   5.2689  14.6984   H         1 RES1   0.0000
   102 C42      9.5144   9.7883  18.2153   C.ar      1 RES1   0.0000
   103 H50      9.7733  10.6517  18.4452   H         1 RES1   0.0000
   104 C43     -9.0308   4.7459  13.3056   C.3       1 RES1   0.0000
   105 H51     -8.7099   4.5602  12.4092   H         1 RES1   0.0000
   106 H52     -9.4234   3.9301  13.6549   H         1 RES1   0.0000
   107 C44     15.3332  15.2830   5.9838   C.2       1 RES1   0.0000
   108 H53     14.7671  16.0151   6.0701   H         1 RES1   0.0000
   109 C45    -10.0796   5.8003  13.2373   C.3       1 RES1   0.0000
   110 H54    -10.3939   5.9476  14.1438   H         1 RES1   0.0000
   111 H55     -9.6429   6.6186  12.9560   H         1 RES1   0.0000
   112 C46     16.3699  15.5463   5.4914   C.2       1 RES1   0.0000
   113 H56     17.0061  14.8803   5.3619   H         1 RES1   0.0000
   114 H57     16.5532  16.4208   5.2333   H         1 RES1   0.0000
   115 C47    -11.8812   4.9347  11.7373   C.2       1 RES1   0.0000
   116 H58    -11.6310   4.0521  11.5858   H         1 RES1   0.0000
   117 H59    -12.6544   5.2728  11.3468   H         1 RES1   0.0000
   118 C48    -11.2011   5.6422  12.4394   C.2       1 RES1   0.0000
   119 H60    -11.6313   6.4668  12.4513   H         1 RES1   0.0000
@<TRIPOS>BOND
     1     1     2    1
     2     2    16    1
     3     3     1    1
     4     4     1    1
     5     5     1    1
     6     6     7    1
     7     7     1    1
     8     8    38    1
     9     9     1    1
    10    10     9    1
    11    11     5   ar
    12    12    14    1
    13    13     4   ar
    14    14     3    1
    15    15    60    1
    16    16    10    2
    17    17     7    2
    18    18    17    1
    19    19     4   ar
    20    20    19    1
    21    21    11   ar
    22    22    21    1
    23    23    24    1
    24    25    12   ar
    25    26    25    1
    26    27     5   ar
    27    28    27    1
    28    29    16    1
    29    30    21   ar
    30    31    30    1
    31    32    19   ar
    32    33    32    1
    33    34    12   ar
    34    35    34    1
    35    36     9    2
    36    37    36    1
    37    38    39   ar
    38    39    34   ar
    39    40    39    1
    40    41    27   ar
    41    42    41    1
    42    43    23   ar
    43    44    43    1
    44    45    25   ar
    45    46    45    1
    46    47    13   ar
    47    48    47    1
    48    49     8    1
    49    50    49    1
    50    51    49    1
    51    52    53    1
    52    54    52    1
    53    55    49    1
    54    56    55    1
    55    57    55    1
    56    58    32   ar
    57    59    58    1
    58    60    43   ar
    59    61    15    1
    60    62    61    1
    61    63    61    1
    62    64    52    1
    63    65    64    1
    64    66    64    1
    65    67    68    1
    66    69    67    1
    67    70    61    1
    68    71    70    1
    69    72    70    1
    70    73    67    1
    71    74    73    1
    72    75    73    1
    73    76    77    1
    74    78    76    1
    75    79    70    1
    76    80    79    1
    77    81    79    1
    78    82    79    1
    79    83    82    1
    80    84    82    1
    81    85    67    1
    82    86    85    1
    83    87    85    1
    84    88    89    1
    85    90    88    1
    86    91    29   ar
    87    92    91    1
    88    93    73    1
    89    94    93    1
    90    95    93    1
    91    96    76    1
    92    97    96    1
    93    98    96    1
    94    99    64    1
    95   100    99    1
    96   101    99    1
    97   102    60   ar
    98   103   102    1
    99   104    76    1
   100   105   104    1
   101   106   104    1
   102   107    88    1
   103   108   107    1
   104   109   104    1
   105   110   109    1
   106   111   109    1
   107   112   107    2
   108   113   112    1
   109   114   112    1
   110   115   116    1
   111   117   115    1
   112   118   109    1
   113   119   118    1
   114     6    14    2
   115    11    17    1
   116    13    36    1
   117    23    29   ar
   118    30    41   ar
   119    38    45   ar
   120    47    58   ar
   121    52    55    1
   122    82    85    1
   123    88    93    1
   124    91   102   ar
   125    96    99    1
   126   115   118    2
@<TRIPOS>SUBSTRUCTURE
     1 RES1        1 GROUP             0 ****  ****    0  
@<TRIPOS>CRYSIN
    9.2662   10.9952   22.8338   86.6740   89.7490   85.9720     2     1
