@<TRIPOS>MOLECULE
HAZPAD02
   119   126     1     0     0
SMALL
NO_CHARGES
****
Generated from the CSD

@<TRIPOS>ATOM
     1 Fe1     -0.9902   7.7412   1.7962   Fe        1 RES1   0.0000
     2 O1       0.8990   7.8666   2.6300   O.3       1 RES1   0.0000
     3 O2      -1.8017   6.5879   3.2643   O.3       1 RES1   0.0000
     4 N1      -0.2548   7.9734  -0.1829   N.ar      1 RES1   0.0000
     5 N2      -2.8745   8.6750   1.2194   N.ar      1 RES1   0.0000
     6 N3      -0.8472   9.6563   2.4856   N.2       1 RES1   0.0000
     7 N4       0.3002  10.0419   3.1250   N.2       1 RES1   0.0000
     8 O3       6.0542   9.9924   5.7321   O.3       1 RES1   0.0000
     9 N5      -1.4610   5.9795   0.8889   N.2       1 RES1   0.0000
    10 N6      -2.1233   5.0129   1.6117   N.2       1 RES1   0.0000
    11 C1       1.1402   9.0103   3.1476   C.2       1 RES1   0.0000
    12 C2       2.4358   9.2395   3.8314   C.ar      1 RES1   0.0000
    13 C3      -0.4852   6.9139  -0.9881   C.ar      1 RES1   0.0000
    14 C4      -3.9106   8.1491   0.5526   C.ar      1 RES1   0.0000
    15 H1      -3.8327   7.2814   0.2280   H         1 RES1   0.0000
    16 C5      -3.0124   9.9423   1.6814   C.ar      1 RES1   0.0000
    17 C6      -1.8422  10.4592   2.3710   C.2       1 RES1   0.0000
    18 H2      -1.8150  11.3240   2.7108   H         1 RES1   0.0000
    19 C7      -2.2310   5.4578   2.8646   C.2       1 RES1   0.0000
    20 O4      -4.7090   2.1315   6.6609   O.3       1 RES1   0.0000
    21 C8      -5.0809   8.8282   0.3245   C.ar      1 RES1   0.0000
    22 H3      -5.7695   8.4322  -0.1592   H         1 RES1   0.0000
    23 C9       0.3924   9.0167  -0.6896   C.ar      1 RES1   0.0000
    24 H4       0.5693   9.7401  -0.1321   H         1 RES1   0.0000
    25 C10      3.4239   8.2684   3.8353   C.ar      1 RES1   0.0000
    26 H5       3.2607   7.4542   3.4156   H         1 RES1   0.0000
    27 C11     -1.1689   5.8100  -0.3552   C.2       1 RES1   0.0000
    28 H6      -1.3835   5.0293  -0.8136   H         1 RES1   0.0000
    29 C12      3.9199  10.6553   5.1009   C.ar      1 RES1   0.0000
    30 H7       4.0821  11.4631   5.5323   H         1 RES1   0.0000
    31 C13      4.6455   8.4757   4.4468   C.ar      1 RES1   0.0000
    32 H8       5.2973   7.8127   4.4270   H         1 RES1   0.0000
    33 C14      4.8957   9.6779   5.0891   C.ar      1 RES1   0.0000
    34 C15      2.7116  10.4465   4.4818   C.ar      1 RES1   0.0000
    35 H9       2.0681  11.1181   4.4951   H         1 RES1   0.0000
    36 C16     -4.1830  10.6646   1.4992   C.ar      1 RES1   0.0000
    37 H10     -4.2619  11.5277   1.8363   H         1 RES1   0.0000
    38 C17     -2.9650   4.9606   5.1675   C.ar      1 RES1   0.0000
    39 H11     -2.6002   5.7778   5.4198   H         1 RES1   0.0000
    40 C18     -5.2203  10.0889   0.8158   C.ar      1 RES1   0.0000
    41 H12     -6.0143  10.5563   0.6886   H         1 RES1   0.0000
    42 C19      0.8123   9.0801  -1.9881   C.ar      1 RES1   0.0000
    43 H13      1.2462   9.8380  -2.3060   H         1 RES1   0.0000
    44 C20     -2.8850   4.5880   3.8591   C.ar      1 RES1   0.0000
    45 C21      7.0544   8.9902   5.8489   C.3       1 RES1   0.0000
    46 H14      7.3553   8.7184   4.9678   H         1 RES1   0.0000
    47 H15      6.6924   8.2124   6.3015   H         1 RES1   0.0000
    48 C22     -3.5622   4.1787   6.1337   C.ar      1 RES1   0.0000
    49 H16     -3.6016   4.4774   7.0135   H         1 RES1   0.0000
    50 C23      9.2905   8.5292   6.8178   C.3       1 RES1   0.0000
    51 H17      9.6180   8.2697   5.9422   H         1 RES1   0.0000
    52 H18      8.9019   7.7406   7.2278   H         1 RES1   0.0000
    53 C24     -4.0887   2.9824   5.8030   C.ar      1 RES1   0.0000
    54 C25      8.2061   9.5510   6.6333   C.3       1 RES1   0.0000
    55 H19      8.5662  10.3224   6.1697   H         1 RES1   0.0000
    56 H20      7.8901   9.8444   7.5029   H         1 RES1   0.0000
    57 C26     -0.0663   6.9140  -2.3087   C.ar      1 RES1   0.0000
    58 H21     -0.2228   6.1763  -2.8541   H         1 RES1   0.0000
    59 C27     13.7709   7.2027   8.6952   C.3       1 RES1   0.0000
    60 H22     13.3684   6.3920   9.0454   H         1 RES1   0.0000
    61 H23     14.0871   7.0092   7.7990   H         1 RES1   0.0000
    62 C28     10.4792   8.9721   7.6619   C.3       1 RES1   0.0000
    63 H24     10.8639   9.7723   7.2706   H         1 RES1   0.0000
    64 H25     10.1670   9.1993   8.5523   H         1 RES1   0.0000
    65 C29     11.5564   7.9084   7.7726   C.3       1 RES1   0.0000
    66 H26     11.1553   7.1009   8.1307   H         1 RES1   0.0000
    67 H27     11.8775   7.7026   6.8801   H         1 RES1   0.0000
    68 C30     12.7127   8.2699   8.6145   C.3       1 RES1   0.0000
    69 H28     12.3965   8.4643   9.5098   H         1 RES1   0.0000
    70 H29     13.1133   9.0794   8.2609   H         1 RES1   0.0000
    71 C31      0.5862   8.0223  -2.8046   C.ar      1 RES1   0.0000
    72 H30      0.8697   8.0440  -3.6893   H         1 RES1   0.0000
    73 C32     -3.4291   3.3708   3.5334   C.ar      1 RES1   0.0000
    74 H31     -3.3935   3.0757   2.6533   H         1 RES1   0.0000
    75 C33     -5.4457   1.2754   8.7114   C.3       1 RES1   0.0000
    76 H32     -4.8636   0.5071   8.6024   H         1 RES1   0.0000
    77 H33     -6.2876   1.0700   8.2754   H         1 RES1   0.0000
    78 C34     -4.8249   2.4484   8.0254   C.3       1 RES1   0.0000
    79 H34     -5.3793   3.2356   8.1404   H         1 RES1   0.0000
    80 H35     -3.9494   2.6311   8.4018   H         1 RES1   0.0000
    81 C35     -5.7027   1.4844  10.1898   C.3       1 RES1   0.0000
    82 H36     -4.8681   1.7136  10.6273   H         1 RES1   0.0000
    83 H37     -6.3131   2.2293  10.3033   H         1 RES1   0.0000
    84 C36     14.9501   7.5661   9.5555   C.3       1 RES1   0.0000
    85 H38     15.3634   8.3690   9.2025   H         1 RES1   0.0000
    86 H39     14.6388   7.7615  10.4529   H         1 RES1   0.0000
    87 C37     -7.5205  -0.8502  14.3529   C.3       1 RES1   0.0000
    88 H40     -8.1701  -0.1424  14.4872   H         1 RES1   0.0000
    89 H41     -6.7298  -0.6262  14.8682   H         1 RES1   0.0000
    90 C38     -6.2842   0.2667  10.8448   C.3       1 RES1   0.0000
    91 H42     -7.0937   0.0244  10.3686   H         1 RES1   0.0000
    92 H43     -5.6556  -0.4643  10.7368   H         1 RES1   0.0000
    93 C39     -7.1567  -0.9019  12.9090   C.3       1 RES1   0.0000
    94 H44     -7.9430  -1.1680  12.4091   H         1 RES1   0.0000
    95 H45     -6.4896  -1.5965  12.7914   H         1 RES1   0.0000
    96 C40     -8.4770  -2.1156  16.3087   C.3       1 RES1   0.0000
    97 H46     -9.1793  -1.4601  16.4443   H         1 RES1   0.0000
    98 H47     -7.7116  -1.8519  16.8443   H         1 RES1   0.0000
    99 C41     -6.6149   0.3877  12.2955   C.3       1 RES1   0.0000
   100 H48     -7.2744   1.0893  12.4103   H         1 RES1   0.0000
   101 H49     -5.8160   0.6522  12.7789   H         1 RES1   0.0000
   102 C42     -4.0240   2.5794   4.4860   C.ar      1 RES1   0.0000
   103 H50     -4.3889   1.7610   4.2378   H         1 RES1   0.0000
   104 C43     15.9684   6.4827   9.6201   C.3       1 RES1   0.0000
   105 H51     15.5776   5.6730   9.9830   H         1 RES1   0.0000
   106 H52     16.3117   6.2895   8.7331   H         1 RES1   0.0000
   107 C44     -8.9559  -3.4623  16.7492   C.2       1 RES1   0.0000
   108 H53     -8.3776  -4.1674  16.5678   H         1 RES1   0.0000
   109 C45     -8.0968  -2.1488  14.8810   C.3       1 RES1   0.0000
   110 H54     -8.8804  -2.3765  14.3564   H         1 RES1   0.0000
   111 H55     -7.4426  -2.8539  14.7505   H         1 RES1   0.0000
   112 C46     17.0600   6.9694  10.5011   C.2       1 RES1   0.0000
   113 H56     16.9071   7.8804  10.6061   H         1 RES1   0.0000
   114 C47     18.0923   6.7234  11.1677   C.2       1 RES1   0.0000
   115 H57     18.4289   5.8565  11.2023   H         1 RES1   0.0000
   116 H58     18.5217   7.4067  11.6302   H         1 RES1   0.0000
   117 C48     -9.9781  -3.7675  17.3005   C.2       1 RES1   0.0000
   118 H59    -10.6046  -3.1144  17.5140   H         1 RES1   0.0000
   119 H60    -10.1422  -4.6575  17.5159   H         1 RES1   0.0000
@<TRIPOS>BOND
     1     1     2    1
     2     2    11    1
     3     3     1    1
     4     4     1    1
     5     5     1    1
     6     6     1    1
     7     7     6    1
     8     8    33    1
     9     9     1    1
    10    10     9    1
    11    11     7    2
    12    12    11    1
    13    13     4   ar
    14    14     5   ar
    15    15    14    1
    16    16     5   ar
    17    17     6    2
    18    18    17    1
    19    19     3    1
    20    20    53    1
    21    21    14   ar
    22    22    21    1
    23    23     4   ar
    24    24    23    1
    25    25    12   ar
    26    26    25    1
    27    27     9    2
    28    28    27    1
    29    29    30    1
    30    31    25   ar
    31    32    31    1
    32    33    29   ar
    33    34    12   ar
    34    35    34    1
    35    36    16   ar
    36    37    36    1
    37    38    39    1
    38    40    21   ar
    39    41    40    1
    40    42    23   ar
    41    43    42    1
    42    44    19    1
    43    45     8    1
    44    46    45    1
    45    47    45    1
    46    48    38   ar
    47    49    48    1
    48    50    51    1
    49    52    50    1
    50    53    48   ar
    51    54    45    1
    52    55    54    1
    53    56    54    1
    54    57    13   ar
    55    58    57    1
    56    59    60    1
    57    61    59    1
    58    62    50    1
    59    63    62    1
    60    64    62    1
    61    65    62    1
    62    66    65    1
    63    67    65    1
    64    68    59    1
    65    69    68    1
    66    70    68    1
    67    71    42   ar
    68    72    71    1
    69    73    44   ar
    70    74    73    1
    71    75    76    1
    72    77    75    1
    73    78    20    1
    74    79    78    1
    75    80    78    1
    76    81    75    1
    77    82    81    1
    78    83    81    1
    79    84    59    1
    80    85    84    1
    81    86    84    1
    82    87    88    1
    83    89    87    1
    84    90    81    1
    85    91    90    1
    86    92    90    1
    87    93    87    1
    88    94    93    1
    89    95    93    1
    90    96    97    1
    91    98    96    1
    92    99    90    1
    93   100    99    1
    94   101    99    1
    95   102    53   ar
    96   103   102    1
    97   104    84    1
    98   105   104    1
    99   106   104    1
   100   107    96    1
   101   108   107    1
   102   109    87    1
   103   110   109    1
   104   111   109    1
   105   112   104    1
   106   113   112    1
   107   114   112    2
   108   115   114    1
   109   116   114    1
   110   117   107    2
   111   118   117    1
   112   119   117    1
   113    10    19    2
   114    13    27    1
   115    16    17    1
   116    29    34   ar
   117    31    33   ar
   118    36    40   ar
   119    38    44   ar
   120    50    54    1
   121    57    71   ar
   122    65    68    1
   123    73   102   ar
   124    75    78    1
   125    93    99    1
   126    96   109    1
@<TRIPOS>SUBSTRUCTURE
     1 RES1        1 GROUP             0 ****  ****    0  
@<TRIPOS>CRYSIN
    9.1950   11.1984   23.1034   87.4520   87.5940   84.0780     2     1
