@<TRIPOS>MOLECULE
HAZQAD
    93    97     1     0     0
SMALL
NO_CHARGES
****
Generated from the CSD

@<TRIPOS>ATOM
     1 Fe1      7.4553   5.4240  12.0192   Fe        1 RES1   0.0000
     2 N1       6.0195   4.0626  12.0386   N.2       1 RES1   0.0000
     3 N2       5.3383   3.3747  11.0968   N.2       1 RES1   0.0000
     4 N3       7.2306   5.1818  13.9374   N.ar      1 RES1   0.0000
     5 N4       9.6010   7.6106  12.1319   N.2       1 RES1   0.0000
     6 N5       8.7908   6.7020  12.6988   N.2       1 RES1   0.0000
     7 N6       9.1650   2.9368  11.8214   N.1       1 RES1   0.0000
     8 N7       8.0923   6.1878   9.1865   N.1       1 RES1   0.0000
     9 N8       5.6591   7.8478  12.1765   N.1       1 RES1   0.0000
    10 C1       4.5132   2.5264  11.7603   C.2       1 RES1   0.0000
    11 C2       4.6728   2.6604  13.1386   C.2       1 RES1   0.0000
    12 H1       4.2215   2.1859  13.8273   H         1 RES1   0.0000
    13 C3       5.6403   3.6439  13.2739   C.2       1 RES1   0.0000
    14 C4       6.3121   4.3030  14.3764   C.ar      1 RES1   0.0000
    15 C5       6.0988   4.1548  15.7404   C.ar      1 RES1   0.0000
    16 H2       5.4547   3.5375  16.0658   H         1 RES1   0.0000
    17 C6       6.8475   4.9296  16.6207   C.ar      1 RES1   0.0000
    18 H3       6.7091   4.8396  17.5567   H         1 RES1   0.0000
    19 C7       7.7871   5.8274  16.1591   C.ar      1 RES1   0.0000
    20 H4       8.3021   6.3520  16.7618   H         1 RES1   0.0000
    21 C8       7.9585   5.9434  14.7800   C.ar      1 RES1   0.0000
    22 C9       8.8349   6.8348  14.0579   C.2       1 RES1   0.0000
    23 C10      9.7113   7.8596  14.3894   C.2       1 RES1   0.0000
    24 H5       9.9449   8.1763  15.2546   H         1 RES1   0.0000
    25 C11     10.1656   8.3131  13.1519   C.2       1 RES1   0.0000
    26 C12      3.5914   1.6216  10.9759   C.3       1 RES1   0.0000
    27 C13      2.6841   2.4609  10.0831   C.3       1 RES1   0.0000
    28 H6       3.2313   2.9751   9.4520   H         1 RES1   0.0000
    29 H7       2.1586   3.0767  10.6369   H         1 RES1   0.0000
    30 H8       2.0787   1.8716   9.5861   H         1 RES1   0.0000
    31 C14      4.4206   0.6827  10.1169   C.3       1 RES1   0.0000
    32 H9       4.9572   1.2052   9.4859   H         1 RES1   0.0000
    33 H10      3.8258   0.0827   9.6227   H         1 RES1   0.0000
    34 H11      5.0143   0.1536  10.6911   H         1 RES1   0.0000
    35 C15      2.7191   0.7973  11.9167   C.3       1 RES1   0.0000
    36 H12      2.1931   1.3989  12.4854   H         1 RES1   0.0000
    37 H13      3.2887   0.2316  12.4786   H         1 RES1   0.0000
    38 H14      2.1147   0.2316  11.3912   H         1 RES1   0.0000
    39 C16     11.1347   9.4264  12.8354   C.3       1 RES1   0.0000
    40 C17     11.7399   9.9895  14.1201   C.3       1 RES1   0.0000
    41 H15     11.0269  10.3527  14.6859   H         1 RES1   0.0000
    42 H16     12.3745  10.7024  13.8978   H         1 RES1   0.0000
    43 H17     12.2063   9.2751  14.6019   H         1 RES1   0.0000
    44 C18     10.4053  10.5389  12.0790   C.3       1 RES1   0.0000
    45 H18      9.6932  10.9057  12.6438   H         1 RES1   0.0000
    46 H19     10.0154  10.1731  11.2571   H         1 RES1   0.0000
    47 H20     11.0408  11.2507  11.8516   H         1 RES1   0.0000
    48 C19     12.2509   8.8819  11.9526   C.3       1 RES1   0.0000
    49 H21     12.7442   8.1881  12.4393   H         1 RES1   0.0000
    50 H22     12.8618   9.6107  11.7121   H         1 RES1   0.0000
    51 H23     11.8645   8.4977  11.1380   H         1 RES1   0.0000
    52 C20      8.6137   3.9428  11.9085   C.1       1 RES1   0.0000
    53 C21      9.5054   1.5263  11.7541   C.3       1 RES1   0.0000
    54 C22      8.2059   0.7767  11.5740   C.3       1 RES1   0.0000
    55 H24      7.7742   1.0658  10.7439   H         1 RES1   0.0000
    56 H25      7.6142   0.9618  12.3337   H         1 RES1   0.0000
    57 H26      8.3875  -0.1843  11.5293   H         1 RES1   0.0000
    58 C23     10.4151   1.3217  10.5543   C.3       1 RES1   0.0000
    59 H27      9.9383   1.5762   9.7364   H         1 RES1   0.0000
    60 H28     10.6779   0.3781  10.5015   H         1 RES1   0.0000
    61 H29     11.2149   1.8787  10.6532   H         1 RES1   0.0000
    62 C24     10.1908   1.1607  13.0487   C.3       1 RES1   0.0000
    63 H30     11.0206   1.6731  13.1354   H         1 RES1   0.0000
    64 H31     10.3969   0.2032  13.0500   H         1 RES1   0.0000
    65 H32      9.5987   1.3682  13.8016   H         1 RES1   0.0000
    66 C25      7.7849   5.8241  10.2408   C.1       1 RES1   0.0000
    67 C26      8.7603   6.9002   8.1036   C.3       1 RES1   0.0000
    68 C27      7.8710   6.8693   6.8744   C.3       1 RES1   0.0000
    69 H33      7.7409   5.9408   6.5880   H         1 RES1   0.0000
    70 H34      8.2946   7.3776   6.1520   H         1 RES1   0.0000
    71 H35      7.0023   7.2689   7.0890   H         1 RES1   0.0000
    72 C28     10.0809   6.1979   7.8555   C.3       1 RES1   0.0000
    73 H36      9.9122   5.2721   7.5792   H         1 RES1   0.0000
    74 H37     10.6131   6.2007   8.6788   H         1 RES1   0.0000
    75 H38     10.5715   6.6663   7.1473   H         1 RES1   0.0000
    76 C29      8.9775   8.3223   8.5866   C.3       1 RES1   0.0000
    77 H39      8.1107   8.7411   8.7736   H         1 RES1   0.0000
    78 H40      9.4442   8.8356   7.8934   H         1 RES1   0.0000
    79 H41      9.5181   8.3110   9.4046   H         1 RES1   0.0000
    80 C30      6.2634   6.8719  12.0811   C.1       1 RES1   0.0000
    81 C31      5.3284   9.2385  12.4405   C.3       1 RES1   0.0000
    82 C32      4.3195   9.2661  13.5803   C.3       1 RES1   0.0000
    83 H42      3.5050   8.7954  13.3073   H         1 RES1   0.0000
    84 H43      4.1021  10.1967  13.8016   H         1 RES1   0.0000
    85 H44      4.7031   8.8238  14.3663   H         1 RES1   0.0000
    86 C33      6.6387   9.9141  12.8327   C.3       1 RES1   0.0000
    87 H45      6.9962   9.4902  13.6405   H         1 RES1   0.0000
    88 H46      6.4769  10.8655  13.0067   H         1 RES1   0.0000
    89 H47      7.2858   9.8210  12.1021   H         1 RES1   0.0000
    90 C34      4.7513   9.8430  11.1706   C.3       1 RES1   0.0000
    91 H48      3.9074   9.3956  10.9497   H         1 RES1   0.0000
    92 H49      5.3866   9.7241  10.4338   H         1 RES1   0.0000
    93 H50      4.5866  10.7993  11.3099   H         1 RES1   0.0000
@<TRIPOS>BOND
     1     1     2    1
     2     2     3    1
     3     3    10    2
     4     4     1    1
     5     5     6    1
     6     6     1    1
     7     7    52    3
     8     8    66    3
     9     9    80    3
    10    10    11    1
    11    11    12    1
    12    13     2    1
    13    14     4   ar
    14    15    14   ar
    15    16    15    1
    16    17    15   ar
    17    18    17    1
    18    19    17   ar
    19    20    19    1
    20    21     4   ar
    21    22     6    1
    22    23    22    2
    23    24    23    1
    24    25     5    2
    25    26    10    1
    26    27    26    1
    27    28    27    1
    28    29    27    1
    29    30    27    1
    30    31    26    1
    31    32    31    1
    32    33    31    1
    33    34    31    1
    34    35    26    1
    35    36    35    1
    36    37    35    1
    37    38    35    1
    38    39    25    1
    39    40    39    1
    40    41    40    1
    41    42    40    1
    42    43    40    1
    43    44    39    1
    44    45    44    1
    45    46    44    1
    46    47    44    1
    47    48    39    1
    48    49    48    1
    49    50    48    1
    50    51    48    1
    51    52     1    1
    52    53     7    1
    53    54    53    1
    54    55    54    1
    55    56    54    1
    56    57    54    1
    57    58    53    1
    58    59    58    1
    59    60    58    1
    60    61    58    1
    61    62    53    1
    62    63    62    1
    63    64    62    1
    64    65    62    1
    65    66     1    1
    66    67     8    1
    67    68    67    1
    68    69    68    1
    69    70    68    1
    70    71    68    1
    71    72    67    1
    72    73    72    1
    73    74    72    1
    74    75    72    1
    75    76    67    1
    76    77    76    1
    77    78    76    1
    78    79    76    1
    79    80     1    1
    80    81     9    1
    81    82    81    1
    82    83    82    1
    83    84    82    1
    84    85    82    1
    85    86    81    1
    86    87    86    1
    87    88    86    1
    88    89    86    1
    89    90    81    1
    90    91    90    1
    91    92    90    1
    92    93    90    1
    93    11    13    2
    94    13    14    1
    95    19    21   ar
    96    21    22    1
    97    23    25    1
@<TRIPOS>SUBSTRUCTURE
     1 RES1        1 GROUP             0 ****  ****    0  
@<TRIPOS>CRYSIN
   11.5986   23.6309   14.0443   90.0000  105.3760   90.0000   231     1
