@<TRIPOS>MOLECULE
HAZRAE
   134   138     4     0     0
SMALL
USER_CHARGES
****
Generated from the CSD

@<TRIPOS>ATOM
     1 Fe1     10.8068   0.6846  14.7642   Fe        1 RES1   2.0000
     2 N1      10.8202   2.0596  17.8710   N.pl3     1 RES1   0.0000
     3 N2      10.2321   1.6833  16.7044   N.2       1 RES1   0.0000
     4 N3       8.7617   1.3607  14.5440   N.ar      1 RES1   0.0000
     5 N4      10.1726   0.1542  12.6539   N.2       1 RES1   0.0000
     6 N5      10.6170  -0.5482  11.5768   N.pl3     1 RES1   0.0000
     7 N6      12.8348  -0.1515  15.0043   N.ar      1 RES1   0.0000
     8 N7      16.4144  -2.3583  14.8337   N.pl3     1 RES1   0.0000
     9 N8      11.6166   2.5999  14.1608   N.ar      1 RES1   0.0000
    10 N9      12.8796   6.5069  13.2232   N.pl3     1 RES1   0.0000
    11 N10     10.0393  -1.2818  15.3836   N.ar      1 RES1   0.0000
    12 N11      8.6719  -5.0952  16.5088   N.pl3     1 RES1   0.0000
    13 C1       9.9961   2.8638  18.6051   C.2       1 RES1   0.0000
    14 C2       8.8252   2.9902  17.8805   C.2       1 RES1   0.0000
    15 C3       9.0275   2.2619  16.7065   C.2       1 RES1   0.0000
    16 C4       8.1798   2.0929  15.5207   C.ar      1 RES1   0.0000
    17 C5       6.9051   2.6279  15.3679   C.ar      1 RES1   0.0000
    18 C6       6.2174   2.3546  14.1898   C.ar      1 RES1   0.0000
    19 C7       6.8015   1.5717  13.2118   C.ar      1 RES1   0.0000
    20 C8       8.0954   1.1053  13.4170   C.ar      1 RES1   0.0000
    21 C9       8.8566   0.3242  12.4322   C.2       1 RES1   0.0000
    22 C10      8.4668  -0.2602  11.2302   C.2       1 RES1   0.0000
    23 C11      9.6172  -0.8142  10.6946   C.2       1 RES1   0.0000
    24 C12     10.4048   3.5679  19.8846   C.3       1 RES1   0.0000
    25 C13     11.3530   4.7317  19.5144   C.3       1 RES1   0.0000
    26 C14      9.1447   4.1371  20.5416   C.3       1 RES1   0.0000
    27 C15     11.0755   2.6350  20.8985   C.3       1 RES1   0.0000
    28 C16      9.7904  -1.5301   9.3688   C.3       1 RES1   0.0000
    29 C17      8.3865  -1.7344   8.7875   C.3       1 RES1   0.0000
    30 C18     10.6061  -0.6720   8.3907   C.3       1 RES1   0.0000
    31 C19     10.4257  -2.9106   9.5149   C.3       1 RES1   0.0000
    32 C20     12.1543   1.5597  18.1553   C.3       1 RES1   0.0000
    33 C21     12.0386  -0.7680  11.4759   C.3       1 RES1   0.0000
    34 C22     13.8501   0.1786  14.1749   C.ar      1 RES1   0.0000
    35 C23     15.0363  -0.4929  14.0857   C.ar      1 RES1   0.0000
    36 C24     15.2745  -1.6232  14.8976   C.ar      1 RES1   0.0000
    37 C25     14.2306  -1.9519  15.7937   C.ar      1 RES1   0.0000
    38 C26     13.0837  -1.2134  15.8044   C.ar      1 RES1   0.0000
    39 C27     17.5232  -1.9644  13.9681   C.3       1 RES1   0.0000
    40 C28     16.6287  -3.4721  15.7292   C.3       1 RES1   0.0000
    41 C29     12.5618   3.2569  14.8827   C.ar      1 RES1   0.0000
    42 C30     13.0026   4.5271  14.6166   C.ar      1 RES1   0.0000
    43 C31     12.4690   5.2427  13.5263   C.ar      1 RES1   0.0000
    44 C32     11.4797   4.5661  12.7800   C.ar      1 RES1   0.0000
    45 C33     11.1109   3.2949  13.1249   C.ar      1 RES1   0.0000
    46 C34     13.8391   7.1960  14.0617   C.3       1 RES1   0.0000
    47 C35     12.3125   7.2226  12.0951   C.3       1 RES1   0.0000
    48 C36     10.1607  -2.3681  14.5887   C.ar      1 RES1   0.0000
    49 C37      9.7685  -3.6328  14.9254   C.ar      1 RES1   0.0000
    50 C38      9.1579  -3.8784  16.1688   C.ar      1 RES1   0.0000
    51 C39      9.0628  -2.7575  17.0163   C.ar      1 RES1   0.0000
    52 C40      9.5062  -1.5278  16.5946   C.ar      1 RES1   0.0000
    53 C41      8.9212  -6.2667  15.6940   C.3       1 RES1   0.0000
    54 C42      7.9790  -5.2832  17.7670   C.3       1 RES1   0.0000
    55 H1       8.0452   3.4763  18.1260   H         1 RES1   0.0000
    56 H2       6.5172   3.1596  16.0541   H         1 RES1   0.0000
    57 H3       5.3467   2.7164  14.0520   H         1 RES1   0.0000
    58 H4       6.3338   1.3518  12.4138   H         1 RES1   0.0000
    59 H5       7.5915  -0.2809  10.8590   H         1 RES1   0.0000
    60 H6      11.6194   5.1925  20.3025   H         1 RES1   0.0000
    61 H7      12.1210   4.3754  19.0806   H         1 RES1   0.0000
    62 H8      10.9082   5.3379  18.9296   H         1 RES1   0.0000
    63 H9       9.3832   4.5858  21.3442   H         1 RES1   0.0000
    64 H10      8.5460   3.4260  20.7420   H         1 RES1   0.0000
    65 H11      8.7219   4.7512  19.9500   H         1 RES1   0.0000
    66 H12     11.3093   3.1256  21.6792   H         1 RES1   0.0000
    67 H13     11.8604   2.2657  20.5077   H         1 RES1   0.0000
    68 H14     10.4773   1.9331  21.1312   H         1 RES1   0.0000
    69 H15      8.4439  -2.1907   7.9564   H         1 RES1   0.0000
    70 H16      7.8606  -2.2445   9.3932   H         1 RES1   0.0000
    71 H17      7.9818  -0.8812   8.6554   H         1 RES1   0.0000
    72 H18     10.7127  -1.1384   7.5691   H         1 RES1   0.0000
    73 H19     11.4605  -0.4898   8.7658   H         1 RES1   0.0000
    74 H20     10.1461   0.1484   8.2352   H         1 RES1   0.0000
    75 H21     10.5088  -3.3121   8.6573   H         1 RES1   0.0000
    76 H22     11.2874  -2.8243   9.9082   H         1 RES1   0.0000
    77 H23      9.8771  -3.4564  10.0670   H         1 RES1   0.0000
    78 H24     12.6195   2.1962  18.6856   H         1 RES1   0.0000
    79 H25     12.0940   0.7352  18.6275   H         1 RES1   0.0000
    80 H26     12.6245   1.4247  17.3399   H         1 RES1   0.0000
    81 H27     12.2339  -1.2664  10.6905   H         1 RES1   0.0000
    82 H28     12.3302  -1.2558  12.2396   H         1 RES1   0.0000
    83 H29     12.4897   0.0688  11.4418   H         1 RES1   0.0000
    84 H30     13.7273   0.9358  13.6124   H         1 RES1   0.0000
    85 H31     15.7042  -0.1979  13.4769   H         1 RES1   0.0000
    86 H32     14.3274  -2.6877  16.3891   H         1 RES1   0.0000
    87 H33     12.4026  -1.4678  16.4162   H         1 RES1   0.0000
    88 H34     18.2278  -2.6001  14.0500   H         1 RES1   0.0000
    89 H35     17.8366  -1.1064  14.2340   H         1 RES1   0.0000
    90 H36     17.2321  -1.9283  13.0644   H         1 RES1   0.0000
    91 H37     17.4732  -3.8656  15.5333   H         1 RES1   0.0000
    92 H38     16.6230  -3.1632  16.6273   H         1 RES1   0.0000
    93 H39     15.9420  -4.1206  15.6127   H         1 RES1   0.0000
    94 H40     12.9490   2.7958  15.6185   H         1 RES1   0.0000
    95 H41     13.6648   4.9287  15.1673   H         1 RES1   0.0000
    96 H42     11.0665   4.9988  12.0401   H         1 RES1   0.0000
    97 H43     10.4510   2.8669  12.5920   H         1 RES1   0.0000
    98 H44     14.0075   8.0602  13.6996   H         1 RES1   0.0000
    99 H45     13.4953   7.2846  14.9427   H         1 RES1   0.0000
   100 H46     14.6492   6.6965  14.0868   H         1 RES1   0.0000
   101 H47     12.7182   8.0811  12.0324   H         1 RES1   0.0000
   102 H48     11.3760   7.3256  12.2279   H         1 RES1   0.0000
   103 H49     12.4680   6.7372  11.2927   H         1 RES1   0.0000
   104 H50     10.5292  -2.2380  13.7228   H         1 RES1   0.0000
   105 H51      9.9161  -4.3521  14.3211   H         1 RES1   0.0000
   106 H52      8.7075  -2.8549  17.8917   H         1 RES1   0.0000
   107 H53      9.4300  -0.7986  17.2004   H         1 RES1   0.0000
   108 H54      8.5078  -7.0261  16.0929   H         1 RES1   0.0000
   109 H55      9.8588  -6.4186  15.6243   H         1 RES1   0.0000
   110 H56      8.5574  -6.1256  14.8284   H         1 RES1   0.0000
   111 H57      7.7095  -6.1920  17.8530   H         1 RES1   0.0000
   112 H58      8.5522  -5.0532  18.4900   H         1 RES1   0.0000
   113 H59      7.2108  -4.7205  17.7775   H         1 RES1   0.0000
   114 Cl1      8.3419   7.3590  11.8924   Cl        2 RES2   0.0000
   115 Cl2      6.2279   6.0204  13.3832   Cl        2 RES2   0.0000
   116 C43      7.1094   6.1119  11.8562   C.3       2 RES2   0.0000
   117 H60      7.5203   5.2699  11.6819   H         2 RES2   0.0000
   118 H61      6.4932   6.3156  11.1610   H         2 RES2   0.0000
   119 S1      15.7776   5.0095  17.7407   S.o2      3 RES3   0.0000
   120 F1      16.1565   7.3900  18.7923   F         3 RES3   0.0000
   121 F2      14.2010   7.0809  17.9866   F         3 RES3   0.0000
   122 F3      14.7340   6.1774  19.8484   F         3 RES3   0.0000
   123 O1      16.1555   5.5329  16.4615   O.2       3 RES3   0.0000
   124 O2      16.8697   4.5472  18.5627   O.3       3 RES3  -1.0000
   125 O3      14.6183   4.1607  17.7182   O.2       3 RES3   0.0000
   126 C44     15.1894   6.4766  18.6419   C.3       3 RES3   0.0000
   127 S2       9.1003   2.9863   9.6784   S.o2      4 RES4   0.0000
   128 F4      10.2414   5.3758   9.5984   F         4 RES4   0.0000
   129 F5       9.9706   4.4657   7.6692   F         4 RES4   0.0000
   130 F6       8.2772   5.2977   8.7274   F         4 RES4   0.0000
   131 O4       8.3158   2.3015   8.6932   O.3       4 RES4  -1.0000
   132 O5       8.4128   3.3484  10.8828   O.2       4 RES4   0.0000
   133 O6      10.4118   2.4629   9.8921   O.2       4 RES4   0.0000
   134 C45      9.4147   4.6338   8.8839   C.3       4 RES4   0.0000
@<TRIPOS>BOND
     1     1     3    1
     2     2     3    1
     3     3    15    2
     4     4     1    1
     5     5     1    1
     6     6     5    1
     7     7     1    1
     8     8    36    1
     9     9     1    1
    10    10    43    1
    11    11     1    1
    12    12    50    1
    13    13     2    1
    14    14    13    2
    15    15    14    1
    16    16     4   ar
    17    17    16   ar
    18    18    17   ar
    19    19    18   ar
    20    20     4   ar
    21    21     5    2
    22    22    21    1
    23    23     6    1
    24    24    13    1
    25    25    24    1
    26    26    24    1
    27    27    24    1
    28    28    23    1
    29    29    28    1
    30    30    28    1
    31    31    28    1
    32    32     2    1
    33    33     6    1
    34    34     7   ar
    35    35    34   ar
    36    36    35   ar
    37    37    36   ar
    38    38     7   ar
    39    39     8    1
    40    40     8    1
    41    41     9   ar
    42    42    41   ar
    43    43    42   ar
    44    44    43   ar
    45    45     9   ar
    46    46    10    1
    47    47    10    1
    48    48    11   ar
    49    49    48   ar
    50    50    49   ar
    51    51    50   ar
    52    52    11   ar
    53    53    12    1
    54    54    12    1
    55    55    14    1
    56    56    17    1
    57    57    18    1
    58    58    19    1
    59    59    22    1
    60    60    25    1
    61    61    25    1
    62    62    25    1
    63    63    26    1
    64    64    26    1
    65    65    26    1
    66    66    27    1
    67    67    27    1
    68    68    27    1
    69    69    29    1
    70    70    29    1
    71    71    29    1
    72    72    30    1
    73    73    30    1
    74    74    30    1
    75    75    31    1
    76    76    31    1
    77    77    31    1
    78    78    32    1
    79    79    32    1
    80    80    32    1
    81    81    33    1
    82    82    33    1
    83    83    33    1
    84    84    34    1
    85    85    35    1
    86    86    37    1
    87    87    38    1
    88    88    39    1
    89    89    39    1
    90    90    39    1
    91    91    40    1
    92    92    40    1
    93    93    40    1
    94    94    41    1
    95    95    42    1
    96    96    44    1
    97    97    45    1
    98    98    46    1
    99    99    46    1
   100   100    46    1
   101   101    47    1
   102   102    47    1
   103   103    47    1
   104   104    48    1
   105   105    49    1
   106   106    51    1
   107   107    52    1
   108   108    53    1
   109   109    53    1
   110   110    53    1
   111   111    54    1
   112   112    54    1
   113   113    54    1
   114    15    16    1
   115    19    20   ar
   116    20    21    1
   117    22    23    2
   118    37    38   ar
   119    44    45   ar
   120    51    52   ar
   121   114   116    1
   122   115   116    1
   123   116   117    1
   124   118   116    1
   125   119   123    2
   126   120   126    1
   127   121   126    1
   128   122   126    1
   129   124   119    1
   130   125   119    2
   131   126   119    1
   132   127   131    1
   133   128   134    1
   134   129   134    1
   135   130   134    1
   136   132   127    2
   137   133   127    2
   138   134   127    1
@<TRIPOS>SUBSTRUCTURE
     1 RES1        1 GROUP             0 ****  ****    0  
     2 RES2      114 GROUP             0 ****  ****    0  
     3 RES3      119 GROUP             0 ****  ****    0  
     4 RES4      127 GROUP             0 ****  ****    0  
@<TRIPOS>CRYSIN
   11.2542   12.2151   19.5790   84.4160   83.4380   88.3600     2     1
