@<TRIPOS>MOLECULE
HEBNOR
    89    97     2     0     0
SMALL
NO_CHARGES
****
Generated from the CSD

@<TRIPOS>ATOM
     1 Fe1      3.0757   9.5386   0.2750   Fe        1 RES1   0.0000
     2 C1       3.0865  11.2633   0.5096   C.1       1 RES1   0.0000
     3 O1       3.0773  12.4130   0.5619   O.2       1 RES1   0.0000
     4 S1       1.1929   9.2120   1.5360   S.3       1 RES1   0.0000
     5 S2       4.8627   9.7481  -1.1373   S.3       1 RES1   0.0000
     6 N1       2.9097   7.5194  -0.2075   N.pl3     1 RES1   0.0000
     7 N2       1.9074   9.7669  -1.4093   N.pl3     1 RES1   0.0000
     8 C2       2.0039   6.7488   0.6601   C.ar      1 RES1   0.0000
     9 C3       2.0118   5.3646   0.6394   C.ar      1 RES1   0.0000
    10 C4       1.1680   4.6531   1.4725   C.ar      1 RES1   0.0000
    11 C5       0.2938   5.3330   2.2991   C.ar      1 RES1   0.0000
    12 C6       0.2579   6.7080   2.3077   C.ar      1 RES1   0.0000
    13 C7       1.1306   7.4470   1.4901   C.ar      1 RES1   0.0000
    14 C8       2.6065  10.3907  -2.5354   C.ar      1 RES1   0.0000
    15 C9       1.8898  10.9249  -3.6030   C.ar      1 RES1   0.0000
    16 C10      2.5520  11.5426  -4.6454   C.ar      1 RES1   0.0000
    17 C11      3.9508  11.6231  -4.6149   C.ar      1 RES1   0.0000
    18 C12      4.6603  11.0625  -3.5693   C.ar      1 RES1   0.0000
    19 C13      3.9989  10.4437  -2.5030   C.ar      1 RES1   0.0000
    20 C14      2.4770   7.4419  -1.6365   C.3       1 RES1   0.0000
    21 C15      1.3635   8.4378  -1.8010   C.3       1 RES1   0.0000
    22 P1       4.4289   9.1701   2.0422   P.3       1 RES1   0.0000
    23 C16      3.8108   9.6681   3.7032   C.3       1 RES1   0.0000
    24 P2       4.0151  11.4677   4.1172   P.3       1 RES1   0.0000
    25 C17      5.5738   6.7019   1.3883   C.ar      1 RES1   0.0000
    26 C18      5.7137   5.3309   1.4533   C.ar      1 RES1   0.0000
    27 C19      4.9846   4.6083   2.3945   C.ar      1 RES1   0.0000
    28 C20      4.1281   5.2545   3.2595   C.ar      1 RES1   0.0000
    29 C21      3.9906   6.6356   3.1955   C.ar      1 RES1   0.0000
    30 C22      4.7154   7.3757   2.2704   C.ar      1 RES1   0.0000
    31 C23      6.2970  11.2082   1.5901   C.ar      1 RES1   0.0000
    32 C24      7.5347  11.8310   1.6948   C.ar      1 RES1   0.0000
    33 C25      8.6020  11.1542   2.2248   C.ar      1 RES1   0.0000
    34 C26      8.4455   9.8526   2.6618   C.ar      1 RES1   0.0000
    35 C27      7.2081   9.2257   2.5784   C.ar      1 RES1   0.0000
    36 C28      6.1191   9.8994   2.0380   C.ar      1 RES1   0.0000
    37 C29      6.1144  10.4162   5.7936   C.ar      1 RES1   0.0000
    38 C30      7.1675  10.6089   6.6718   C.ar      1 RES1   0.0000
    39 C31      7.6031  11.8728   6.9948   C.ar      1 RES1   0.0000
    40 C32      6.9975  12.9614   6.4329   C.ar      1 RES1   0.0000
    41 C33      5.9501  12.7841   5.5431   C.ar      1 RES1   0.0000
    42 C34      5.4809  11.5161   5.2172   C.ar      1 RES1   0.0000
    43 C35      1.3661  11.7240   4.8734   C.ar      1 RES1   0.0000
    44 C36      0.2903  11.7729   5.7304   C.ar      1 RES1   0.0000
    45 C37      0.4865  11.7036   7.1114   C.ar      1 RES1   0.0000
    46 C38      1.7629  11.5691   7.6026   C.ar      1 RES1   0.0000
    47 C39      2.8395  11.5140   6.7407   C.ar      1 RES1   0.0000
    48 C40      2.6626  11.5884   5.3602   C.ar      1 RES1   0.0000
    49 H1       3.7608   7.0719  -0.0933   H         1 RES1   0.0000
    50 H2       1.1266  10.3428  -1.2616   H         1 RES1   0.0000
    51 H3       2.6648   4.8947   0.0285   H         1 RES1   0.0000
    52 H4       1.1939   3.6848   1.4844   H         1 RES1   0.0000
    53 H5      -0.2704   4.7296   2.8548   H         1 RES1   0.0000
    54 H6      -0.5003   7.2136   2.8445   H         1 RES1   0.0000
    55 H7       0.8222  10.8606  -3.5232   H         1 RES1   0.0000
    56 H8       2.0794  11.9095  -5.3884   H         1 RES1   0.0000
    57 H9       4.4474  11.9829  -5.4066   H         1 RES1   0.0000
    58 H10      5.6689  11.0146  -3.5750   H         1 RES1   0.0000
    59 H11      2.2045   6.4583  -1.8367   H         1 RES1   0.0000
    60 H12      3.2348   7.7100  -2.1295   H         1 RES1   0.0000
    61 H13      0.5541   8.2084  -1.2409   H         1 RES1   0.0000
    62 H14      1.0616   8.4215  -2.7201   H         1 RES1   0.0000
    63 H15      4.1189   9.1696   4.4221   H         1 RES1   0.0000
    64 H16      2.8308   9.5478   3.6320   H         1 RES1   0.0000
    65 H17      6.1027   7.2187   0.7616   H         1 RES1   0.0000
    66 H18      6.3082   4.8284   0.7487   H         1 RES1   0.0000
    67 H19      4.9015   3.5655   2.4274   H         1 RES1   0.0000
    68 H20      3.4337   4.7764   3.9584   H         1 RES1   0.0000
    69 H21      3.4041   7.0790   3.8859   H         1 RES1   0.0000
    70 H22      5.5987  11.7342   1.0362   H         1 RES1   0.0000
    71 H23      7.7143  12.7412   1.2772   H         1 RES1   0.0000
    72 H24      9.4277  11.5945   2.4352   H         1 RES1   0.0000
    73 H25      9.2312   9.3235   2.9999   H         1 RES1   0.0000
    74 H26      7.1308   8.1738   2.9636   H         1 RES1   0.0000
    75 H27      5.7385   9.4978   5.5128   H         1 RES1   0.0000
    76 H28      7.5938   9.8342   7.1733   H         1 RES1   0.0000
    77 H29      8.3871  11.9472   7.5516   H         1 RES1   0.0000
    78 H30      7.2217  13.9450   6.6682   H         1 RES1   0.0000
    79 H31      5.4426  13.5822   5.0905   H         1 RES1   0.0000
    80 H32      1.1408  11.6659   3.9791   H         1 RES1   0.0000
    81 H33     -0.6372  11.8157   5.2408   H         1 RES1   0.0000
    82 H34     -0.2901  11.6424   7.7847   H         1 RES1   0.0000
    83 H35      1.9206  11.5161   8.6085   H         1 RES1   0.0000
    84 H36      3.7662  11.3866   7.0153   H         1 RES1   0.0000
    85 O2      11.4598   0.8358   6.4765   O.3       2 RES2   0.0000
    86 C41     11.3653   0.0581   5.2770   C.3       2 RES2   0.0000
    87 C42     11.3897  -1.2415   5.6734   C.3       2 RES2   0.0000
    88 C42B    11.5299  -1.2415   7.2795   C.3       2 RES2   0.0000
    89 C41B    11.5544   0.0581   7.6759   C.3       2 RES2   0.0000
@<TRIPOS>BOND
     1     1     2    1
     2     2     3    3
     3     4     1    1
     4     5     1    1
     5     6     1    1
     6     7     1    1
     7     8     6    1
     8     9     8   ar
     9    10     9   ar
    10    11    10   ar
    11    12    11   ar
    12    13     4    1
    13    14     7    1
    14    15    14   ar
    15    16    15   ar
    16    17    16   ar
    17    18    17   ar
    18    19     5    1
    19    20     6    1
    20    21     7    1
    21    22     1    1
    22    23    22    1
    23    24    23    1
    24    25    26   ar
    25    26    27   ar
    26    27    28   ar
    27    28    29   ar
    28    29    30   ar
    29    30    22    1
    30    31    32   ar
    31    32    33   ar
    32    33    34   ar
    33    34    35   ar
    34    35    36   ar
    35    36    22    1
    36    37    38   ar
    37    38    39   ar
    38    39    40   ar
    39    40    41   ar
    40    41    42   ar
    41    42    24    1
    42    43    44   ar
    43    44    45   ar
    44    45    46   ar
    45    46    47   ar
    46    47    48   ar
    47    48    24    1
    48    49     6    1
    49    50     7    1
    50    51     9    1
    51    52    10    1
    52    53    11    1
    53    54    12    1
    54    55    15    1
    55    56    16    1
    56    57    17    1
    57    58    18    1
    58    59    20    1
    59    60    20    1
    60    61    21    1
    61    62    21    1
    62    63    23    1
    63    64    23    1
    64    65    25    1
    65    66    26    1
    66    67    27    1
    67    68    28    1
    68    69    29    1
    69    70    31    1
    70    71    32    1
    71    72    33    1
    72    73    34    1
    73    74    35    1
    74    75    37    1
    75    76    38    1
    76    77    39    1
    77    78    40    1
    78    79    41    1
    79    80    43    1
    80    81    44    1
    81    82    45    1
    82    83    46    1
    83    84    47    1
    84     8    13   ar
    85    12    13   ar
    86    14    19   ar
    87    18    19   ar
    88    20    21    1
    89    25    30   ar
    90    31    36   ar
    91    37    42   ar
    92    43    48   ar
    93    85    86    1
    94    86    87    1
    95    87    88    1
    96    88    89    1
    97    89    85    1
@<TRIPOS>SUBSTRUCTURE
     1 RES1        1 GROUP             0 ****  ****    0  
     2 RES2       85 GROUP             0 ****  ****    0  
@<TRIPOS>CRYSIN
   28.2030   10.1930   27.9780   90.0000  112.1900   90.0000    15     1
