@<TRIPOS>MOLECULE
HEBPIN
    91    99     2     0     0
SMALL
NO_CHARGES
****
Generated from the CSD

@<TRIPOS>ATOM
     1 Fe1      1.5905   1.1945   3.5550   Fe        1 RES1   0.0000
     2 P1       2.6219   2.8522   2.5024   P.3       1 RES1   0.0000
     3 P2       1.2883   2.6974   5.1990   P.3       1 RES1   0.0000
     4 S1       3.4730   0.1014   4.3445   S.3       1 RES1   0.0000
     5 S2      -0.3923   1.9007   2.5904   S.3       1 RES1   0.0000
     6 N1       1.7593  -0.1133   1.9616   N.pl3     1 RES1   0.0000
     7 N2       0.4394  -0.3500   4.3515   N.pl3     1 RES1   0.0000
     8 C1       1.8542   4.4137   3.0976   C.3       1 RES1   0.0000
     9 C2       1.8923   4.3588   4.6029   C.3       1 RES1   0.0000
    10 C3       3.9709  -0.6323   2.8167   C.ar      1 RES1   0.0000
    11 C4       5.2546  -1.1733   2.5932   C.ar      1 RES1   0.0000
    12 C5       5.6049  -1.7088   1.3796   C.ar      1 RES1   0.0000
    13 C6       4.7010  -1.7289   0.3461   C.ar      1 RES1   0.0000
    14 C7       3.4314  -1.2208   0.5214   C.ar      1 RES1   0.0000
    15 C8       3.0846  -0.6598   1.7536   C.ar      1 RES1   0.0000
    16 C9       0.7511  -1.1916   2.1245   C.3       1 RES1   0.0000
    17 C10     -1.5067   0.8955   3.5228   C.ar      1 RES1   0.0000
    18 C11     -2.8892   1.0801   3.4964   C.ar      1 RES1   0.0000
    19 C12     -3.7263   0.2979   4.2537   C.ar      1 RES1   0.0000
    20 C13     -3.2175  -0.6835   5.0731   C.ar      1 RES1   0.0000
    21 C14     -1.8565  -0.8791   5.1119   C.ar      1 RES1   0.0000
    22 C15     -1.0086  -0.1042   4.3515   C.ar      1 RES1   0.0000
    23 C16      0.7619  -1.5754   3.5647   C.3       1 RES1   0.0000
    24 C17      2.4051   2.9095   0.6813   C.ar      1 RES1   0.0000
    25 C18      3.2039   2.1017  -0.1071   C.ar      1 RES1   0.0000
    26 C19      3.0735   2.1127  -1.4789   C.ar      1 RES1   0.0000
    27 C20      2.1759   2.9424  -2.0764   C.ar      1 RES1   0.0000
    28 C21      1.3686   3.7393  -1.3067   C.ar      1 RES1   0.0000
    29 C22      1.4671   3.7228   0.0745   C.ar      1 RES1   0.0000
    30 C23      4.4148   3.2897   2.6289   C.ar      1 RES1   0.0000
    31 C24      5.1946   2.8730   3.6935   C.ar      1 RES1   0.0000
    32 C25      6.5346   3.2385   3.7664   C.ar      1 RES1   0.0000
    33 C26      7.1068   4.0280   2.8058   C.ar      1 RES1   0.0000
    34 C27      6.3353   4.4776   1.7660   C.ar      1 RES1   0.0000
    35 C28      5.0016   4.1231   1.6760   C.ar      1 RES1   0.0000
    36 C29     -0.4531   3.0210   5.7047   C.ar      1 RES1   0.0000
    37 C30     -1.0766   2.1876   6.5955   C.ar      1 RES1   0.0000
    38 C31     -2.4199   2.3722   6.8934   C.ar      1 RES1   0.0000
    39 C32     -3.1301   3.3811   6.3255   C.ar      1 RES1   0.0000
    40 C33     -2.5177   4.2163   5.4626   C.ar      1 RES1   0.0000
    41 C34     -1.1904   4.0573   5.1228   C.ar      1 RES1   0.0000
    42 C35      2.0695   2.6683   6.8686   C.ar      1 RES1   0.0000
    43 C36      2.0523   3.7868   7.6709   C.ar      1 RES1   0.0000
    44 C37      2.6580   3.7722   8.9124   C.ar      1 RES1   0.0000
    45 C38      3.2627   2.6738   9.3842   C.ar      1 RES1   0.0000
    46 C39      3.2479   1.5425   8.6440   C.ar      1 RES1   0.0000
    47 C40      2.6419   1.5297   7.3745   C.ar      1 RES1   0.0000
    48 H1       1.5957   0.2632   1.3269   H         1 RES1   0.0000
    49 H2       0.7466  -0.4880   5.0917   H         1 RES1   0.0000
    50 H3       0.9455   4.4922   2.7732   H         1 RES1   0.0000
    51 H4       2.2348   5.1557   2.7561   H         1 RES1   0.0000
    52 H5       1.3564   5.0606   5.0390   H         1 RES1   0.0000
    53 H6       2.6891   4.4484   5.0002   H         1 RES1   0.0000
    54 H7       5.7646  -1.1221   3.3024   H         1 RES1   0.0000
    55 H8       6.4740  -2.0268   1.3238   H         1 RES1   0.0000
    56 H9       4.9603  -2.0688  -0.4842   H         1 RES1   0.0000
    57 H10      2.7064  -1.2318  -0.1055   H         1 RES1   0.0000
    58 H11     -0.0476  -0.8900   1.8173   H         1 RES1   0.0000
    59 H12      1.0026  -1.9117   1.6046   H         1 RES1   0.0000
    60 H13     -3.1677   1.7271   2.9718   H         1 RES1   0.0000
    61 H14     -4.6075   0.4478   4.2320   H         1 RES1   0.0000
    62 H15     -3.7042  -1.1550   5.6178   H         1 RES1   0.0000
    63 H16     -1.5711  -1.5754   5.6163   H         1 RES1   0.0000
    64 H17      0.2658  -2.2278   3.6935   H         1 RES1   0.0000
    65 H18      1.6569  -1.8440   3.8595   H         1 RES1   0.0000
    66 H19      3.8261   1.6339   0.2483   H         1 RES1   0.0000
    67 H20      3.5875   1.5845  -1.9181   H         1 RES1   0.0000
    68 H21      2.1130   2.9424  -2.8663   H         1 RES1   0.0000
    69 H22      0.7883   4.2620  -1.7117   H         1 RES1   0.0000
    70 H23      0.9144   4.2565   0.6006   H         1 RES1   0.0000
    71 H24      4.8974   2.3667   4.3220   H         1 RES1   0.0000
    72 H25      7.0427   2.9863   4.4322   H         1 RES1   0.0000
    73 H26      7.9874   4.2382   2.8477   H         1 RES1   0.0000
    74 H27      6.6698   4.9985   1.1624   H         1 RES1   0.0000
    75 H28      4.5727   4.4173   0.9498   H         1 RES1   0.0000
    76 H29     -0.6875   1.4895   6.9835   H         1 RES1   0.0000
    77 H30     -2.6204   1.7472   7.3621   H         1 RES1   0.0000
    78 H31     -3.9556   3.5602   6.5334   H         1 RES1   0.0000
    79 H32     -2.9388   4.7956   5.1134   H         1 RES1   0.0000
    80 H33     -0.7408   4.6677   4.4601   H         1 RES1   0.0000
    81 H34      1.6295   4.5653   7.3125   H         1 RES1   0.0000
    82 H35      2.6822   4.5197   9.3470   H         1 RES1   0.0000
    83 H36      3.7055   2.8328  10.2145   H         1 RES1   0.0000
    84 H37      3.6736   0.5446   8.8783   H         1 RES1   0.0000
    85 H38      2.9065   0.5995   6.8578   H         1 RES1   0.0000
    86 O1       7.0657   1.7234   8.8783   O.3       2 RES2   0.0000
    87 H39      6.5324   1.3835   9.4308   H         2 RES2   0.0000
    88 C41      6.4504   1.7326   7.5421   C.3       2 RES2   0.0000
    89 H40      5.5385   1.3798   7.5996   H         2 RES2   0.0000
    90 H41      6.9794   1.1751   6.9338   H         2 RES2   0.0000
    91 H42      6.4237   2.6518   7.2007   H         2 RES2   0.0000
@<TRIPOS>BOND
     1     1     2    1
     2     2     8    1
     3     3     1    1
     4     4     1    1
     5     5     1    1
     6     6     1    1
     7     7     1    1
     8     8     9    1
     9     9     3    1
    10    10     4    1
    11    11    10   ar
    12    12    11   ar
    13    13    12   ar
    14    14    13   ar
    15    15     6    1
    16    16     6    1
    17    17     5    1
    18    18    17   ar
    19    19    18   ar
    20    20    19   ar
    21    21    20   ar
    22    22     7    1
    23    23     7    1
    24    24     2    1
    25    25    24   ar
    26    26    25   ar
    27    27    26   ar
    28    28    27   ar
    29    29    24   ar
    30    30     2    1
    31    31    30   ar
    32    32    31   ar
    33    33    32   ar
    34    34    33   ar
    35    35    30   ar
    36    36     3    1
    37    37    36   ar
    38    38    37   ar
    39    39    38   ar
    40    40    39   ar
    41    41    36   ar
    42    42     3    1
    43    43    42   ar
    44    44    43   ar
    45    45    44   ar
    46    46    45   ar
    47    47    42   ar
    48    48     6    1
    49    49     7    1
    50    50     8    1
    51    51     8    1
    52    52     9    1
    53    53     9    1
    54    54    11    1
    55    55    12    1
    56    56    13    1
    57    57    14    1
    58    58    16    1
    59    59    16    1
    60    60    18    1
    61    61    19    1
    62    62    20    1
    63    63    21    1
    64    64    23    1
    65    65    23    1
    66    66    25    1
    67    67    26    1
    68    68    27    1
    69    69    28    1
    70    70    29    1
    71    71    31    1
    72    72    32    1
    73    73    33    1
    74    74    34    1
    75    75    35    1
    76    76    37    1
    77    77    38    1
    78    78    39    1
    79    79    40    1
    80    80    41    1
    81    81    43    1
    82    82    44    1
    83    83    45    1
    84    84    46    1
    85    85    47    1
    86    10    15   ar
    87    14    15   ar
    88    16    23    1
    89    17    22   ar
    90    21    22   ar
    91    28    29   ar
    92    34    35   ar
    93    40    41   ar
    94    46    47   ar
    95    86    87    1
    96    88    86    1
    97    89    88    1
    98    90    88    1
    99    91    88    1
@<TRIPOS>SUBSTRUCTURE
     1 RES1        1 GROUP             0 ****  ****    0  
     2 RES2       86 GROUP             0 ****  ****    0  
@<TRIPOS>CRYSIN
   12.4940   18.2760   15.8720   90.0000  102.1100   90.0000   231     1
