@<TRIPOS>MOLECULE
HEBPOT
   114   119     2     0     0
SMALL
NO_CHARGES
****
Generated from the CSD

@<TRIPOS>ATOM
     1 Fe1      8.6091  -5.6449   3.0395   Fe        1 RES1   0.0000
     2 S1       8.1434  -4.2897   4.8289   S.3       1 RES1   0.0000
     3 S2       8.7381  -7.0039   1.2021   S.3       1 RES1   0.0000
     4 P1      10.3282  -6.4114   4.0465   P.3       1 RES1   0.0000
     5 P2       9.7751  -4.0767   2.0394   P.3       1 RES1   0.0000
     6 N1       6.7894  -4.9482   2.2859   N.pl3     1 RES1   0.0000
     7 N2       7.4273  -7.1275   3.8439   N.pl3     1 RES1   0.0000
     8 O1      11.5842  -7.1719   3.3734   O.3       1 RES1   0.0000
     9 O2       9.8625  -7.4505   5.1854   O.3       1 RES1   0.0000
    10 O3      11.1552  -5.2723   4.7882   O.3       1 RES1   0.0000
    11 C1       6.8893  -3.3188   4.1115   C.ar      1 RES1   0.0000
    12 C2       6.3896  -2.1556   4.6962   C.ar      1 RES1   0.0000
    13 C3       5.4184  -1.4113   4.0757   C.ar      1 RES1   0.0000
    14 C4       4.8764  -1.8092   2.8688   C.ar      1 RES1   0.0000
    15 C5       5.3445  -2.9592   2.2688   C.ar      1 RES1   0.0000
    16 C6       6.3315  -3.6934   2.8842   C.ar      1 RES1   0.0000
    17 C7       5.7919  -6.0335   2.4700   C.3       1 RES1   0.0000
    18 C8       8.0886  -8.4707   1.9279   C.ar      1 RES1   0.0000
    19 C9       8.1373  -9.7048   1.2648   C.ar      1 RES1   0.0000
    20 C10      7.6610 -10.8288   1.8904   C.ar      1 RES1   0.0000
    21 C11      7.1342 -10.7791   3.1654   C.ar      1 RES1   0.0000
    22 C12      7.0796  -9.5609   3.8149   C.ar      1 RES1   0.0000
    23 C13      7.5411  -8.4121   3.1944   C.ar      1 RES1   0.0000
    24 C14      6.0182  -6.6358   3.8183   C.3       1 RES1   0.0000
    25 C15     11.2209  -4.6300   1.0858   C.3       1 RES1   0.0000
    26 C16     10.4821  -2.7177   3.0052   C.3       1 RES1   0.0000
    27 C17      8.8908  -3.1171   0.7756   C.3       1 RES1   0.0000
    28 C18     11.4321  -8.4263   2.6813   C.3       1 RES1   0.0000
    29 C19     12.7282  -9.1434   2.6183   C.3       1 RES1   0.0000
    30 C20     12.6001 -10.4390   1.8580   C.3       1 RES1   0.0000
    31 C21     10.7102  -8.2978   5.9610   C.3       1 RES1   0.0000
    32 C22      9.9702  -9.6179   6.1570   C.3       1 RES1   0.0000
    33 C23     10.8123 -10.5415   7.0263   C.3       1 RES1   0.0000
    34 C24     12.3044  -5.4074   5.6235   C.3       1 RES1   0.0000
    35 C25     12.8599  -4.1127   5.9610   C.3       1 RES1   0.0000
    36 C26     13.9841  -4.1842   6.9513   C.3       1 RES1   0.0000
    37 H1       6.8251  -4.7671   1.2972   H         1 RES1   0.0000
    38 H2       7.7205  -7.3035   4.7797   H         1 RES1   0.0000
    39 H3       6.7603  -1.8170   5.5399   H         1 RES1   0.0000
    40 H4       5.0942  -0.6102   4.5069   H         1 RES1   0.0000
    41 H5       4.3102  -1.1497   2.3148   H         1 RES1   0.0000
    42 H6       4.9793  -3.2730   1.5137   H         1 RES1   0.0000
    43 H7       6.0044  -6.5727   1.7881   H         1 RES1   0.0000
    44 H8       4.8780  -5.6269   2.4239   H         1 RES1   0.0000
    45 H9       8.5553  -9.7170   0.4415   H         1 RES1   0.0000
    46 H10      7.5837 -11.6056   1.4966   H         1 RES1   0.0000
    47 H11      6.8442 -11.6327   3.5882   H         1 RES1   0.0000
    48 H12      6.6883  -9.3695   4.6535   H         1 RES1   0.0000
    49 H13      5.4171  -7.2984   4.0143   H         1 RES1   0.0000
    50 H14      5.9850  -6.0495   4.5291   H         1 RES1   0.0000
    51 H15     11.8518  -5.0862   1.6074   H         1 RES1   0.0000
    52 H16     11.6833  -3.8733   0.4568   H         1 RES1   0.0000
    53 H17     10.9177  -5.2520   0.6051   H         1 RES1   0.0000
    54 H18      9.5291  -2.2070   3.3120   H         1 RES1   0.0000
    55 H19     10.9547  -2.2121   2.3285   H         1 RES1   0.0000
    56 H20     10.9363  -3.0463   3.6990   H         1 RES1   0.0000
    57 H21      9.5138  -2.7373   0.2625   H         1 RES1   0.0000
    58 H22      8.2921  -3.9186   0.1756   H         1 RES1   0.0000
    59 H23      8.1485  -2.5506   1.2836   H         1 RES1   0.0000
    60 H24     10.7586  -8.9696   3.0870   H         1 RES1   0.0000
    61 H25     11.0190  -8.2226   1.7813   H         1 RES1   0.0000
    62 H26     13.0459  -9.3284   3.5404   H         1 RES1   0.0000
    63 H27     13.5787  -8.4004   2.1989   H         1 RES1   0.0000
    64 H28     13.4909 -10.7334   1.5614   H         1 RES1   0.0000
    65 H29     12.3929 -10.2650   0.8864   H         1 RES1   0.0000
    66 H30     11.9994 -11.1561   2.2006   H         1 RES1   0.0000
    67 H31     11.6653  -8.4964   5.4257   H         1 RES1   0.0000
    68 H32     10.9696  -7.7367   6.7417   H         1 RES1   0.0000
    69 H33      9.8904  -9.9948   5.3780   H         1 RES1   0.0000
    70 H34      9.1801  -9.3011   6.5184   H         1 RES1   0.0000
    71 H35     11.8387 -10.7250   6.4894   H         1 RES1   0.0000
    72 H36     10.3412 -11.2831   6.9820   H         1 RES1   0.0000
    73 H37     10.7370 -10.4625   7.8139   H         1 RES1   0.0000
    74 H38     11.9359  -5.8103   6.4246   H         1 RES1   0.0000
    75 H39     13.0209  -5.8936   5.0729   H         1 RES1   0.0000
    76 H40     13.1848  -3.5182   5.2894   H         1 RES1   0.0000
    77 H41     12.0294  -3.4761   6.1877   H         1 RES1   0.0000
    78 H42     14.3737  -3.3531   7.2138   H         1 RES1   0.0000
    79 H43     13.7818  -4.5205   7.7968   H         1 RES1   0.0000
    80 H44     14.6919  -4.7355   6.6275   H         1 RES1   0.0000
    81 S3       4.2256  10.5852   6.4504   S.3       2 RES2   0.0000
    82 N3       3.6246   8.1657   8.1889   N.pl3     2 RES2   0.0000
    83 C27      5.2149   9.9309   7.7661   C.ar      2 RES2   0.0000
    84 C28      6.3712  10.6265   8.1053   C.ar      2 RES2   0.0000
    85 C29      7.1271  10.1896   9.1895   C.ar      2 RES2   0.0000
    86 C30      6.7509   9.0840   9.8730   C.ar      2 RES2   0.0000
    87 C31      5.6031   8.3947   9.5611   C.ar      2 RES2   0.0000
    88 C32      4.8030   8.8092   8.4940   C.ar      2 RES2   0.0000
    89 C33      3.2185   6.9263   8.7752   C.3       2 RES2   0.0000
    90 H45      6.5173  11.4128   7.6894   H         2 RES2   0.0000
    91 H46      7.9639  10.8177   9.3275   H         2 RES2   0.0000
    92 H47      3.3181   8.2643   7.2053   H         2 RES2   0.0000
    93 H48      4.0587   9.4595   5.7649   H         2 RES2   0.0000
    94 H49      7.4393   8.7102  10.5514   H         2 RES2   0.0000
    95 H50      5.4197   7.6225  10.0213   H         2 RES2   0.0000
    96 H51      2.1672   6.6508   8.6883   H         2 RES2   0.0000
    97 H52      3.2576   6.9382   9.7571   H         2 RES2   0.0000
    98 C33A     4.0078   5.7083   8.2707   C.3       2 RES2   0.0000
    99 N3A      3.6016   4.4689   8.8571   N.pl3     2 RES2   0.0000
   100 C32A     2.4232   3.8254   8.5519   C.ar      2 RES2   0.0000
   101 C27A     2.0114   2.7036   9.2798   C.ar      2 RES2   0.0000
   102 S3A      3.0006   2.0493  10.5956   S.3       2 RES2   0.0000
   103 H48A     3.1675   3.1751  11.2810   H         2 RES2   0.0000
   104 C28A     0.8550   2.0081   8.9406   C.ar      2 RES2   0.0000
   105 C29A     0.0992   2.4449   7.8565   C.ar      2 RES2   0.0000
   106 C30A     0.4753   3.5505   7.1729   C.ar      2 RES2   0.0000
   107 C31A     1.6231   4.2398   7.4849   C.ar      2 RES2   0.0000
   108 H50A     1.8065   5.0120   7.0246   H         2 RES2   0.0000
   109 H49A    -0.2131   3.9243   6.4945   H         2 RES2   0.0000
   110 H46A    -0.7377   1.8168   7.7184   H         2 RES2   0.0000
   111 H45A     0.7089   1.2217   9.3565   H         2 RES2   0.0000
   112 H47A     3.9081   4.3702   9.8406   H         2 RES2   0.0000
   113 H51A     5.0590   5.9837   8.3576   H         2 RES2   0.0000
   114 H52A     3.9687   5.6963   7.2888   H         2 RES2   0.0000
@<TRIPOS>BOND
     1     1     2    1
     2     2    11    1
     3     3     1    1
     4     4     1    1
     5     5     1    1
     6     6     1    1
     7     7     1    1
     8     8     4    1
     9     9     4    1
    10    10     4    1
    11    11    12   ar
    12    12    13   ar
    13    13    14   ar
    14    14    15   ar
    15    15    16   ar
    16    16     6    1
    17    17     6    1
    18    18     3    1
    19    19    18   ar
    20    20    19   ar
    21    21    20   ar
    22    22    21   ar
    23    23     7    1
    24    24     7    1
    25    25     5    1
    26    26     5    1
    27    27     5    1
    28    28     8    1
    29    29    28    1
    30    30    29    1
    31    31     9    1
    32    32    31    1
    33    33    32    1
    34    34    10    1
    35    35    34    1
    36    36    35    1
    37    37     6    1
    38    38     7    1
    39    39    12    1
    40    40    13    1
    41    41    14    1
    42    42    15    1
    43    43    17    1
    44    44    17    1
    45    45    19    1
    46    46    20    1
    47    47    21    1
    48    48    22    1
    49    49    24    1
    50    50    24    1
    51    51    25    1
    52    52    25    1
    53    53    25    1
    54    54    26    1
    55    55    26    1
    56    56    26    1
    57    57    27    1
    58    58    27    1
    59    59    27    1
    60    60    28    1
    61    61    28    1
    62    62    29    1
    63    63    29    1
    64    64    30    1
    65    65    30    1
    66    66    30    1
    67    67    31    1
    68    68    31    1
    69    69    32    1
    70    70    32    1
    71    71    33    1
    72    72    33    1
    73    73    33    1
    74    74    34    1
    75    75    34    1
    76    76    35    1
    77    77    35    1
    78    78    36    1
    79    79    36    1
    80    80    36    1
    81    11    16   ar
    82    17    24    1
    83    18    23   ar
    84    22    23   ar
    85    81    83    1
    86    82    88    1
    87    83    84   ar
    88    84    85   ar
    89    85    86   ar
    90    86    87   ar
    91    87    88   ar
    92    88    83   ar
    93    89    82    1
    94    90    84    1
    95    91    85    1
    96    92    82    1
    97    93    81    1
    98    94    86    1
    99    95    87    1
   100    96    89    1
   101    97    89    1
   102    98    89    1
   103    99    98    1
   104   100    99    1
   105   101   100   ar
   106   102   101    1
   107   103   102    1
   108   104   101   ar
   109   105   104   ar
   110   106   105   ar
   111   107   100   ar
   112   108   107    1
   113   109   106    1
   114   110   105    1
   115   111   104    1
   116   112    99    1
   117   113    98    1
   118   114    98    1
   119   106   107   ar
@<TRIPOS>SUBSTRUCTURE
     1 RES1        1 GROUP             0 ****  ****    0  
     2 RES2       81 GROUP             0 ****  ****    0  
@<TRIPOS>CRYSIN
    9.3510   12.3480   17.3630   83.5100   79.5300   70.7500     2     1
