@<TRIPOS>MOLECULE
HECHAA
    78    84     2     0     0
SMALL
USER_CHARGES
****
Generated from the CSD

@<TRIPOS>ATOM
     1 Fe1      5.4422   7.4948   4.0336   Fe        1 RES1   1.0000
     2 S1       2.7897   7.6807   5.6410   S.3       1 RES1   0.0000
     3 S2       5.0897   9.5080   6.3353   S.3       1 RES1   0.0000
     4 S3       3.5922   9.9654   3.9274   S.3       1 RES1   0.0000
     5 N1       4.3633   5.9141   4.4252   N.ar      1 RES1   0.0000
     6 N2       4.3478   7.9028   2.4640   N.ar      1 RES1   0.0000
     7 N3       6.3662   7.2653   5.7510   N.ar      1 RES1   0.0000
     8 O1       6.5873   8.9502   3.6083   O.2       1 RES1   0.0000
     9 O2       6.7224   6.4893   3.0476   O.2       1 RES1   0.0000
    10 C1       3.6822   7.5359   0.2239   C.ar      1 RES1   0.0000
    11 H1       3.7273   7.0161  -0.5444   H         1 RES1   0.0000
    12 C2       2.5051   4.9744   5.5946   C.ar      1 RES1   0.0000
    13 H2       1.7618   5.1013   6.1388   H         1 RES1   0.0000
    14 C3       3.2608   6.0669   5.1786   C.ar      1 RES1   0.0000
    15 C4       4.2016   8.6503   5.0078   C.3       1 RES1   0.0000
    16 C5       6.2449   8.2468   6.6627   C.ar      1 RES1   0.0000
    17 C6       4.7070   4.6536   4.0488   C.ar      1 RES1   0.0000
    18 H3       5.4674   4.5384   3.5276   H         1 RES1   0.0000
    19 C7       2.9079   8.6823   0.2383   C.ar      1 RES1   0.0000
    20 H4       2.4414   8.9473  -0.5198   H         1 RES1   0.0000
    21 C8       4.3835   7.1653   1.3383   C.ar      1 RES1   0.0000
    22 H5       4.8951   6.3895   1.3190   H         1 RES1   0.0000
    23 C9       2.8410   9.4240   1.3950   C.ar      1 RES1   0.0000
    24 H6       2.3045  10.1842   1.4423   H         1 RES1   0.0000
    25 C10      3.5858   9.0174   2.4794   C.ar      1 RES1   0.0000
    26 C11      7.1841   6.2292   6.0074   C.ar      1 RES1   0.0000
    27 H7       7.2587   5.5472   5.3807   H         1 RES1   0.0000
    28 C12      2.8659   3.6981   5.1958   C.ar      1 RES1   0.0000
    29 H8       2.3652   2.9585   5.4588   H         1 RES1   0.0000
    30 C13      3.9839   3.5461   4.4007   C.ar      1 RES1   0.0000
    31 H9       4.2420   2.7017   4.1069   H         1 RES1   0.0000
    32 C14      7.8108   7.1743   8.0742   C.ar      1 RES1   0.0000
    33 H10      8.3177   7.1497   8.8528   H         1 RES1   0.0000
    34 C15      7.9072   6.1532   7.1579   C.ar      1 RES1   0.0000
    35 H11      8.4592   5.4239   7.3222   H         1 RES1   0.0000
    36 C16      6.9726   8.2201   7.8420   C.ar      1 RES1   0.0000
    37 H12      6.8902   8.9063   8.4645   H         1 RES1   0.0000
    38 C17      7.6568   7.2181   2.5371   C.2       1 RES1   0.0000
    39 C18      9.6317   7.5899   1.2693   C.2       1 RES1   0.0000
    40 C19      8.5665   9.5561   2.3867   C.2       1 RES1   0.0000
    41 C20      8.6816   6.7225   1.7233   C.2       1 RES1   0.0000
    42 H13      8.7127   5.8204   1.4957   H         1 RES1   0.0000
    43 C21      9.5415   8.9928   1.6062   C.2       1 RES1   0.0000
    44 H14     10.1977   9.5575   1.2656   H         1 RES1   0.0000
    45 C22     10.2786   6.1347  -0.6613   C.3       1 RES1   0.0000
    46 H15      9.8152   5.3910  -0.2712   H         1 RES1   0.0000
    47 H16     11.0156   5.8142  -1.1875   H         1 RES1   0.0000
    48 H17      9.6768   6.6278  -1.2224   H         1 RES1   0.0000
    49 C23      8.4825  11.0378   2.7366   C.3       1 RES1   0.0000
    50 C24     10.8057   7.0469   0.4479   C.3       1 RES1   0.0000
    51 C25      7.5713   8.6338   2.8623   C.2       1 RES1   0.0000
    52 C26      7.1919  11.6326   2.2250   C.3       1 RES1   0.0000
    53 H18      7.1654  11.5648   1.2676   H         1 RES1   0.0000
    54 H19      7.1406  12.5571   2.4798   H         1 RES1   0.0000
    55 H20      6.4486  11.1559   2.5989   H         1 RES1   0.0000
    56 C27     11.6267   8.1810  -0.1767   C.3       1 RES1   0.0000
    57 H21     11.0529   8.7357  -0.7088   H         1 RES1   0.0000
    58 H22     12.3172   7.8071  -0.7314   H         1 RES1   0.0000
    59 H23     12.0264   8.7070   0.5198   H         1 RES1   0.0000
    60 C28      8.5214  11.2155   4.2528   C.3       1 RES1   0.0000
    61 H24      8.5059  12.1524   4.4665   H         1 RES1   0.0000
    62 H25      9.3253  10.8231   4.6021   H         1 RES1   0.0000
    63 H26      7.7595  10.7841   4.6452   H         1 RES1   0.0000
    64 C29     11.7107   6.2190   1.3662   C.3       1 RES1   0.0000
    65 H27     12.0450   6.7778   2.0730   H         1 RES1   0.0000
    66 H28     12.4478   5.8697   0.8608   H         1 RES1   0.0000
    67 H29     11.2084   5.4937   1.7422   H         1 RES1   0.0000
    68 C30      9.6519  11.8134   2.1449   C.3       1 RES1   0.0000
    69 H30      9.6503  11.7148   1.1896   H         1 RES1   0.0000
    70 H31     10.4745  11.4723   2.5003   H         1 RES1   0.0000
    71 H32      9.5664  12.7420   2.3688   H         1 RES1   0.0000
    72 P1       7.6448   2.6067   2.1022   P.3       2 RES2  -1.0000
    73 F1       7.7828   3.4906   3.4230   F         2 RES2   0.0000
    74 F2       6.7002   3.7182   1.4566   F         2 RES2   0.0000
    75 F3       7.5061   1.7143   0.7852   F         2 RES2   0.0000
    76 F4       8.9098   3.3568   1.4887   F         2 RES2   0.0000
    77 F5       6.3631   1.8858   2.7103   F         2 RES2   0.0000
    78 F6       8.6038   1.4981   2.7070   F         2 RES2   0.0000
@<TRIPOS>BOND
     1     1     5    1
     2     2    14    1
     3     3    15    1
     4     4    15    1
     5     5    14   ar
     6     6     1    1
     7     7     1    1
     8     8     1    1
     9     9     1    1
    10    10    11    1
    11    12    13    1
    12    14    12   ar
    13    15     1    1
    14    16     3    1
    15    17     5   ar
    16    18    17    1
    17    19    10   ar
    18    20    19    1
    19    21     6   ar
    20    22    21    1
    21    23    19   ar
    22    24    23    1
    23    25     4    1
    24    26     7   ar
    25    27    26    1
    26    28    12   ar
    27    29    28    1
    28    30    17   ar
    29    31    30    1
    30    32    33    1
    31    34    26   ar
    32    35    34    1
    33    36    16   ar
    34    37    36    1
    35    38     9    2
    36    39    41    2
    37    40    43    2
    38    41    38    1
    39    42    41    1
    40    43    39    1
    41    44    43    1
    42    45    46    1
    43    47    45    1
    44    48    45    1
    45    49    40    1
    46    50    39    1
    47    51     8    2
    48    52    49    1
    49    53    52    1
    50    54    52    1
    51    55    52    1
    52    56    50    1
    53    57    56    1
    54    58    56    1
    55    59    56    1
    56    60    49    1
    57    61    60    1
    58    62    60    1
    59    63    60    1
    60    64    50    1
    61    65    64    1
    62    66    64    1
    63    67    64    1
    64    68    49    1
    65    69    68    1
    66    70    68    1
    67    71    68    1
    68     2    15    1
    69     6    25   ar
    70     7    16   ar
    71    10    21   ar
    72    23    25   ar
    73    28    30   ar
    74    32    34   ar
    75    32    36   ar
    76    38    51    1
    77    40    51    1
    78    45    50    1
    79    72    73    1
    80    74    72    1
    81    75    72    1
    82    76    72    1
    83    77    72    1
    84    78    72    1
@<TRIPOS>SUBSTRUCTURE
     1 RES1        1 GROUP             0 ****  ****    0  
     2 RES2       72 GROUP             0 ****  ****    0  
@<TRIPOS>CRYSIN
   15.5500   20.5450   20.5450   90.0000   90.0000   90.0000    61     1
