@<TRIPOS>MOLECULE
HECHEE
    82    87     3     0     0
SMALL
USER_CHARGES
****
Generated from the CSD

@<TRIPOS>ATOM
     1 Fe1      7.7996   4.2215   3.3434   Fe        1 RES1   1.0000
     2 S1       7.8292   5.6155   0.5476   S.3       1 RES1   0.0000
     3 S2      10.1008   6.0793   2.3921   S.3       1 RES1   0.0000
     4 S3       9.8172   3.4583   1.1627   S.3       1 RES1   0.0000
     5 N1       6.1523   4.8691   2.4790   N.ar      1 RES1   0.0000
     6 N2       8.0518   6.0329   4.0798   N.ar      1 RES1   0.0000
     7 N3       9.2518   3.5827   4.3035   N.2       1 RES1   0.0000
     8 N4       7.6285   2.5379   2.3369   N.ar      1 RES1   0.0000
     9 C1       8.8691   4.8490   1.8260   C.3       1 RES1   0.0000
    10 C2       7.2622   6.5516   5.0377   C.ar      1 RES1   0.0000
    11 H1       6.5428   6.0484   5.3460   H         1 RES1   0.0000
    12 C3       9.0839   6.7858   3.6220   C.ar      1 RES1   0.0000
    13 C4       9.3515   8.0511   4.1050   C.ar      1 RES1   0.0000
    14 H2      10.0602   8.5516   3.7693   H         1 RES1   0.0000
    15 C5       4.9144   4.7255   3.0158   C.ar      1 RES1   0.0000
    16 H3       4.8181   4.2314   3.7989   H         1 RES1   0.0000
    17 C6       8.5301   8.5552   5.1071   C.ar      1 RES1   0.0000
    18 H4       8.6874   9.4006   5.4610   H         1 RES1   0.0000
    19 C7       3.9410   6.0301   1.2970   C.ar      1 RES1   0.0000
    20 H5       3.2009   6.4427   0.9126   H         1 RES1   0.0000
    21 C8       7.4765   7.7885   5.5756   C.ar      1 RES1   0.0000
    22 H6       6.9207   8.1124   6.2475   H         1 RES1   0.0000
    23 C9       6.2670   5.5406   1.3319   C.ar      1 RES1   0.0000
    24 C10      3.8010   5.2835   2.4411   C.ar      1 RES1   0.0000
    25 H7       2.9622   5.1591   2.8232   H         1 RES1   0.0000
    26 C11      5.1818   6.1619   0.7194   C.ar      1 RES1   0.0000
    27 H8       5.2944   6.6541  -0.0631   H         1 RES1   0.0000
    28 C12      8.5859   1.0677   0.6926   C.ar      1 RES1   0.0000
    29 H9       9.2545   0.8875   0.0705   H         1 RES1   0.0000
    30 C13      8.5967   2.2470   1.4142   C.ar      1 RES1   0.0000
    31 C14      6.6334   1.6523   2.5149   C.ar      1 RES1   0.0000
    32 H10      5.9626   1.8481   3.1275   H         1 RES1   0.0000
    33 C15      7.5822   0.1738   0.9063   C.ar      1 RES1   0.0000
    34 H11      7.5725  -0.6304   0.4415   H         1 RES1   0.0000
    35 C16      6.5703   0.4556   1.8160   C.ar      1 RES1   0.0000
    36 H12      5.8705  -0.1418   1.9514   H         1 RES1   0.0000
    37 C17      9.5046   2.0009   7.5849   C.ar      1 RES1   0.0000
    38 C18      7.5753   3.0219   5.7938   C.ar      1 RES1   0.0000
    39 C19      7.1130   2.4254   6.9843   C.ar      1 RES1   0.0000
    40 C20      8.0826   1.9387   7.8331   C.ar      1 RES1   0.0000
    41 H13      7.8005   1.5389   8.6255   H         1 RES1   0.0000
    42 C21      5.0402   3.7200   7.4766   C.3       1 RES1   0.0000
    43 H14      4.0929   3.6697   7.6239   H         1 RES1   0.0000
    44 H15      5.2149   4.2369   6.6853   H         1 RES1   0.0000
    45 H16      5.4586   4.1399   8.2323   H         1 RES1   0.0000
    46 C22      5.6081   2.3046   7.2981   C.3       1 RES1   0.0000
    47 C23      4.8640   1.6358   6.1325   C.3       1 RES1   0.0000
    48 H17      3.9351   1.5434   6.3551   H         1 RES1   0.0000
    49 H18      5.2404   0.7685   5.9692   H         1 RES1   0.0000
    50 H19      4.9504   2.1775   5.3460   H         1 RES1   0.0000
    51 C24      5.3501   1.5206   8.5551   C.3       1 RES1   0.0000
    52 H20      5.7633   1.9652   9.3007   H         1 RES1   0.0000
    53 H21      5.7187   0.6386   8.4623   H         1 RES1   0.0000
    54 H22      4.4037   1.4584   8.7034   H         1 RES1   0.0000
    55 C25     10.5008   1.4117   8.5725   C.3       1 RES1   0.0000
    56 C26      9.8816   1.0146   9.9081   C.3       1 RES1   0.0000
    57 H23      9.4926   1.7877  10.3210   H         1 RES1   0.0000
    58 H24     10.5618   0.6523  10.4805   H         1 RES1   0.0000
    59 H25      9.2017   0.3532   9.7608   H         1 RES1   0.0000
    60 C27     11.5925   2.4556   8.8927   C.3       1 RES1   0.0000
    61 H26     12.0857   2.6569   8.0950   H         1 RES1   0.0000
    62 H27     12.1883   2.1024   9.5567   H         1 RES1   0.0000
    63 H28     11.1818   3.2570   9.2228   H         1 RES1   0.0000
    64 C28     11.1416   0.1784   7.9318   C.3       1 RES1   0.0000
    65 H29     10.4706  -0.4931   7.7871   H         1 RES1   0.0000
    66 H30     11.8218  -0.1674   8.5142   H         1 RES1   0.0000
    67 H31     11.5337   0.4227   7.0896   H         1 RES1   0.0000
    68 C29      8.9964   3.0567   5.4896   C.ar      1 RES1   0.0000
    69 C30      9.9275   2.5407   6.4104   C.ar      1 RES1   0.0000
    70 H32     10.8365   2.5681   6.2141   H         1 RES1   0.0000
    71 O1       6.8217   3.5580   4.8871   O.3       1 RES1   0.0000
    72 H33     10.0938   3.5315   4.0067   H         1 RES1   0.0000
    73 Cl1      2.3133   1.2845   3.0981   Cl        2 RES2   0.0000
    74 O2       1.3025   0.8628   2.1688   O.3       2 RES2  -1.0000
    75 O3       3.4573   1.5892   2.4337   O.2       2 RES2   0.0000
    76 O4       1.9500   2.5919   3.7359   O.2       2 RES2   0.0000
    77 O5       2.4202   0.4520   4.0995   O.2       2 RES2   0.0000
    78 C31      2.4589   6.9176   5.5129   C.3       3 RES3   0.0000
    79 H34      1.9657   7.7519   5.4758   H         3 RES3   0.0000
    80 H35      2.7134   6.6833   4.6040   H         3 RES3   0.0000
    81 Cl2      3.8981   7.1481   6.4638   Cl        3 RES3   0.0000
    82 Cl3      1.4319   5.6861   6.1418   Cl        3 RES3   0.0000
@<TRIPOS>BOND
     1     1     5    1
     2     2     9    1
     3     3     9    1
     4     4     9    1
     5     5    15   ar
     6     6     1    1
     7     7     1    1
     8     8     1    1
     9     9     1    1
    10    10     6   ar
    11    11    10    1
    12    12     3    1
    13    13    12   ar
    14    14    13    1
    15    15    16    1
    16    17    13   ar
    17    18    17    1
    18    19    20    1
    19    21    10   ar
    20    22    21    1
    21    23     2    1
    22    24    15   ar
    23    25    24    1
    24    26    19   ar
    25    27    26    1
    26    28    29    1
    27    30     4    1
    28    31     8   ar
    29    32    31    1
    30    33    28   ar
    31    34    33    1
    32    35    31   ar
    33    36    35    1
    34    37    40   ar
    35    38    39   ar
    36    39    40   ar
    37    40    41    1
    38    42    43    1
    39    44    42    1
    40    45    42    1
    41    46    39    1
    42    47    46    1
    43    48    47    1
    44    49    47    1
    45    50    47    1
    46    51    46    1
    47    52    51    1
    48    53    51    1
    49    54    51    1
    50    55    37    1
    51    56    55    1
    52    57    56    1
    53    58    56    1
    54    59    56    1
    55    60    55    1
    56    61    60    1
    57    62    60    1
    58    63    60    1
    59    64    55    1
    60    65    64    1
    61    66    64    1
    62    67    64    1
    63    68     7    1
    64    69    37   ar
    65    70    69    1
    66    71     1    1
    67    72     7    1
    68     5    23   ar
    69     6    12   ar
    70     8    30   ar
    71    17    21   ar
    72    19    24   ar
    73    23    26   ar
    74    28    30   ar
    75    33    35   ar
    76    38    68   ar
    77    38    71    1
    78    42    46    1
    79    68    69   ar
    80    73    74    1
    81    75    73    2
    82    76    73    2
    83    77    73    2
    84    78    79    1
    85    80    78    1
    86    81    78    1
    87    82    78    1
@<TRIPOS>SUBSTRUCTURE
     1 RES1        1 GROUP             0 ****  ****    0  
     2 RES2       73 GROUP             0 ****  ****    0  
     3 RES3       78 GROUP             0 ****  ****    0  
@<TRIPOS>CRYSIN
   10.2210    9.1490   37.2680   90.0000   95.4570   90.0000    14     1
