@<TRIPOS>MOLECULE
HECWAN10
    50    57     2     0     0
SMALL
NO_CHARGES
****
Generated from the CSD

@<TRIPOS>ATOM
     1 Fe1      1.7762   2.4308   4.4424   Fe        1 RES1   0.0000
     2 O1       2.7965   2.7348   6.0673   O.3       1 RES1   0.0000
     3 O2       2.8765   1.0235   3.7053   O.3       1 RES1   0.0000
     4 O3       2.6436   3.7885   3.3972   O.3       1 RES1   0.0000
     5 O4       1.5512   3.3709  12.1181   O.2       1 RES1   0.0000
     6 O5       0.5130   1.5545  11.7114   O.2       1 RES1   0.0000
     7 O6       5.3533   1.1610  -2.0046   O.2       1 RES1   0.0000
     8 O7       3.2593   1.1466  -2.4976   O.2       1 RES1   0.0000
     9 O8       0.8272   8.2154  -0.5628   O.2       1 RES1   0.0000
    10 O9      -0.3920   8.6993   1.1605   O.2       1 RES1   0.0000
    11 N1       0.5329   0.9945   5.4737   N.3       1 RES1   0.0000
    12 N2       0.3435   2.1266   2.7666   N.3       1 RES1   0.0000
    13 N3       0.3920   3.9767   5.1759   N.3       1 RES1   0.0000
    14 N4       1.1773   2.4922  11.3582   N.pl3     1 RES1   0.0000
    15 N5       4.1676   1.1453  -1.6986   N.pl3     1 RES1   0.0000
    16 N6       0.4243   7.9909   0.5854   N.pl3     1 RES1   0.0000
    17 C1       2.3730   2.6805   7.3345   C.ar      1 RES1   0.0000
    18 C2       2.8349   3.6183   8.2383   C.ar      1 RES1   0.0000
    19 C3       2.4365   3.5688   9.5692   C.ar      1 RES1   0.0000
    20 C4       1.5595   2.5719   9.9471   C.ar      1 RES1   0.0000
    21 C5       1.0839   1.6438   9.0598   C.ar      1 RES1   0.0000
    22 C6       1.4786   1.6957   7.7309   C.ar      1 RES1   0.0000
    23 C7       1.0992   0.5817   6.7882   C.3       1 RES1   0.0000
    24 C8       3.1911   1.0657   2.4113   C.ar      1 RES1   0.0000
    25 C9       2.1616   1.0753   1.4419   C.ar      1 RES1   0.0000
    26 C10      2.5012   1.1176   0.0965   C.ar      1 RES1   0.0000
    27 C11      3.8272   1.1393  -0.2629   C.ar      1 RES1   0.0000
    28 C12      4.8326   1.1321   0.6593   C.ar      1 RES1   0.0000
    29 C13      4.5225   1.1043   2.0005   C.ar      1 RES1   0.0000
    30 C14      0.7389   0.9812   1.9081   C.3       1 RES1   0.0000
    31 C15      2.0680   4.7685   2.7214   C.ar      1 RES1   0.0000
    32 C16      1.0994   5.5638   3.3212   C.ar      1 RES1   0.0000
    33 C17      0.5536   6.6174   2.6023   C.ar      1 RES1   0.0000
    34 C18      0.9847   6.8624   1.3145   C.ar      1 RES1   0.0000
    35 C19      1.9105   6.0755   0.7045   C.ar      1 RES1   0.0000
    36 C20      2.4541   5.0207   1.3884   C.ar      1 RES1   0.0000
    37 C21      0.7576   5.3719   4.7754   C.3       1 RES1   0.0000
    38 C22     -0.9420   1.1683   5.4675   C.3       1 RES1   0.0000
    39 C23     -1.3850   2.5091   6.0159   C.3       1 RES1   0.0000
    40 C24     -1.0861   3.6955   5.1081   C.3       1 RES1   0.0000
    41 C25     -1.5335   3.4421   3.6765   C.3       1 RES1   0.0000
    42 C26     -1.1099   2.1048   3.0973   C.3       1 RES1   0.0000
    43 C27     -1.4656   0.9716   4.0483   C.3       1 RES1   0.0000
    44 H1       0.6918   0.3379   4.9910   H         1 RES1   0.0000
    45 H2       0.4945   2.8241   2.3415   H         1 RES1   0.0000
    46 H3       0.5362   4.0431   5.9358   H         1 RES1   0.0000
    47 O10     11.1678   1.7355  16.0000   O.3       2 RES2   0.0000
    48 C28     11.8033   2.7421  15.1826   C.3       2 RES2   0.0000
    49 C29     13.2200   2.8386  15.5276   C.3       2 RES2   0.0000
    50 H4      10.4586   1.9672  16.1233   H         2 RES2   0.0000
@<TRIPOS>BOND
     1     1     2    1
     2     2    17    1
     3     3     1    1
     4     4     1    1
     5     5    14    2
     6     6    14    2
     7     7    15    2
     8     8    15    2
     9     9    16    2
    10    10    16    2
    11    11     1    1
    12    12     1    1
    13    13     1    1
    14    14    20    1
    15    15    27    1
    16    16    34    1
    17    17    18   ar
    18    18    19   ar
    19    19    20   ar
    20    20    21   ar
    21    21    22   ar
    22    22    17   ar
    23    23    11    1
    24    24     3    1
    25    25    24   ar
    26    26    25   ar
    27    27    26   ar
    28    28    27   ar
    29    29    24   ar
    30    30    12    1
    31    31     4    1
    32    32    31   ar
    33    33    32   ar
    34    34    33   ar
    35    35    34   ar
    36    36    31   ar
    37    37    13    1
    38    38    11    1
    39    39    38    1
    40    40    13    1
    41    41    40    1
    42    42    12    1
    43    43    38    1
    44    44    11    1
    45    45    12    1
    46    46    13    1
    47    22    23    1
    48    25    30    1
    49    28    29   ar
    50    32    37    1
    51    35    36   ar
    52    39    40    1
    53    41    42    1
    54    42    43    1
    55    47    48    1
    56    48    49    1
    57    50    47    1
@<TRIPOS>SUBSTRUCTURE
     1 RES1        1 GROUP             0 ****  ****    0  
     2 RES2       47 GROUP             0 ****  ****    0  
@<TRIPOS>CRYSIN
   12.2710   12.0690   20.5400   90.0000   90.5100   90.0000   231     1
