@<TRIPOS>MOLECULE
HEDCEY
    56    62     1     0     0
SMALL
NO_CHARGES
****
Generated from the CSD

@<TRIPOS>ATOM
     1 Fe1      2.4164   4.6172   6.7863   Fe        1 RES1   0.0000
     2 S1       0.5684   4.4544   8.2178   S.3       1 RES1   0.0000
     3 P1       2.9209   6.4409   7.8099   P.3       1 RES1   0.0000
     4 P2       1.3827   3.1083   5.6338   P.3       1 RES1   0.0000
     5 O1       4.0358   2.5908   8.1489   O.2       1 RES1   0.0000
     6 O2       4.3267   5.0804   4.6424   O.2       1 RES1   0.0000
     7 O3       3.6530   6.3830   9.2414   O.3       1 RES1   0.0000
     8 O4       1.8255   7.4722   8.3478   O.3       1 RES1   0.0000
     9 O5       3.8779   7.3600   6.8986   O.3       1 RES1   0.0000
    10 O6      -0.1588   3.2711   5.2314   O.3       1 RES1   0.0000
    11 O7       1.3455   1.6500   6.2495   O.3       1 RES1   0.0000
    12 O8       2.1403   2.9057   4.2334   O.3       1 RES1   0.0000
    13 C1       3.4052   3.4159   7.6666   C.1       1 RES1   0.0000
    14 C2       3.6073   4.8958   5.5004   C.1       1 RES1   0.0000
    15 C3       1.3638   2.8405  10.3451   C.ar      1 RES1   0.0000
    16 C4       1.5866   2.6270  11.6999   C.ar      1 RES1   0.0000
    17 C5       1.4793   3.6474  12.5946   C.ar      1 RES1   0.0000
    18 C6       1.1333   4.8705  12.1822   C.ar      1 RES1   0.0000
    19 C7       0.9057   5.1021  10.8452   C.ar      1 RES1   0.0000
    20 C8       1.0185   4.0889   9.9127   C.ar      1 RES1   0.0000
    21 C9       4.6468   4.7547  10.6329   C.ar      1 RES1   0.0000
    22 C10      5.7126   3.9333  10.9430   C.ar      1 RES1   0.0000
    23 C11      6.8347   3.9261  10.1784   C.ar      1 RES1   0.0000
    24 C12      6.9038   4.7366   9.0714   C.ar      1 RES1   0.0000
    25 C13      5.8523   5.5508   8.7146   C.ar      1 RES1   0.0000
    26 C14      4.7322   5.5435   9.5159   C.ar      1 RES1   0.0000
    27 C15     -0.4998   7.9064   8.3123   C.ar      1 RES1   0.0000
    28 C16     -1.5953   8.4709   7.7199   C.ar      1 RES1   0.0000
    29 C17     -1.5172   9.1259   6.5440   C.ar      1 RES1   0.0000
    30 C18     -0.3079   9.1874   5.9105   C.ar      1 RES1   0.0000
    31 C19      0.8236   8.6084   6.4818   C.ar      1 RES1   0.0000
    32 C20      0.7083   7.9679   7.6610   C.ar      1 RES1   0.0000
    33 C21      4.4938   9.4334   6.0250   C.ar      1 RES1   0.0000
    34 C22      4.9308  10.7361   6.1628   C.ar      1 RES1   0.0000
    35 C23      5.1786  11.2608   7.4120   C.ar      1 RES1   0.0000
    36 C24      4.9881  10.4756   8.5101   C.ar      1 RES1   0.0000
    37 C25      4.5611   9.1693   8.3856   C.ar      1 RES1   0.0000
    38 C26      4.2930   8.6772   7.1308   C.ar      1 RES1   0.0000
    39 C27     -0.2595   5.0370   3.5832   C.ar      1 RES1   0.0000
    40 C28     -0.8986   6.1478   3.0975   C.ar      1 RES1   0.0000
    41 C29     -1.9983   6.6508   3.7144   C.ar      1 RES1   0.0000
    42 C30     -2.5035   6.0284   4.8347   C.ar      1 RES1   0.0000
    43 C31     -1.8647   4.9248   5.3370   C.ar      1 RES1   0.0000
    44 C32     -0.7434   4.4399   4.7324   C.ar      1 RES1   0.0000
    45 C33      0.3602  -0.4740   5.8727   C.ar      1 RES1   0.0000
    46 C34     -0.6294  -1.4040   6.0861   C.ar      1 RES1   0.0000
    47 C35     -1.6652  -1.0855   6.9041   C.ar      1 RES1   0.0000
    48 C36     -1.7432   0.1339   7.5154   C.ar      1 RES1   0.0000
    49 C37     -0.7386   1.0783   7.3131   C.ar      1 RES1   0.0000
    50 C38      0.2890   0.7346   6.4707   C.ar      1 RES1   0.0000
    51 C39      0.7611   1.3244   2.9908   C.ar      1 RES1   0.0000
    52 C40      0.6999   0.4849   1.9050   C.ar      1 RES1   0.0000
    53 C41      1.6979   0.3257   1.0481   C.ar      1 RES1   0.0000
    54 C42      2.8731   0.9987   1.2503   C.ar      1 RES1   0.0000
    55 C43      3.0146   1.8527   2.3273   C.ar      1 RES1   0.0000
    56 C44      1.9418   2.0046   3.1686   C.ar      1 RES1   0.0000
@<TRIPOS>BOND
     1     1     2    1
     2     2    20    1
     3     3     1    1
     4     4     1    1
     5     5    13    3
     6     6    14    3
     7     7     3    1
     8     8     3    1
     9     9     3    1
    10    10     4    1
    11    11     4    1
    12    12     4    1
    13    13     1    1
    14    14     1    1
    15    15    16   ar
    16    16    17   ar
    17    17    18   ar
    18    18    19   ar
    19    19    20   ar
    20    20    15   ar
    21    21    22   ar
    22    22    23   ar
    23    23    24   ar
    24    24    25   ar
    25    25    26   ar
    26    26     7    1
    27    27    28   ar
    28    28    29   ar
    29    29    30   ar
    30    30    31   ar
    31    31    32   ar
    32    32     8    1
    33    33    34   ar
    34    34    35   ar
    35    35    36   ar
    36    36    37   ar
    37    37    38   ar
    38    38     9    1
    39    39    40   ar
    40    40    41   ar
    41    41    42   ar
    42    42    43   ar
    43    43    44   ar
    44    44    10    1
    45    45    46   ar
    46    46    47   ar
    47    47    48   ar
    48    48    49   ar
    49    49    50   ar
    50    50    11    1
    51    51    52   ar
    52    52    53   ar
    53    53    54   ar
    54    54    55   ar
    55    55    56   ar
    56    56    12    1
    57    21    26   ar
    58    27    32   ar
    59    33    38   ar
    60    39    44   ar
    61    45    50   ar
    62    51    56   ar
@<TRIPOS>SUBSTRUCTURE
     1 RES1        1 GROUP             0 ****  ****    0  
@<TRIPOS>CRYSIN
    9.9350   36.1850   12.1120   90.0000  113.4200   90.0000   231     1
