@<TRIPOS>MOLECULE
HEDZOJ
    78    84     1     0     0
SMALL
NO_CHARGES
****
Generated from the CSD

@<TRIPOS>ATOM
     1 C1      -2.7433   8.9521   5.7009   C.3       1 RES1   0.0000
     2 H1      -3.2806   9.7203   5.4155   H         1 RES1   0.0000
     3 H2      -2.7721   8.8775   6.6773   H         1 RES1   0.0000
     4 H3      -3.1039   8.1341   5.2995   H         1 RES1   0.0000
     5 C2      -1.8665   9.9055   2.9470   C.3       1 RES1   0.0000
     6 H4      -2.4950   9.1722   2.7811   H         1 RES1   0.0000
     7 H5      -1.3564  10.0902   2.1315   H         1 RES1   0.0000
     8 H6      -2.3648  10.7086   3.2094   H         1 RES1   0.0000
     9 C3      -0.9358   9.5227   4.0394   C.2       1 RES1   0.0000
    10 C4       0.4474   9.5029   4.0864   C.2       1 RES1   0.0000
    11 H7       1.0485   9.7164   3.3829   H         1 RES1   0.0000
    12 C5       0.7755   9.1042   5.3824   C.2       1 RES1   0.0000
    13 C6       2.0734   8.9000   6.0260   C.2       1 RES1   0.0000
    14 C7       3.3735   9.0994   5.5573   C.2       1 RES1   0.0000
    15 H8       3.6327   9.4230   4.7025   H         1 RES1   0.0000
    16 C8       4.2039   8.7284   6.5946   C.2       1 RES1   0.0000
    17 C9       5.6949   8.6862   6.6654   C.3       1 RES1   0.0000
    18 H9       5.9894   9.0195   7.5392   H         1 RES1   0.0000
    19 H10      6.0717   9.2486   5.9575   H         1 RES1   0.0000
    20 H11      6.0013   7.7630   6.5482   H         1 RES1   0.0000
    21 C10      3.7572   7.8642   8.9474   C.3       1 RES1   0.0000
    22 H12      4.7264   7.6648   8.9717   H         1 RES1   0.0000
    23 H13      3.2685   7.0252   9.1410   H         1 RES1   0.0000
    24 C11      3.4287   8.8970  10.0234   C.3       1 RES1   0.0000
    25 H14      4.0494   9.6648   9.9489   H         1 RES1   0.0000
    26 H15      2.5063   9.2319   9.8938   H         1 RES1   0.0000
    27 C12      4.9311   8.3125  11.8611   C.3       1 RES1   0.0000
    28 H16      5.0872   9.1726  12.3261   H         1 RES1   0.0000
    29 H17      5.5597   8.2635  11.0985   H         1 RES1   0.0000
    30 C13      5.2361   7.1593  12.8335   C.3       1 RES1   0.0000
    31 H18      4.5988   7.1929  13.5903   H         1 RES1   0.0000
    32 H19      6.1491   7.2729  13.1985   H         1 RES1   0.0000
    33 C14      5.1328   5.7819  12.1418   C.3       1 RES1   0.0000
    34 H20      4.2178   5.6469  11.8159   H         1 RES1   0.0000
    35 H21      5.3571   5.0755  12.7837   H         1 RES1   0.0000
    36 H22      5.7563   5.7466  11.3868   H         1 RES1   0.0000
    37 C15      2.5914   8.8262  12.3049   C.3       1 RES1   0.0000
    38 H23      2.6829   9.8114  12.3386   H         1 RES1   0.0000
    39 H24      2.8064   8.4724  13.2045   H         1 RES1   0.0000
    40 C16      1.1314   8.4707  11.9629   C.3       1 RES1   0.0000
    41 H25      0.5799   8.5558  12.7809   H         1 RES1   0.0000
    42 H26      0.7895   9.1200  11.2990   H         1 RES1   0.0000
    43 C17      1.4493   5.8438  13.5343   C.3       1 RES1   0.0000
    44 H27      2.4151   5.8939  13.6914   H         1 RES1   0.0000
    45 H28      1.1062   4.9922  13.8777   H         1 RES1   0.0000
    46 H29      1.0043   6.5849  13.9964   H         1 RES1   0.0000
    47 C18      1.1772   5.9355  12.0700   C.2       1 RES1   0.0000
    48 C19      1.0570   4.9471  11.1329   C.2       1 RES1   0.0000
    49 H30      1.1373   4.0110  11.2729   H         1 RES1   0.0000
    50 C20      0.7928   5.6004   9.9217   C.2       1 RES1   0.0000
    51 C21      0.5607   5.0539   8.6009   C.2       1 RES1   0.0000
    52 C22      0.5097   3.7284   8.1545   C.2       1 RES1   0.0000
    53 H31      0.6305   2.9418   8.6733   H         1 RES1   0.0000
    54 C23      0.2453   3.8044   6.8011   C.2       1 RES1   0.0000
    55 C24      0.0699   2.7215   5.7687   C.3       1 RES1   0.0000
    56 H32     -0.8294   2.7794   5.3840   H         1 RES1   0.0000
    57 H33      0.1887   1.8452   6.1914   H         1 RES1   0.0000
    58 H34      0.7368   2.8352   5.0597   H         1 RES1   0.0000
    59 C25     -0.0721   5.7219   5.1919   C.3       1 RES1   0.0000
    60 H35     -0.1059   5.0203   4.5085   H         1 RES1   0.0000
    61 H36      0.6545   6.3458   4.9835   H         1 RES1   0.0000
    62 H37     -0.9241   6.2055   5.2062   H         1 RES1   0.0000
    63 C26     -2.9820   7.1460   8.8045   C.1       1 RES1   0.0000
    64 C27      0.3344  10.9586   9.5599   C.1       1 RES1   0.0000
    65 N1       0.3462   5.9061   7.5871   N.2       1 RES1   0.0000
    66 N2       0.1644   5.1211   6.4894   N.pl3     1 RES1   0.0000
    67 N3       0.7556   6.9320  10.0935   N.2       1 RES1   0.0000
    68 N4       0.9823   7.1214  11.4285   N.pl3     1 RES1   0.0000
    69 N5       3.5509   8.2937  11.3444   N.3       1 RES1   0.0000
    70 N6       3.3972   8.3323   7.6172   N.pl3     1 RES1   0.0000
    71 N7       2.0776   8.4363   7.2827   N.2       1 RES1   0.0000
    72 N8      -0.3272   8.8704   6.1112   N.2       1 RES1   0.0000
    73 N9      -1.3653   9.1372   5.2690   N.pl3     1 RES1   0.0000
    74 N10     -1.9190   7.5955   8.6173   N.2       1 RES1   0.0000
    75 N11      0.0937   9.9507   9.0392   N.2       1 RES1   0.0000
    76 Fe1      0.0738   8.0324   8.1869   Fe        1 RES1   0.0000
    77 S1       0.6743  12.3776  10.2861   S.2       1 RES1   0.0000
    78 S2      -4.4577   6.5128   9.0858   S.2       1 RES1   0.0000
@<TRIPOS>BOND
     1     1     2    1
     2     3     1    1
     3     4     1    1
     4     5     6    1
     5     7     5    1
     6     8     5    1
     7     9     5    1
     8    10     9    2
     9    11    10    1
    10    12    10    1
    11    13    12    1
    12    14    13    1
    13    15    14    1
    14    16    14    2
    15    17    16    1
    16    18    17    1
    17    19    17    1
    18    20    17    1
    19    21    22    1
    20    23    21    1
    21    24    21    1
    22    25    24    1
    23    26    24    1
    24    27    28    1
    25    29    27    1
    26    30    27    1
    27    31    30    1
    28    32    30    1
    29    33    30    1
    30    34    33    1
    31    35    33    1
    32    36    33    1
    33    37    38    1
    34    39    37    1
    35    40    37    1
    36    41    40    1
    37    42    40    1
    38    43    44    1
    39    45    43    1
    40    46    43    1
    41    47    43    1
    42    48    47    2
    43    49    48    1
    44    50    48    1
    45    51    50    1
    46    52    51    1
    47    53    52    1
    48    54    52    2
    49    55    54    1
    50    56    55    1
    51    57    55    1
    52    58    55    1
    53    59    60    1
    54    61    59    1
    55    62    59    1
    56    63    74    2
    57    64    75    2
    58    65    51    2
    59    66    54    1
    60    67    50    2
    61    68    40    1
    62    69    24    1
    63    70    16    1
    64    71    13    2
    65    72    12    2
    66    73     1    1
    67    74    76    1
    68    75    76    1
    69    76    65    1
    70    77    64    2
    71    78    63    2
    72     9    73    1
    73    21    70    1
    74    27    69    1
    75    37    69    1
    76    47    68    1
    77    59    66    1
    78    65    66    1
    79    67    68    1
    80    67    76    1
    81    70    71    1
    82    71    76    1
    83    72    73    1
    84    72    76    1
@<TRIPOS>SUBSTRUCTURE
     1 RES1        1 GROUP             0 ****  ****    0  
@<TRIPOS>CRYSIN
   11.8170   21.1250   14.0030   90.0000  111.2440   90.0000    14     1
