@<TRIPOS>MOLECULE
HEHKIO
    76    78     1     0     0
SMALL
NO_CHARGES
****
Generated from the CSD

@<TRIPOS>ATOM
     1 Fe1      7.0185   2.7447   0.3258   Fe        1 RES1   0.0000
     2 P1       6.6619   1.8484   2.3808   P.3       1 RES1   0.0000
     3 P2       9.1136   1.9696   0.6009   P.3       1 RES1   0.0000
     4 P3       7.4893   4.8769   0.4900   P.3       1 RES1   0.0000
     5 P4       4.9496   3.4448  -0.1122   P.3       1 RES1   0.0000
     6 O1       6.7853   1.1945  -1.0415   O.co2     1 RES1   0.0000
     7 O2       7.2002   2.6219  -2.7106   O.co2     1 RES1   0.0000
     8 C1       8.1406   0.9569   2.9510   C.3       1 RES1   0.0000
     9 C2       8.9422   0.5582   1.7759   C.3       1 RES1   0.0000
    10 C3       5.9985   5.8848  -0.0267   C.3       1 RES1   0.0000
    11 C4       5.0850   5.0715  -0.9614   C.3       1 RES1   0.0000
    12 C5       5.3567   0.4625   2.4970   C.3       1 RES1   0.0000
    13 C6       5.6096  -0.6698   1.5890   C.3       1 RES1   0.0000
    14 C7       6.3522   2.8866   3.9524   C.3       1 RES1   0.0000
    15 C8       6.1959   2.2487   5.2343   C.3       1 RES1   0.0000
    16 C9       9.9769   1.1483  -0.7344   C.3       1 RES1   0.0000
    17 C10     10.6247   2.1051  -1.7893   C.3       1 RES1   0.0000
    18 C11     10.4424   2.9344   1.4822   C.3       1 RES1   0.0000
    19 C12     11.7576   2.2965   1.7626   C.3       1 RES1   0.0000
    20 C13      8.7835   5.5659  -0.6276   C.3       1 RES1   0.0000
    21 C14      8.3847   5.6615  -2.1365   C.3       1 RES1   0.0000
    22 C15      7.9868   5.6456   2.1098   C.3       1 RES1   0.0000
    23 C16      7.9354   7.1925   2.1632   C.3       1 RES1   0.0000
    24 C17      3.9104   2.6155  -1.3219   C.3       1 RES1   0.0000
    25 C18      3.3334   1.3396  -0.8412   C.3       1 RES1   0.0000
    26 C19      3.7504   3.7637   1.2151   C.3       1 RES1   0.0000
    27 C20      2.3723   4.4176   0.8946   C.3       1 RES1   0.0000
    28 C21      7.0829   2.3444  -1.4955   C.1       1 RES1   0.0000
    29 H1       8.6596   1.5342   3.5078   H         1 RES1   0.0000
    30 H2       7.8882   0.1930   3.4424   H         1 RES1   0.0000
    31 H3       8.5105  -0.1611   1.3353   H         1 RES1   0.0000
    32 H4       9.8059   0.2823   2.0617   H         1 RES1   0.0000
    33 H5       5.5039   6.1320   0.7451   H         1 RES1   0.0000
    34 H6       6.2835   6.6583  -0.4860   H         1 RES1   0.0000
    35 H7       5.4691   4.9646  -1.8213   H         1 RES1   0.0000
    36 H8       4.2263   5.4765  -1.0442   H         1 RES1   0.0000
    37 H9       5.3438   0.1308   3.3863   H         1 RES1   0.0000
    38 H10      4.5061   0.8293   2.2807   H         1 RES1   0.0000
    39 H11      4.9234  -1.3173   1.6971   H         1 RES1   0.0000
    40 H12      5.6187  -0.3620   0.6943   H         1 RES1   0.0000
    41 H13      6.4488  -1.0637   1.8026   H         1 RES1   0.0000
    42 H14      7.0903   3.4735   4.0392   H         1 RES1   0.0000
    43 H15      5.5603   3.3858   3.8029   H         1 RES1   0.0000
    44 H16      6.0528   2.9201   5.8940   H         1 RES1   0.0000
    45 H17      5.4494   1.6714   5.2023   H         1 RES1   0.0000
    46 H18      6.9794   1.7591   5.4386   H         1 RES1   0.0000
    47 H19     10.6631   0.6188  -0.3632   H         1 RES1   0.0000
    48 H20      9.3526   0.6012  -1.1924   H         1 RES1   0.0000
    49 H21     11.2544   2.6681  -1.3607   H         1 RES1   0.0000
    50 H22     11.0621   1.5884  -2.4569   H         1 RES1   0.0000
    51 H23      9.9478   2.6394  -2.1965   H         1 RES1   0.0000
    52 H24     10.6103   3.7047   0.9614   H         1 RES1   0.0000
    53 H25     10.0751   3.1944   2.3234   H         1 RES1   0.0000
    54 H26     11.6261   1.5326   2.3114   H         1 RES1   0.0000
    55 H27     12.1601   2.0366   0.9467   H         1 RES1   0.0000
    56 H28     12.3122   2.9169   2.2152   H         1 RES1   0.0000
    57 H29      8.9837   6.4462  -0.3298   H         1 RES1   0.0000
    58 H30      9.5524   5.0204  -0.5635   H         1 RES1   0.0000
    59 H31      7.6175   6.2213  -2.2273   H         1 RES1   0.0000
    60 H32      9.1014   6.0188  -2.6332   H         1 RES1   0.0000
    61 H33      8.1759   4.7892  -2.4596   H         1 RES1   0.0000
    62 H34      7.3948   5.3107   2.7734   H         1 RES1   0.0000
    63 H35      8.8695   5.3649   2.2967   H         1 RES1   0.0000
    64 H36      8.2118   7.4780   3.0311   H         1 RES1   0.0000
    65 H37      8.5259   7.5482   1.5142   H         1 RES1   0.0000
    66 H38      7.0536   7.4940   1.9989   H         1 RES1   0.0000
    67 H39      3.1930   3.1992  -1.5476   H         1 RES1   0.0000
    68 H40      4.4315   2.4353  -2.0924   H         1 RES1   0.0000
    69 H41      2.7897   1.4975  -0.0841   H         1 RES1   0.0000
    70 H42      2.8036   0.9553  -1.5369   H         1 RES1   0.0000
    71 H43      4.0343   0.7368  -0.6182   H         1 RES1   0.0000
    72 H44      3.5611   2.9217   1.6237   H         1 RES1   0.0000
    73 H45      4.1732   4.3267   1.8507   H         1 RES1   0.0000
    74 H46      2.5144   5.2692   0.5034   H         1 RES1   0.0000
    75 H47      1.9010   3.8642   0.2831   H         1 RES1   0.0000
    76 H48      1.8711   4.5117   1.6918   H         1 RES1   0.0000
@<TRIPOS>BOND
     1     1     2    1
     2     2     8    1
     3     3     1    1
     4     4     1    1
     5     5     1    1
     6     6     1   un
     7     7    28    2
     8     8     9    1
     9     9     3    1
    10    10     4    1
    11    11     5    1
    12    12     2    1
    13    13    12    1
    14    14     2    1
    15    15    14    1
    16    16     3    1
    17    17    16    1
    18    18     3    1
    19    19    18    1
    20    20     4    1
    21    21    20    1
    22    22     4    1
    23    23    22    1
    24    24     5    1
    25    25    24    1
    26    26     5    1
    27    27    26    1
    28    28     1   un
    29    29     8    1
    30    30     8    1
    31    31     9    1
    32    32     9    1
    33    33    10    1
    34    34    10    1
    35    35    11    1
    36    36    11    1
    37    37    12    1
    38    38    12    1
    39    39    13    1
    40    40    13    1
    41    41    13    1
    42    42    14    1
    43    43    14    1
    44    44    15    1
    45    45    15    1
    46    46    15    1
    47    47    16    1
    48    48    16    1
    49    49    17    1
    50    50    17    1
    51    51    17    1
    52    52    18    1
    53    53    18    1
    54    54    19    1
    55    55    19    1
    56    56    19    1
    57    57    20    1
    58    58    20    1
    59    59    21    1
    60    60    21    1
    61    61    21    1
    62    62    22    1
    63    63    22    1
    64    64    23    1
    65    65    23    1
    66    66    23    1
    67    67    24    1
    68    68    24    1
    69    69    25    1
    70    70    25    1
    71    71    25    1
    72    72    26    1
    73    73    26    1
    74    74    27    1
    75    75    27    1
    76    76    27    1
    77     6    28    2
    78    10    11    1
@<TRIPOS>SUBSTRUCTURE
     1 RES1        1 GROUP             0 ****  ****    0  
@<TRIPOS>CRYSIN
   12.6810   15.9480   13.3540   90.0000   90.7500   90.0000     9     1
