@<TRIPOS>MOLECULE
HEJXUS
    77    79     1     0     0
SMALL
NO_CHARGES
****
Generated from the CSD

@<TRIPOS>ATOM
     1 Fe1      9.3756  11.7246  12.2918   Fe        1 RES1   0.0000
     2 N1      10.2631  13.4976  13.4701   N.3       1 RES1   0.0000
     3 C1       9.5510  13.6645  14.7506   C.3       1 RES1   0.0000
     4 H1       9.6893  12.8811  15.2893   H         1 RES1   0.0000
     5 H2       9.8983  14.4520  15.2188   H         1 RES1   0.0000
     6 H3       8.6062  13.7820  14.5944   H         1 RES1   0.0000
     7 C2      10.0605  14.6787  12.6063   C.3       1 RES1   0.0000
     8 H4      10.1841  15.5058  13.1210   H         1 RES1   0.0000
     9 H5      10.7338  14.6439  11.9001   H         1 RES1   0.0000
    10 C3      11.7066  13.3496  13.7563   C.3       1 RES1   0.0000
    11 H6      12.1754  13.1641  12.9342   H         1 RES1   0.0000
    12 H7      12.0593  14.1593  14.1634   H         1 RES1   0.0000
    13 H8      11.8449  12.6209  14.3715   H         1 RES1   0.0000
    14 N2       7.5742  11.1772  13.3189   N.2       1 RES1   0.0000
    15 N3       7.1902  10.2948  12.4222   N.2       1 RES1   0.0000
    16 N4       7.9930  10.3595  11.3879   N.2       1 RES1   0.0000
    17 C4       7.7313   9.3593  10.3308   C.3       1 RES1   0.0000
    18 C5       6.2315   9.1609  10.0906   C.3       1 RES1   0.0000
    19 H9       6.1072   8.5132   9.3712   H         1 RES1   0.0000
    20 H10      5.8203  10.0109   9.8367   H         1 RES1   0.0000
    21 H11      5.8021   8.8433  10.9151   H         1 RES1   0.0000
    22 C6       8.4038   8.0307  10.7078   C.3       1 RES1   0.0000
    23 H12      8.2824   7.3846   9.9924   H         1 RES1   0.0000
    24 H13      9.3466   8.1765  10.8397   H         1 RES1   0.0000
    25 H14      8.0225   7.6936  11.5395   H         1 RES1   0.0000
    26 C7       8.3757   9.9107   9.0598   C.3       1 RES1   0.0000
    27 H15      8.3104   9.2580   8.3469   H         1 RES1   0.0000
    28 H16      7.9261  10.7264   8.7567   H         1 RES1   0.0000
    29 H17      9.3181  10.1101   9.2270   H         1 RES1   0.0000
    30 C8       6.7169  11.2057  14.5243   C.3       1 RES1   0.0000
    31 C9       6.3440   9.8278  15.0443   C.3       1 RES1   0.0000
    32 H18      5.9168   9.8922  15.9137   H         1 RES1   0.0000
    33 H19      5.7305   9.4011  14.4223   H         1 RES1   0.0000
    34 H20      7.1296   9.2693  15.1353   H         1 RES1   0.0000
    35 C10      5.4762  12.0609  14.2930   C.3       1 RES1   0.0000
    36 H21      4.9411  12.1087  15.0959   H         1 RES1   0.0000
    37 H22      5.7306  12.9608  14.0470   H         1 RES1   0.0000
    38 H23      4.9559  11.6615  13.5603   H         1 RES1   0.0000
    39 H24      7.2500  11.6680  15.2320   H         1 RES1   0.0000
    40 N1B      8.4881  13.4976  11.1134   N.3       1 RES1   0.0000
    41 C1B      9.2002  13.6645   9.8329   C.3       1 RES1   0.0000
    42 H1B      9.0619  12.8811   9.2942   H         1 RES1   0.0000
    43 H2B      8.8529  14.4520   9.3647   H         1 RES1   0.0000
    44 H3B     10.1450  13.7820   9.9891   H         1 RES1   0.0000
    45 C2B      8.6907  14.6787  11.9773   C.3       1 RES1   0.0000
    46 H4B      8.5671  15.5058  11.4625   H         1 RES1   0.0000
    47 H5B      8.0174  14.6439  12.6835   H         1 RES1   0.0000
    48 C3B      7.0446  13.3496  10.8272   C.3       1 RES1   0.0000
    49 H6B      6.5759  13.1641  11.6493   H         1 RES1   0.0000
    50 H7B      6.6919  14.1593  10.4201   H         1 RES1   0.0000
    51 H8B      6.9063  12.6209  10.2120   H         1 RES1   0.0000
    52 N2B     11.1770  11.1772  11.2647   N.2       1 RES1   0.0000
    53 N3B     11.5611  10.2948  12.1613   N.2       1 RES1   0.0000
    54 N4B     10.7582  10.3595  13.1956   N.2       1 RES1   0.0000
    55 C4B     11.0200   9.3593  14.2527   C.3       1 RES1   0.0000
    56 C5B     12.5197   9.1609  14.4930   C.3       1 RES1   0.0000
    57 H9B     12.6440   8.5132  15.2123   H         1 RES1   0.0000
    58 H10B    12.9309  10.0109  14.7468   H         1 RES1   0.0000
    59 H11B    12.9491   8.8433  13.6684   H         1 RES1   0.0000
    60 C6B     10.3474   8.0307  13.8758   C.3       1 RES1   0.0000
    61 H12B    10.4688   7.3846  14.5911   H         1 RES1   0.0000
    62 H13B     9.4046   8.1765  13.7438   H         1 RES1   0.0000
    63 H14B    10.7287   7.6936  13.0440   H         1 RES1   0.0000
    64 C7B     10.3755   9.9107  15.5237   C.3       1 RES1   0.0000
    65 H15B    10.4408   9.2580  16.2366   H         1 RES1   0.0000
    66 H16B    10.8251  10.7264  15.8269   H         1 RES1   0.0000
    67 H17B     9.4331  10.1101  15.3565   H         1 RES1   0.0000
    68 C8B     12.0343  11.2057  10.0592   C.3       1 RES1   0.0000
    69 C9B     12.4072   9.8278   9.5392   C.3       1 RES1   0.0000
    70 H18B    12.8345   9.8922   8.6698   H         1 RES1   0.0000
    71 H19B    13.0207   9.4011  10.1612   H         1 RES1   0.0000
    72 H20B    11.6216   9.2693   9.4483   H         1 RES1   0.0000
    73 C10B    13.2750  12.0609  10.2905   C.3       1 RES1   0.0000
    74 H21B    13.8101  12.1087   9.4876   H         1 RES1   0.0000
    75 H22B    13.0206  12.9608  10.5365   H         1 RES1   0.0000
    76 H23B    13.7953  11.6615  11.0233   H         1 RES1   0.0000
    77 H24B    11.5012  11.6680   9.3516   H         1 RES1   0.0000
@<TRIPOS>BOND
     1     1     2    1
     2     2     3    1
     3     3     4    1
     4     5     3    1
     5     6     3    1
     6     7     2    1
     7     8     7    1
     8     9     7    1
     9    10     2    1
    10    11    10    1
    11    12    10    1
    12    13    10    1
    13    14     1    1
    14    15    14   un
    15    16     1    1
    16    17    16    1
    17    18    17    1
    18    19    18    1
    19    20    18    1
    20    21    18    1
    21    22    17    1
    22    23    22    1
    23    24    22    1
    24    25    22    1
    25    26    17    1
    26    27    26    1
    27    28    26    1
    28    29    26    1
    29    30    14    1
    30    31    30    1
    31    32    31    1
    32    33    31    1
    33    34    31    1
    34    35    30    1
    35    36    35    1
    36    37    35    1
    37    38    35    1
    38    39    30    1
    39    40     1    1
    40    41    40    1
    41    42    41    1
    42    43    41    1
    43    44    41    1
    44    45     7    1
    45    46    45    1
    46    47    45    1
    47    48    40    1
    48    49    48    1
    49    50    48    1
    50    51    48    1
    51    52     1    1
    52    53    52   un
    53    54     1    1
    54    55    54    1
    55    56    55    1
    56    57    56    1
    57    58    56    1
    58    59    56    1
    59    60    55    1
    60    61    60    1
    61    62    60    1
    62    63    60    1
    63    64    55    1
    64    65    64    1
    65    66    64    1
    66    67    64    1
    67    68    52    1
    68    69    68    1
    69    70    69    1
    70    71    69    1
    71    72    69    1
    72    73    68    1
    73    74    73    1
    74    75    73    1
    75    76    73    1
    76    77    68    1
    77    15    16   un
    78    40    45    1
    79    53    54   un
@<TRIPOS>SUBSTRUCTURE
     1 RES1        1 GROUP             0 ****  ****    0  
@<TRIPOS>CRYSIN
    9.8650   16.2620   16.4020   90.0000   92.2800   90.0000    15     1
