@<TRIPOS>MOLECULE
HEJYAZ
    83    85     1     0     0
SMALL
NO_CHARGES
****
Generated from the CSD

@<TRIPOS>ATOM
     1 Fe1      7.3507   4.1250   4.3059   Fe        1 RES1   0.0000
     2 N1       8.7665   5.0655   2.7445   N.3       1 RES1   0.0000
     3 C1       9.7292   4.0715   2.2598   C.3       1 RES1   0.0000
     4 H1      10.3756   3.8820   2.9514   H         1 RES1   0.0000
     5 H2      10.1850   4.4276   1.4883   H         1 RES1   0.0000
     6 H3       9.2636   3.2589   2.0197   H         1 RES1   0.0000
     7 C2       7.9217   5.4496   1.5746   C.3       1 RES1   0.0000
     8 C3       6.6525   6.0183   2.0269   C.3       1 RES1   0.0000
     9 N2       5.8568   5.0969   2.8749   N.3       1 RES1   0.0000
    10 C4       4.9353   6.0167   3.5620   C.3       1 RES1   0.0000
    11 H4       4.5679   5.5749   4.3299   H         1 RES1   0.0000
    12 H5       5.4108   6.8062   3.8362   H         1 RES1   0.0000
    13 H6       4.2300   6.2689   2.9496   H         1 RES1   0.0000
    14 C5       5.0630   3.9974   2.2185   C.3       1 RES1   0.0000
    15 H7       4.5424   3.5127   2.8776   H         1 RES1   0.0000
    16 H8       5.6839   3.3990   1.7949   H         1 RES1   0.0000
    17 H9       4.4776   4.3831   1.5620   H         1 RES1   0.0000
    18 H10      6.8411   6.8392   2.5278   H         1 RES1   0.0000
    19 H11      6.1220   6.2310   1.2302   H         1 RES1   0.0000
    20 H12      8.3932   6.1007   1.0270   H         1 RES1   0.0000
    21 H13      7.7272   4.6501   1.0530   H         1 RES1   0.0000
    22 C6       9.5583   6.1864   3.3569   C.3       1 RES1   0.0000
    23 H14      8.9708   6.7815   3.8255   H         1 RES1   0.0000
    24 H15     10.0318   6.6727   2.6816   H         1 RES1   0.0000
    25 H16     10.1929   5.8287   3.9864   H         1 RES1   0.0000
    26 N3       8.9276   3.8704   5.7840   N.2       1 RES1   0.0000
    27 N4       8.5661   4.9188   6.5304   N.2       1 RES1   0.0000
    28 N5       7.6152   5.5996   5.8515   N.2       1 RES1   0.0000
    29 C7       7.1810   6.6760   6.7238   C.3       1 RES1   0.0000
    30 C8       7.6879   8.0013   6.1860   C.3       1 RES1   0.0000
    31 C9       7.2301   9.1700   7.0862   C.3       1 RES1   0.0000
    32 C10      7.9158   9.2558   8.4521   C.3       1 RES1   0.0000
    33 H17      7.7959  10.1492   8.7912   H         1 RES1   0.0000
    34 H18      8.8451   9.0596   8.3514   H         1 RES1   0.0000
    35 H19      7.5071   8.6195   9.0448   H         1 RES1   0.0000
    36 H20      7.3853  10.0107   6.6177   H         1 RES1   0.0000
    37 H21      6.2772   9.0580   7.2561   H         1 RES1   0.0000
    38 H22      8.6565   7.9651   6.1527   H         1 RES1   0.0000
    39 H23      7.3244   8.1217   5.2859   H         1 RES1   0.0000
    40 H24      7.5444   6.5540   7.6113   H         1 RES1   0.0000
    41 H25      6.2104   6.7024   6.7597   H         1 RES1   0.0000
    42 C11      9.8392   3.0017   6.4441   C.3       1 RES1   0.0000
    43 C12      9.1810   2.2154   7.5817   C.3       1 RES1   0.0000
    44 H26      9.2871   1.2709   7.4216   H         1 RES1   0.0000
    45 H27      9.6113   2.4479   8.4090   H         1 RES1   0.0000
    46 H28      8.2439   2.4363   7.6401   H         1 RES1   0.0000
    47 C13     10.5603   2.0836   5.4540   C.3       1 RES1   0.0000
    48 H29     10.9159   1.3072   5.9432   H         1 RES1   0.0000
    49 H30     11.2911   2.5913   5.0305   H         1 RES1   0.0000
    50 H31      9.8883   1.8066   4.7805   H         1 RES1   0.0000
    51 C14     11.0338   3.7633   7.0052   C.3       1 RES1   0.0000
    52 H32     11.6526   3.1419   7.4063   H         1 RES1   0.0000
    53 H33     11.4680   4.2397   6.2867   H         1 RES1   0.0000
    54 H34     10.7155   4.3814   7.6752   H         1 RES1   0.0000
    55 N6       5.8587   2.8600   5.2517   N.2       1 RES1   0.0000
    56 N7       6.2163   1.7539   4.6042   N.2       1 RES1   0.0000
    57 N8       7.1987   2.0935   3.6501   N.2       1 RES1   0.0000
    58 C15      7.7213   0.9099   3.0251   C.3       1 RES1   0.0000
    59 C16      6.9924   0.5654   1.7356   C.3       1 RES1   0.0000
    60 C17      7.5602  -0.8226   1.2949   C.3       1 RES1   0.0000
    61 C18      6.5601  -1.3270   0.2788   C.3       1 RES1   0.0000
    62 H35      6.9295  -2.1034  -0.1592   H         1 RES1   0.0000
    63 H36      6.4049  -0.6280  -0.3714   H         1 RES1   0.0000
    64 H37      5.7428  -1.5577   0.7347   H         1 RES1   0.0000
    65 H38      8.4286  -0.7319   0.8930   H         1 RES1   0.0000
    66 H39      7.5975  -1.4539   2.0296   H         1 RES1   0.0000
    67 H40      7.1731   1.2495   1.0764   H         1 RES1   0.0000
    68 H41      6.0375   0.5077   1.8974   H         1 RES1   0.0000
    69 H42      8.6565   1.0533   2.8192   H         1 RES1   0.0000
    70 H43      7.6270   0.1484   3.6222   H         1 RES1   0.0000
    71 C19      4.9000   2.6275   6.2885   C.3       1 RES1   0.0000
    72 C20      5.3852   1.4226   7.1311   C.3       1 RES1   0.0000
    73 H44      4.6799   1.1423   7.7363   H         1 RES1   0.0000
    74 H45      6.1692   1.6797   7.6392   H         1 RES1   0.0000
    75 H46      5.6073   0.6940   6.5349   H         1 RES1   0.0000
    76 C21      3.5424   2.2633   5.6815   C.3       1 RES1   0.0000
    77 H47      2.8960   2.1561   6.3928   H         1 RES1   0.0000
    78 H48      3.2673   2.9770   5.0898   H         1 RES1   0.0000
    79 H49      3.6327   1.4341   5.1941   H         1 RES1   0.0000
    80 C22      4.9451   3.7699   7.3119   C.3       1 RES1   0.0000
    81 H50      4.6328   3.4402   8.1698   H         1 RES1   0.0000
    82 H51      5.8568   4.0880   7.3964   H         1 RES1   0.0000
    83 H52      4.3754   4.4902   7.0016   H         1 RES1   0.0000
@<TRIPOS>BOND
     1     1     2    1
     2     2     3    1
     3     3     4    1
     4     5     3    1
     5     6     3    1
     6     7     2    1
     7     8     7    1
     8     9     1    1
     9    10     9    1
    10    11    10    1
    11    12    10    1
    12    13    10    1
    13    14     9    1
    14    15    14    1
    15    16    14    1
    16    17    14    1
    17    18     8    1
    18    19     8    1
    19    20     7    1
    20    21     7    1
    21    22     2    1
    22    23    22    1
    23    24    22    1
    24    25    22    1
    25    26     1    1
    26    27    26   un
    27    28     1    1
    28    29    28    1
    29    30    29    1
    30    31    30    1
    31    32    31    1
    32    33    32    1
    33    34    32    1
    34    35    32    1
    35    36    31    1
    36    37    31    1
    37    38    30    1
    38    39    30    1
    39    40    29    1
    40    41    29    1
    41    42    26    1
    42    43    42    1
    43    44    43    1
    44    45    43    1
    45    46    43    1
    46    47    42    1
    47    48    47    1
    48    49    47    1
    49    50    47    1
    50    51    42    1
    51    52    51    1
    52    53    51    1
    53    54    51    1
    54    55     1    1
    55    56    55   un
    56    57     1    1
    57    58    57    1
    58    59    58    1
    59    60    59    1
    60    61    60    1
    61    62    61    1
    62    63    61    1
    63    64    61    1
    64    65    60    1
    65    66    60    1
    66    67    59    1
    67    68    59    1
    68    69    58    1
    69    70    58    1
    70    71    55    1
    71    72    71    1
    72    73    72    1
    73    74    72    1
    74    75    72    1
    75    76    71    1
    76    77    76    1
    77    78    76    1
    78    79    76    1
    79    80    71    1
    80    81    80    1
    81    82    80    1
    82    83    80    1
    83     8     9    1
    84    27    28   un
    85    56    57   un
@<TRIPOS>SUBSTRUCTURE
     1 RES1        1 GROUP             0 ****  ****    0  
@<TRIPOS>CRYSIN
   19.6470   16.4840    8.9926   90.0000   90.0000   90.0000    18     1
