@<TRIPOS>MOLECULE
HEJYED
    83    85     1     0     0
SMALL
NO_CHARGES
****
Generated from the CSD

@<TRIPOS>ATOM
     1 Fe1      4.1627   9.3784   4.5235   Fe        1 RES1   0.0000
     2 N1       3.6535  10.6770   6.0772   N.2       1 RES1   0.0000
     3 N2       4.7526  10.6888   6.7973   N.2       1 RES1   0.0000
     4 N3       5.6378   9.8712   6.3254   N.2       1 RES1   0.0000
     5 C1       6.8657   9.8903   7.1802   C.3       1 RES1   0.0000
     6 C2       7.4463  11.3040   7.2703   C.3       1 RES1   0.0000
     7 H1       8.2769  11.2937   7.8183   H         1 RES1   0.0000
     8 H2       6.8220  11.9246   7.6609   H         1 RES1   0.0000
     9 H3       7.6925  11.6075   6.3690   H         1 RES1   0.0000
    10 C3       6.5427   9.3957   8.5917   C.3       1 RES1   0.0000
    11 H4       7.3518   9.4244   9.1555   H         1 RES1   0.0000
    12 H5       5.8476   9.9291   8.9926   H         1 RES1   0.0000
    13 H6       6.2457   8.4798   8.5566   H         1 RES1   0.0000
    14 C4       7.8733   8.9671   6.5310   C.3       1 RES1   0.0000
    15 H7       8.7049   8.9497   7.0584   H         1 RES1   0.0000
    16 H8       8.1094   9.2833   5.6326   H         1 RES1   0.0000
    17 H9       7.5271   8.0748   6.4631   H         1 RES1   0.0000
    18 C5       2.6440  11.6359   6.5746   C.3       1 RES1   0.0000
    19 C6       2.1474  11.1918   7.9759   C.3       1 RES1   0.0000
    20 H10      1.4003  11.7386   8.2834   H         1 RES1   0.0000
    21 H11      2.9142  11.3435   8.6072   H         1 RES1   0.0000
    22 H12      1.9388  10.2346   7.9685   H         1 RES1   0.0000
    23 C7       3.2036  13.0322   6.6502   C.3       1 RES1   0.0000
    24 H13      2.5251  13.6162   6.9553   H         1 RES1   0.0000
    25 H14      3.9307  13.0119   7.3099   H         1 RES1   0.0000
    26 H15      3.5034  13.2593   5.6833   H         1 RES1   0.0000
    27 C8       1.4732  11.5844   5.6208   C.3       1 RES1   0.0000
    28 H16      0.7946  12.2035   5.9203   H         1 RES1   0.0000
    29 H17      1.7930  11.8333   4.7225   H         1 RES1   0.0000
    30 H18      1.0815  10.6944   5.5819   H         1 RES1   0.0000
    31 N4       5.1160   7.5766   3.4138   N.3       1 RES1   0.0000
    32 C9       4.8623   6.3957   4.2586   C.3       1 RES1   0.0000
    33 H19      5.0193   5.5846   3.7328   H         1 RES1   0.0000
    34 H20      5.5016   6.4263   5.0084   H         1 RES1   0.0000
    35 C10      6.5739   7.7270   3.2397   C.3       1 RES1   0.0000
    36 H21      6.7923   8.4931   2.6743   H         1 RES1   0.0000
    37 H22      6.9648   6.9260   2.8335   H         1 RES1   0.0000
    38 H23      6.9791   7.8639   4.1127   H         1 RES1   0.0000
    39 C11      4.5330   7.3804   2.0748   C.3       1 RES1   0.0000
    40 H24      4.6792   8.1926   1.5362   H         1 RES1   0.0000
    41 H25      3.5741   7.2148   2.1550   H         1 RES1   0.0000
    42 H26      4.9414   6.6454   1.5995   H         1 RES1   0.0000
    43 N4B      3.2094   7.5766   5.6331   N.3       1 RES1   0.0000
    44 C9B      3.4630   6.3957   4.7883   C.3       1 RES1   0.0000
    45 H19B     3.3061   5.5846   5.3142   H         1 RES1   0.0000
    46 H20B     2.8238   6.4263   4.0385   H         1 RES1   0.0000
    47 C10B     1.7514   7.7270   5.8072   C.3       1 RES1   0.0000
    48 H21B     1.5331   8.4931   6.3726   H         1 RES1   0.0000
    49 H22B     1.3606   6.9260   6.2134   H         1 RES1   0.0000
    50 H23B     1.3463   7.8639   4.9342   H         1 RES1   0.0000
    51 C11B     3.7924   7.3804   6.9721   C.3       1 RES1   0.0000
    52 H24B     3.6462   8.1926   7.5107   H         1 RES1   0.0000
    53 H25B     4.7513   7.2148   6.8919   H         1 RES1   0.0000
    54 H26B     3.3840   6.6454   7.4474   H         1 RES1   0.0000
    55 N1B      4.6718  10.6770   2.9697   N.2       1 RES1   0.0000
    56 N2B      3.5727  10.6888   2.2496   N.2       1 RES1   0.0000
    57 N3B      2.6876   9.8712   2.7215   N.2       1 RES1   0.0000
    58 C1B      1.4597   9.8903   1.8667   C.3       1 RES1   0.0000
    59 C2B      0.8791  11.3040   1.7766   C.3       1 RES1   0.0000
    60 H1B      0.0485  11.2937   1.2286   H         1 RES1   0.0000
    61 H2B      1.5034  11.9246   1.3860   H         1 RES1   0.0000
    62 H3B      0.6329  11.6075   2.6779   H         1 RES1   0.0000
    63 C3B      1.7827   9.3957   0.4552   C.3       1 RES1   0.0000
    64 H4B      0.9736   9.4244  -0.1086   H         1 RES1   0.0000
    65 H5B      2.4777   9.9291   0.0543   H         1 RES1   0.0000
    66 H6B      2.0797   8.4798   0.4903   H         1 RES1   0.0000
    67 C4B      0.4521   8.9671   2.5159   C.3       1 RES1   0.0000
    68 H7B     -0.3795   8.9497   1.9885   H         1 RES1   0.0000
    69 H8B      0.2160   9.2833   3.4143   H         1 RES1   0.0000
    70 H9B      0.7983   8.0748   2.5838   H         1 RES1   0.0000
    71 C5B      5.6814  11.6359   2.4723   C.3       1 RES1   0.0000
    72 C6B      6.1780  11.1918   1.0710   C.3       1 RES1   0.0000
    73 H10B     6.9251  11.7386   0.7636   H         1 RES1   0.0000
    74 H11B     5.4112  11.3435   0.4397   H         1 RES1   0.0000
    75 H12B     6.3866  10.2346   1.0784   H         1 RES1   0.0000
    76 C7B      5.1218  13.0322   2.3967   C.3       1 RES1   0.0000
    77 H13B     5.8002  13.6162   2.0916   H         1 RES1   0.0000
    78 H14B     4.3947  13.0119   1.7370   H         1 RES1   0.0000
    79 H15B     4.8220  13.2593   3.3636   H         1 RES1   0.0000
    80 C8B      6.8522  11.5844   3.4261   C.3       1 RES1   0.0000
    81 H16B     7.5308  12.2035   3.1266   H         1 RES1   0.0000
    82 H17B     6.5324  11.8333   4.3244   H         1 RES1   0.0000
    83 H18B     7.2439  10.6944   3.4650   H         1 RES1   0.0000
@<TRIPOS>BOND
     1     1     2    1
     2     2     3   un
     3     3     4   un
     4     4     1    1
     5     5     4    1
     6     6     5    1
     7     7     6    1
     8     8     6    1
     9     9     6    1
    10    10     5    1
    11    11    10    1
    12    12    10    1
    13    13    10    1
    14    14     5    1
    15    15    14    1
    16    16    14    1
    17    17    14    1
    18    18     2    1
    19    19    18    1
    20    20    19    1
    21    21    19    1
    22    22    19    1
    23    23    18    1
    24    24    23    1
    25    25    23    1
    26    26    23    1
    27    27    18    1
    28    28    27    1
    29    29    27    1
    30    30    27    1
    31    31     1    1
    32    32    31    1
    33    33    32    1
    34    34    32    1
    35    35    31    1
    36    36    35    1
    37    37    35    1
    38    38    35    1
    39    39    31    1
    40    40    39    1
    41    41    39    1
    42    42    39    1
    43    43     1    1
    44    44    32    1
    45    45    44    1
    46    46    44    1
    47    47    43    1
    48    48    47    1
    49    49    47    1
    50    50    47    1
    51    51    43    1
    52    52    51    1
    53    53    51    1
    54    54    51    1
    55    55     1    1
    56    56    55   un
    57    57     1    1
    58    58    57    1
    59    59    58    1
    60    60    59    1
    61    61    59    1
    62    62    59    1
    63    63    58    1
    64    64    63    1
    65    65    63    1
    66    66    63    1
    67    67    58    1
    68    68    67    1
    69    69    67    1
    70    70    67    1
    71    71    55    1
    72    72    71    1
    73    73    72    1
    74    74    72    1
    75    75    72    1
    76    76    71    1
    77    77    76    1
    78    78    76    1
    79    79    76    1
    80    80    71    1
    81    81    80    1
    82    82    80    1
    83    83    80    1
    84    43    44    1
    85    56    57   un
@<TRIPOS>SUBSTRUCTURE
     1 RES1        1 GROUP             0 ****  ****    0  
@<TRIPOS>CRYSIN
    9.6188   16.6011   18.2778   90.0000   98.1363   90.0000    15     1
