@<TRIPOS>MOLECULE
HEQSAX
    43    49     2     0     0
SMALL
USER_CHARGES
****
Generated from the CSD

@<TRIPOS>ATOM
     1 Cl1     -5.5116   6.1400   4.7325   Cl        1 RES1   0.0000
     2 Fe1     -0.3387   1.1443   3.3934   Fe        2 RES2   1.0000
     3 O1       0.3124   2.5240   2.2511   O.3       2 RES2   0.0000
     4 O2       1.0859  -0.1016   3.4432   O.3       2 RES2   0.0000
     5 O3       1.9238   4.1391   0.8677   O.3       2 RES2   0.0000
     6 O4       3.3514  -1.2749   3.0970   O.3       2 RES2   0.0000
     7 N1      -2.1234   2.2183   3.6446   N.2       2 RES2   0.0000
     8 N2      -1.4481  -0.1014   4.6875   N.2       2 RES2   0.0000
     9 N3      -1.2602   0.1335   1.7643   N.2       2 RES2   0.0000
    10 N4       0.3694   2.1732   5.1670   N.2       2 RES2   0.0000
    11 C1      -0.1177   3.7438   2.0323   C.ar      2 RES2   0.0000
    12 C2       0.7287   4.6436   1.3327   C.ar      2 RES2   0.0000
    13 C3       0.3749   5.9497   1.0951   C.ar      2 RES2   0.0000
    14 C4      -0.8928   6.4274   1.5427   C.ar      2 RES2   0.0000
    15 C5      -1.6627   5.6280   2.2221   C.ar      2 RES2   0.0000
    16 C6      -1.3528   4.2350   2.5031   C.ar      2 RES2   0.0000
    17 C7      -2.3030   3.4536   3.2462   C.2       2 RES2   0.0000
    18 C8      -3.1510   1.5349   4.3457   C.ar      2 RES2   0.0000
    19 C9      -4.4641   1.9596   4.4485   C.ar      2 RES2   0.0000
    20 C10     -5.3728   1.2334   5.2163   C.ar      2 RES2   0.0000
    21 C11     -4.9785   0.0438   5.8421   C.ar      2 RES2   0.0000
    22 C12     -3.6999  -0.4243   5.6986   C.ar      2 RES2   0.0000
    23 C13     -2.7644   0.3027   4.9396   C.ar      2 RES2   0.0000
    24 C14     -0.9739  -1.2285   5.2105   C.2       2 RES2   0.0000
    25 C15      0.2992  -1.7781   5.0048   C.ar      2 RES2   0.0000
    26 C16      0.6213  -2.9719   5.6871   C.ar      2 RES2   0.0000
    27 C17      1.8441  -3.5642   5.5248   C.ar      2 RES2   0.0000
    28 C18      2.7738  -3.0158   4.7006   C.ar      2 RES2   0.0000
    29 C19      2.5246  -1.8648   3.9720   C.ar      2 RES2   0.0000
    30 C20      4.6440  -1.8396   2.9000   C.3       2 RES2   0.0000
    31 C21      5.3666  -0.9946   1.8585   C.3       2 RES2   0.0000
    32 C22      1.2957  -1.1687   4.1168   C.ar      2 RES2   0.0000
    33 C23      3.0229   4.3048   1.8324   C.3       2 RES2   0.0000
    34 C24      4.1277   3.5539   1.1878   C.3       2 RES2   0.0000
    35 C25     -6.7985   1.6524   5.2496   C.3       2 RES2   0.0000
    36 C26     -1.3011  -1.1889   1.5673   C.2       2 RES2   0.0000
    37 N5      -1.6856  -1.4331   0.3114   N.2       2 RES2   0.0000
    38 C27     -1.9422  -0.2436  -0.3404   C.2       2 RES2   0.0000
    39 C28     -1.6781   0.7184   0.6142   C.2       2 RES2   0.0000
    40 C29      0.7036   1.5815   6.2926   C.2       2 RES2   0.0000
    41 C30      1.1588   2.4621   7.1921   C.2       2 RES2   0.0000
    42 N6       1.1092   3.5871   6.6127   N.2       2 RES2   0.0000
    43 C31      0.6811   3.4652   5.3336   C.2       2 RES2   0.0000
@<TRIPOS>BOND
     1     2     3    1
     2     3    11    1
     3     4     2    1
     4     5    12    1
     5     6    29    1
     6     7     2    1
     7     8     2    1
     8     9     2    1
     9    10     2    1
    10    11    12   ar
    11    12    13   ar
    12    13    14   ar
    13    14    15   ar
    14    15    16   ar
    15    16    11   ar
    16    17     7    2
    17    18     7    1
    18    19    18   ar
    19    20    19   ar
    20    21    20   ar
    21    22    21   ar
    22    23     8    1
    23    24     8    2
    24    25    24    1
    25    26    25   ar
    26    27    26   ar
    27    28    27   ar
    28    29    28   ar
    29    30     6    1
    30    31    30    1
    31    32     4    1
    32    33     5    1
    33    34    33    1
    34    35    20    1
    35    36     9    2
    36    37    36    1
    37    38    37    1
    38    39     9    1
    39    40    10    1
    40    41    40    2
    41    42    41    1
    42    43    10    2
    43    16    17    1
    44    18    23   ar
    45    22    23   ar
    46    25    32   ar
    47    29    32   ar
    48    38    39    2
    49    42    43    1
@<TRIPOS>SUBSTRUCTURE
     1 RES1        1 GROUP             0 ****  ****    0  
     2 RES2        2 GROUP             0 ****  ****    0  
@<TRIPOS>CRYSIN
   10.6090   10.7620   15.0430  105.1300   90.6700  102.0900     2     1
