@<TRIPOS>MOLECULE
HEVJUO
    93    98     3     0     0
SMALL
NO_CHARGES
****
Generated from the CSD

@<TRIPOS>ATOM
     1 Fe1      8.8295   3.6626  12.9732   Fe        1 RES1   0.0000
     2 C1       8.5447   5.3419  13.5633   C.1       1 RES1   0.0000
     3 O1       8.3048   6.3730  13.9724   O.2       1 RES1   0.0000
     4 C2       7.3544   3.0299  13.5786   C.1       1 RES1   0.0000
     5 O2       6.3850   2.5420  13.9509   O.2       1 RES1   0.0000
     6 B1       9.1992   1.6838  12.3484   B         1 RES1   0.0000
     7 S1      10.8950   4.2112  12.0496   S.2       1 RES1   0.0000
     8 S2       9.7623   2.9494  14.9351   S.2       1 RES1   0.0000
     9 S3       7.7729   3.8662  10.9499   S.2       1 RES1   0.0000
    10 C3      11.3728   2.6791  11.5042   C.2       1 RES1   0.0000
    11 N1      10.5842   1.6055  11.6590   N.am      1 RES1   0.0000
    12 N2      12.5122   2.2745  10.8945   N.am      1 RES1   0.0000
    13 C4      12.4135   0.9137  10.6922   C.2       1 RES1   0.0000
    14 H1      13.0605   0.3704  10.3016   H         1 RES1   0.0000
    15 C5      11.2407   0.5156  11.1518   C.2       1 RES1   0.0000
    16 H2      10.9168  -0.3557  11.1335   H         1 RES1   0.0000
    17 C6      13.6717   3.1245  10.4655   C.3       1 RES1   0.0000
    18 C7      14.7333   2.2598   9.8021   C.3       1 RES1   0.0000
    19 H3      14.3679   1.8519   9.0131   H         1 RES1   0.0000
    20 H4      15.0165   1.5745  10.4119   H         1 RES1   0.0000
    21 H5      15.4857   2.8047   9.5616   H         1 RES1   0.0000
    22 C8      14.2449   3.7869  11.6973   C.3       1 RES1   0.0000
    23 H6      13.5794   4.3498  12.0971   H         1 RES1   0.0000
    24 H7      15.0073   4.3156  11.4491   H         1 RES1   0.0000
    25 H8      14.5150   3.1131  12.3269   H         1 RES1   0.0000
    26 C9      13.1511   4.1426   9.4850   C.3       1 RES1   0.0000
    27 H9      12.4948   4.6957   9.9155   H         1 RES1   0.0000
    28 H10     12.7496   3.6923   8.7373   H         1 RES1   0.0000
    29 H11     13.8767   4.6892   9.1755   H         1 RES1   0.0000
    30 C10      9.5514   1.2661  14.7598   C.2       1 RES1   0.0000
    31 N3       9.2426   0.7375  13.5618   N.am      1 RES1   0.0000
    32 C11      9.1810  -0.6298  13.7426   C.2       1 RES1   0.0000
    33 H12      9.0033  -1.2531  13.0761   H         1 RES1   0.0000
    34 N4       9.6560   0.2643  15.6775   N.am      1 RES1   0.0000
    35 C12      9.4121  -0.9137  15.0142   C.2       1 RES1   0.0000
    36 H13      9.4083  -1.7621  15.3926   H         1 RES1   0.0000
    37 C13      9.8833   0.4177  17.1330   C.3       1 RES1   0.0000
    38 C14      8.6811   1.1307  17.7106   C.3       1 RES1   0.0000
    39 H14      8.5967   1.9971  17.3031   H         1 RES1   0.0000
    40 H15      8.7922   1.2319  18.6589   H         1 RES1   0.0000
    41 H16      7.8882   0.6167  17.5344   H         1 RES1   0.0000
    42 C15     11.1651   1.1813  17.3873   C.3       1 RES1   0.0000
    43 H17     11.9049   0.7016  17.0058   H         1 RES1   0.0000
    44 H18     11.3002   1.2743  18.3341   H         1 RES1   0.0000
    45 H19     11.1059   2.0509  16.9859   H         1 RES1   0.0000
    46 C16     10.0250  -0.9398  17.7657   C.3       1 RES1   0.0000
    47 H20     10.7858  -1.3901  17.3919   H         1 RES1   0.0000
    48 H21      9.2319  -1.4554  17.5972   H         1 RES1   0.0000
    49 H22     10.1459  -0.8403  18.7141   H         1 RES1   0.0000
    50 C17      7.4612   2.2157  10.6601   C.2       1 RES1   0.0000
    51 N5       8.1244   1.2514  11.3020   N.am      1 RES1   0.0000
    52 C18      7.6950   0.0489  10.8056   C.2       1 RES1   0.0000
    53 H23      8.0024  -0.7881  11.0737   H         1 RES1   0.0000
    54 N6       6.5902   1.6365   9.7807   N.am      1 RES1   0.0000
    55 C19      6.7770   0.2708   9.8833   C.2       1 RES1   0.0000
    56 H24      6.3306  -0.3802   9.3900   H         1 RES1   0.0000
    57 C20      5.5759   2.3365   8.9411   C.3       1 RES1   0.0000
    58 C21      4.6485   3.1115   9.8588   C.3       1 RES1   0.0000
    59 H25      5.1504   3.7820  10.3276   H         1 RES1   0.0000
    60 H26      4.2474   2.5110  10.4915   H         1 RES1   0.0000
    61 H27      3.9617   3.5324   9.3364   H         1 RES1   0.0000
    62 C22      4.7498   1.2841   8.2026   C.3       1 RES1   0.0000
    63 H28      5.3192   0.7848   7.6128   H         1 RES1   0.0000
    64 H29      4.0627   1.7181   7.6925   H         1 RES1   0.0000
    65 H30      4.3472   0.6885   8.8400   H         1 RES1   0.0000
    66 C23      6.2752   3.2387   7.9437   C.3       1 RES1   0.0000
    67 H31      6.8468   2.7117   7.3815   H         1 RES1   0.0000
    68 H32      6.8010   3.8897   8.4156   H         1 RES1   0.0000
    69 H33      5.6197   3.6874   7.4044   H         1 RES1   0.0000
    70 C24     12.8571  -0.2415  14.3860   C.ar      2 RES2   0.0000
    71 H34     12.2411  -0.4144  13.7104   H         2 RES2   0.0000
    72 C25     13.3517   0.9822  14.5316   C.ar      2 RES2   0.0000
    73 H35     13.0329   1.6773  14.0030   H         2 RES2   0.0000
    74 C26     13.2403  -1.2172  15.1980   C.ar      2 RES2   0.0000
    75 H36     12.8468  -2.0591  15.1383   H         2 RES2   0.0000
    76 C24B    14.6927   0.2415  16.2551   C.ar      2 RES2   0.0000
    77 H34B    15.3086   0.4144  16.9308   H         2 RES2   0.0000
    78 C25B    14.1981  -0.9822  16.1096   C.ar      2 RES2   0.0000
    79 H35B    14.5168  -1.6773  16.6381   H         2 RES2   0.0000
    80 C26B    14.3094   1.2172  15.4431   C.ar      2 RES2   0.0000
    81 H36B    14.7030   2.0591  15.5029   H         2 RES2   0.0000
    82 C27     10.8957   3.4786   5.7988   C.ar      3 RES3   0.0000
    83 H37     10.8326   4.1704   5.1829   H         3 RES3   0.0000
    84 C28     11.8883   2.5143   5.6640   C.ar      3 RES3   0.0000
    85 H38     12.4898   2.5632   4.9562   H         3 RES3   0.0000
    86 C29     11.9830   1.4782   6.5848   C.ar      3 RES3   0.0000
    87 H39     12.6462   0.8337   6.4944   H         3 RES3   0.0000
    88 C30     11.0837   1.4064   7.6434   C.ar      3 RES3   0.0000
    89 H40     11.1467   0.7130   8.2609   H         3 RES3   0.0000
    90 C31     10.0910   2.3691   7.7798   C.ar      3 RES3   0.0000
    91 H41      9.4895   2.3201   8.4876   H         3 RES3   0.0000
    92 C32      9.9963   3.4051   6.8575   C.ar      3 RES3   0.0000
    93 H42      9.3318   4.0496   6.9479   H         3 RES3   0.0000
@<TRIPOS>BOND
     1     1     2    1
     2     2     3    3
     3     4     1    1
     4     5     4    3
     5     6     1    1
     6     7     1    1
     7     8     1    1
     8     9     1    1
     9    10     7    2
    10    11     6    1
    11    12    10   am
    12    13    12    1
    13    14    13    1
    14    15    11    1
    15    16    15    1
    16    17    12    1
    17    18    17    1
    18    19    18    1
    19    20    18    1
    20    21    18    1
    21    22    17    1
    22    23    22    1
    23    24    22    1
    24    25    22    1
    25    26    17    1
    26    27    26    1
    27    28    26    1
    28    29    26    1
    29    30     8    2
    30    31     6    1
    31    32    31    1
    32    33    32    1
    33    34    30   am
    34    35    32    2
    35    36    35    1
    36    37    34    1
    37    38    37    1
    38    39    38    1
    39    40    38    1
    40    41    38    1
    41    42    37    1
    42    43    42    1
    43    44    42    1
    44    45    42    1
    45    46    37    1
    46    47    46    1
    47    48    46    1
    48    49    46    1
    49    50     9    2
    50    51     6    1
    51    52    51    1
    52    53    52    1
    53    54    50   am
    54    55    52    2
    55    56    55    1
    56    57    54    1
    57    58    57    1
    58    59    58    1
    59    60    58    1
    60    61    58    1
    61    62    57    1
    62    63    62    1
    63    64    62    1
    64    65    62    1
    65    66    57    1
    66    67    66    1
    67    68    66    1
    68    69    66    1
    69    10    11   am
    70    13    15    2
    71    30    31   am
    72    34    35    1
    73    50    51   am
    74    54    55    1
    75    70    71    1
    76    72    70   ar
    77    73    72    1
    78    74    70   ar
    79    75    74    1
    80    76    77    1
    81    78    74   ar
    82    79    78    1
    83    80    72   ar
    84    81    80    1
    85    76    78   ar
    86    76    80   ar
    87    82    83    1
    88    84    82   ar
    89    85    84    1
    90    86    84   ar
    91    87    86    1
    92    88    86   ar
    93    89    88    1
    94    90    88   ar
    95    91    90    1
    96    92    82   ar
    97    93    92    1
    98    90    92   ar
@<TRIPOS>SUBSTRUCTURE
     1 RES1        1 GROUP             0 ****  ****    0  
     2 RES2       70 GROUP             0 ****  ****    0  
     3 RES3       82 GROUP             0 ****  ****    0  
@<TRIPOS>CRYSIN
   14.0990   16.3160   15.3240   90.0000   91.2120   90.0000   231     1
