@<TRIPOS>MOLECULE
HEWRIO
    87    96     3     0     0
SMALL
NO_CHARGES
****
Generated from the CSD

@<TRIPOS>ATOM
     1 Br1     25.7714   2.3037   1.9944   Br        1 RES1   0.0000
     2 Br2     15.9425  10.9518   1.7641   Br        1 RES1   0.0000
     3 Fe1     20.5409   6.5081   7.0766   Fe        1 RES1   0.0000
     4 O1      27.0203   4.4505   0.3661   O.3       1 RES1   0.0000
     5 O2      13.8064   9.0924   0.8994   O.3       1 RES1   0.0000
     6 N1      21.7397   5.8825   8.4998   N.2       1 RES1   0.0000
     7 N2      21.5449   4.5823   8.8447   N.pl3     1 RES1   0.0000
     8 N3      20.1103   4.6419   7.1183   N.ar      1 RES1   0.0000
     9 N4      19.1474   6.4502   5.7027   N.2       1 RES1   0.0000
    10 N5      18.4753   7.3208   4.8864   N.2       1 RES1   0.0000
    11 N6      17.6222   5.2514   4.5660   N.2       1 RES1   0.0000
    12 N7      19.2846   7.0952   8.4679   N.2       1 RES1   0.0000
    13 N8      19.4629   8.4106   8.8308   N.pl3     1 RES1   0.0000
    14 N9      20.9552   8.3701   7.1662   N.ar      1 RES1   0.0000
    15 N10     21.9866   6.5997   5.7219   N.2       1 RES1   0.0000
    16 N11     22.6367   5.7507   4.8757   N.2       1 RES1   0.0000
    17 N12     23.4844   7.8530   4.6331   N.2       1 RES1   0.0000
    18 C1      22.5819   6.3615   9.4066   C.2       1 RES1   0.0000
    19 H1      22.9337   7.2446   9.4129   H         1 RES1   0.0000
    20 C2      22.8836   5.3540  10.3709   C.2       1 RES1   0.0000
    21 H2      23.4323   5.4446  11.1411   H         1 RES1   0.0000
    22 C3      22.2280   4.2465   9.9644   C.2       1 RES1   0.0000
    23 H3      22.2424   3.3948  10.3842   H         1 RES1   0.0000
    24 C4      20.6671   3.8397   8.0134   C.ar      1 RES1   0.0000
    25 C5      20.4202   2.4964   8.0932   C.ar      1 RES1   0.0000
    26 H4      20.8599   1.9433   8.7270   H         1 RES1   0.0000
    27 C6      19.4876   1.9819   7.1960   C.ar      1 RES1   0.0000
    28 H5      19.3005   1.0506   7.1920   H         1 RES1   0.0000
    29 C7      18.8319   2.8120   6.3158   C.ar      1 RES1   0.0000
    30 H6      18.1682   2.4631   5.7319   H         1 RES1   0.0000
    31 C8      19.1447   4.1540   6.2871   C.ar      1 RES1   0.0000
    32 C9      18.6262   5.2311   5.4856   C.2       1 RES1   0.0000
    33 C10     17.5756   6.5655   4.2414   C.2       1 RES1   0.0000
    34 C11     16.6264   7.1700   3.3175   C.ar      1 RES1   0.0000
    35 C12     15.6032   6.4464   2.7279   C.ar      1 RES1   0.0000
    36 H7      15.5453   5.5126   2.8921   H         1 RES1   0.0000
    37 C13     14.6458   7.0572   1.8892   C.ar      1 RES1   0.0000
    38 H8      13.9535   6.5312   1.5049   H         1 RES1   0.0000
    39 C14     14.7034   8.4043   1.6231   C.ar      1 RES1   0.0000
    40 C15     15.7376   9.1279   2.1681   C.ar      1 RES1   0.0000
    41 C16     16.6785   8.5259   3.0057   C.ar      1 RES1   0.0000
    42 H9      17.3760   9.0567   3.3734   H         1 RES1   0.0000
    43 C17     12.6104   8.3764   0.4651   C.3       1 RES1   0.0000
    44 H10     11.9866   9.0059   0.0453   H         1 RES1   0.0000
    45 H11     12.1789   7.9599   1.2411   H         1 RES1   0.0000
    46 H12     12.8587   7.6833  -0.1810   H         1 RES1   0.0000
    47 C18     18.3766   6.6124   9.3172   C.2       1 RES1   0.0000
    48 H13     18.0220   5.7320   9.2907   H         1 RES1   0.0000
    49 C19     18.0172   7.6123  10.2719   C.2       1 RES1   0.0000
    50 H14     17.4076   7.5247  10.9948   H         1 RES1   0.0000
    51 C20     18.7332   8.7160   9.9271   C.2       1 RES1   0.0000
    52 H15     18.7204   9.5538  10.3755   H         1 RES1   0.0000
    53 C21     20.3709   9.1583   8.0634   C.ar      1 RES1   0.0000
    54 C22     20.6013  10.5079   8.1635   C.ar      1 RES1   0.0000
    55 H16     20.1409  11.0464   8.7956   H         1 RES1   0.0000
    56 C23     21.5477  11.0490   7.2886   C.ar      1 RES1   0.0000
    57 H17     21.7332  11.9810   7.3086   H         1 RES1   0.0000
    58 C24     22.2143  10.2316   6.3956   C.ar      1 RES1   0.0000
    59 H18     22.8673  10.5979   5.8111   H         1 RES1   0.0000
    60 C25     21.9262   8.8795   6.3552   C.ar      1 RES1   0.0000
    61 C26     22.4968   7.8150   5.5420   C.2       1 RES1   0.0000
    62 C27     23.5145   6.5490   4.2499   C.2       1 RES1   0.0000
    63 C28     24.4362   6.0269   3.2292   C.ar      1 RES1   0.0000
    64 C29     25.0754   6.8861   2.3341   C.ar      1 RES1   0.0000
    65 H19     24.9114   7.8203   2.3743   H         1 RES1   0.0000
    66 C30     25.9615   6.3742   1.3783   C.ar      1 RES1   0.0000
    67 H20     26.4140   6.9706   0.7931   H         1 RES1   0.0000
    68 C31     26.1809   5.0296   1.2730   C.ar      1 RES1   0.0000
    69 C32     25.5363   4.1654   2.1532   C.ar      1 RES1   0.0000
    70 C33     24.6694   4.6583   3.1164   C.ar      1 RES1   0.0000
    71 H21     24.2321   4.0569   3.7065   H         1 RES1   0.0000
    72 C34     27.6759   5.2843  -0.5918   C.3       1 RES1   0.0000
    73 H22     28.1555   4.7252  -1.2387   H         1 RES1   0.0000
    74 H23     28.3137   5.8709  -0.1326   H         1 RES1   0.0000
    75 H24     27.0111   5.8297  -1.0613   H         1 RES1   0.0000
    76 O3      24.5405  10.3051   3.7263   O.3       2 RES2   0.0000
    77 H25     24.4080   9.4981   3.9202   H         2 RES2   0.0000
    78 C35     25.6624  10.7651   4.4000   C.3       2 RES2   0.0000
    79 H26     26.4626  10.3421   4.0267   H         2 RES2   0.0000
    80 H27     25.5862  10.5411   5.3508   H         2 RES2   0.0000
    81 H28     25.7274  11.7375   4.2974   H         2 RES2   0.0000
    82 O4      16.9337   2.6510   3.6092   O.3       3 RES3   0.0000
    83 H29     17.0120   3.4816   3.7094   H         3 RES3   0.0000
    84 C36     15.8995   2.3887   2.7268   C.3       3 RES3   0.0000
    85 H30     15.9633   1.4611   2.4163   H         3 RES3   0.0000
    86 H31     15.9640   2.9948   1.9593   H         3 RES3   0.0000
    87 H32     15.0412   2.5237   3.1790   H         3 RES3   0.0000
@<TRIPOS>BOND
     1     1    69    1
     2     2    40    1
     3     3     6    1
     4     4    68    1
     5     5    39    1
     6     6     7    1
     7     7    22    1
     8     8     3    1
     9     9     3    1
    10    10     9    1
    11    11    32    2
    12    12     3    1
    13    13    12    1
    14    14     3    1
    15    15     3    1
    16    16    15    1
    17    17    61    2
    18    18     6    2
    19    19    18    1
    20    20    18    1
    21    21    20    1
    22    22    20    2
    23    23    22    1
    24    24     7    1
    25    25    24   ar
    26    26    25    1
    27    27    25   ar
    28    28    27    1
    29    29    27   ar
    30    30    29    1
    31    31     8   ar
    32    32     9    1
    33    33    10    2
    34    34    33    1
    35    35    34   ar
    36    36    35    1
    37    37    35   ar
    38    38    37    1
    39    39    37   ar
    40    40    39   ar
    41    41    34   ar
    42    42    41    1
    43    43     5    1
    44    44    43    1
    45    45    43    1
    46    46    43    1
    47    47    12    2
    48    48    47    1
    49    49    47    1
    50    50    49    1
    51    51    13    1
    52    52    51    1
    53    53    13    1
    54    54    53   ar
    55    55    54    1
    56    56    54   ar
    57    57    56    1
    58    58    56   ar
    59    59    58    1
    60    60    14   ar
    61    61    15    1
    62    62    16    2
    63    63    62    1
    64    64    63   ar
    65    65    64    1
    66    66    64   ar
    67    67    66    1
    68    68    66   ar
    69    69    68   ar
    70    70    63   ar
    71    71    70    1
    72    72     4    1
    73    73    72    1
    74    74    72    1
    75    75    72    1
    76     8    24   ar
    77    11    33    1
    78    14    53   ar
    79    17    62    1
    80    29    31   ar
    81    31    32    1
    82    40    41   ar
    83    49    51    2
    84    58    60   ar
    85    60    61    1
    86    69    70   ar
    87    76    77    1
    88    78    76    1
    89    79    78    1
    90    80    78    1
    91    81    78    1
    92    82    83    1
    93    84    82    1
    94    85    84    1
    95    86    84    1
    96    87    84    1
@<TRIPOS>SUBSTRUCTURE
     1 RES1        1 GROUP             0 ****  ****    0  
     2 RES2       76 GROUP             0 ****  ****    0  
     3 RES3       82 GROUP             0 ****  ****    0  
@<TRIPOS>CRYSIN
   27.4318   12.6723   10.6434   90.0000   90.0000   90.0000    33     1
