@<TRIPOS>MOLECULE
HEXCIZ
    78    83     2     0     0
SMALL
USER_CHARGES
****
Generated from the CSD

@<TRIPOS>ATOM
     1 C1       5.5365   9.0527  17.1827   C.3       1 RES1   0.0000
     2 H1       5.7354   8.0954  17.3376   H         1 RES1   0.0000
     3 H2       5.6366   9.2254  16.2132   H         1 RES1   0.0000
     4 C2       6.5635   9.8866  17.9290   C.3       1 RES1   0.0000
     5 H3       7.4287   9.4053  17.9375   H         1 RES1   0.0000
     6 H4       6.6957  10.7431  17.4528   H         1 RES1   0.0000
     7 C3       6.5210  11.5590  19.6930   C.3       1 RES1   0.0000
     8 H5       7.4833  11.7044  19.5131   H         1 RES1   0.0000
     9 H6       6.3689  11.6890  20.6633   H         1 RES1   0.0000
    10 C4       5.6997  12.5836  18.9117   C.3       1 RES1   0.0000
    11 H7       5.8581  13.4879  19.2843   H         1 RES1   0.0000
    12 H8       5.9891  12.5868  17.9653   H         1 RES1   0.0000
    13 C5       3.5513  12.5316  17.6992   C.3       1 RES1   0.0000
    14 H9       3.7357  13.4697  17.4426   H         1 RES1   0.0000
    15 H10      2.5752  12.4510  17.8429   H         1 RES1   0.0000
    16 C6       3.9381  11.6236  16.5130   C.3       1 RES1   0.0000
    17 H11      3.6122  12.0429  15.6767   H         1 RES1   0.0000
    18 H12      4.9261  11.5815  16.4585   H         1 RES1   0.0000
    19 C7       3.3923  10.1924  16.5852   C.3       1 RES1   0.0000
    20 H13      2.4300  10.2317  16.8148   H         1 RES1   0.0000
    21 H14      3.4697   9.7776  15.6898   H         1 RES1   0.0000
    22 C8       3.3472   8.0139  17.6226   C.3       1 RES1   0.0000
    23 H15      3.4540   7.5509  16.7535   H         1 RES1   0.0000
    24 H16      2.3826   8.1900  17.7559   H         1 RES1   0.0000
    25 C9       3.8404   7.1138  18.7235   C.3       1 RES1   0.0000
    26 H17      4.7323   6.7562  18.4846   H         1 RES1   0.0000
    27 H18      3.2204   6.3501  18.8302   H         1 RES1   0.0000
    28 C10      5.1454   7.4307  20.7720   C.3       1 RES1   0.0000
    29 H19      5.1096   6.4450  20.8506   H         1 RES1   0.0000
    30 H20      5.0938   7.8008  21.6897   H         1 RES1   0.0000
    31 C11      6.5049   7.8121  20.1833   C.3       1 RES1   0.0000
    32 H21      7.2016   7.2855  20.6503   H         1 RES1   0.0000
    33 H22      6.5164   7.5385  19.2322   H         1 RES1   0.0000
    34 C12      6.8790   9.2434  20.2577   C.3       1 RES1   0.0000
    35 H23      7.8496   9.3207  20.0803   H         1 RES1   0.0000
    36 H24      6.7216   9.5580  21.1838   H         1 RES1   0.0000
    37 C13      3.5751  13.0533  20.1001   C.3       1 RES1   0.0000
    38 H25      4.1556  13.0082  20.9007   H         1 RES1   0.0000
    39 H26      2.7196  12.6110  20.3306   H         1 RES1   0.0000
    40 C14      3.2835  14.5366  19.8003   C.ar      1 RES1   0.0000
    41 C15      4.1923  15.5202  20.1942   C.ar      1 RES1   0.0000
    42 H27      5.0194  15.2725  20.5925   H         1 RES1   0.0000
    43 C16      3.8829  16.8711  20.0038   C.ar      1 RES1   0.0000
    44 H28      4.4907  17.5403  20.2952   H         1 RES1   0.0000
    45 C17      2.6866  17.2400  19.3888   C.ar      1 RES1   0.0000
    46 H29      2.4985  18.1601  19.2431   H         1 RES1   0.0000
    47 C18      1.7625  16.2769  18.9839   C.ar      1 RES1   0.0000
    48 H30      0.9432  16.5205  18.5701   H         1 RES1   0.0000
    49 C19      2.0957  14.9181  19.2137   C.ar      1 RES1   0.0000
    50 H31      1.4770  14.2457  18.9551   H         1 RES1   0.0000
    51 C20      2.6934   7.6198  20.8617   C.3       1 RES1   0.0000
    52 H32      2.6009   8.3676  21.5039   H         1 RES1   0.0000
    53 H33      1.9085   7.6545  20.2592   H         1 RES1   0.0000
    54 C21      2.6212   6.3509  21.6299   C.ar      1 RES1   0.0000
    55 C22      2.0379   5.2160  21.1134   C.ar      1 RES1   0.0000
    56 H34      1.7021   5.2105  20.2238   H         1 RES1   0.0000
    57 C23      1.9461   4.0653  21.9145   C.ar      1 RES1   0.0000
    58 H35      1.5069   3.2926  21.5776   H         1 RES1   0.0000
    59 C24      2.4749   4.0416  23.1641   C.ar      1 RES1   0.0000
    60 H36      2.4695   3.2366  23.6670   H         1 RES1   0.0000
    61 C25      3.0208   5.1892  23.7025   C.ar      1 RES1   0.0000
    62 H37      3.3307   5.1948  24.6010   H         1 RES1   0.0000
    63 C26      3.1126   6.3147  22.9343   C.ar      1 RES1   0.0000
    64 H38      3.5210   7.0908  23.2990   H         1 RES1   0.0000
    65 N1       4.0844   9.3191  17.5766   N.3       1 RES1   0.0000
    66 N2       6.1520  10.1640  19.3166   N.3       1 RES1   0.0000
    67 N3       4.2357  12.2589  18.9883   N.3       1 RES1   0.0000
    68 N4       3.9322   7.8815  20.0235   N.3       1 RES1   0.0000
    69 Fe1      3.9806  10.0995  19.6169   Fe        1 RES1   1.0000
    70 Cl1      4.2289  10.4452  21.8551   Cl        1 RES1   0.0000
    71 Cl2      1.7276  10.3375  19.4575   Cl        1 RES1   0.0000
    72 P1       0.1156   5.6936  17.0146   P.3       2 RES2  -1.0000
    73 F1       1.6536   5.4824  16.9485   F         2 RES2   0.0000
    74 F2       0.3426   6.4628  18.3624   F         2 RES2   0.0000
    75 F3      -1.4071   5.9442  17.0820   F         2 RES2   0.0000
    76 F4      -0.0723   4.9685  15.6288   F         2 RES2   0.0000
    77 F5       0.0000   4.3774  17.6992   F         2 RES2   0.0000
    78 F6       0.2806   7.0350  16.3335   F         2 RES2   0.0000
@<TRIPOS>BOND
     1     1     2    1
     2     3     1    1
     3     4     1    1
     4     5     4    1
     5     6     4    1
     6     7     8    1
     7     9     7    1
     8    10     7    1
     9    11    10    1
    10    12    10    1
    11    13    14    1
    12    15    13    1
    13    16    13    1
    14    17    16    1
    15    18    16    1
    16    19    16    1
    17    20    19    1
    18    21    19    1
    19    22    23    1
    20    24    22    1
    21    25    22    1
    22    26    25    1
    23    27    25    1
    24    28    29    1
    25    30    28    1
    26    31    28    1
    27    32    31    1
    28    33    31    1
    29    34    31    1
    30    35    34    1
    31    36    34    1
    32    37    38    1
    33    39    37    1
    34    40    37    1
    35    41    40   ar
    36    42    41    1
    37    43    41   ar
    38    44    43    1
    39    45    43   ar
    40    46    45    1
    41    47    45   ar
    42    48    47    1
    43    49    40   ar
    44    50    49    1
    45    51    52    1
    46    53    51    1
    47    54    51    1
    48    55    54   ar
    49    56    55    1
    50    57    55   ar
    51    58    57    1
    52    59    57   ar
    53    60    59    1
    54    61    59   ar
    55    62    61    1
    56    63    54   ar
    57    64    63    1
    58    65     1    1
    59    66     4    1
    60    67    10    1
    61    68    25    1
    62    69    65    1
    63    70    69    1
    64    71    69    1
    65     7    66    1
    66    13    67    1
    67    19    65    1
    68    22    65    1
    69    28    68    1
    70    34    66    1
    71    37    67    1
    72    47    49   ar
    73    51    68    1
    74    61    63   ar
    75    66    69    1
    76    67    69    1
    77    68    69    1
    78    72    73    1
    79    74    72    1
    80    75    72    1
    81    76    72    1
    82    77    72    1
    83    78    72    1
@<TRIPOS>SUBSTRUCTURE
     1 RES1        1 GROUP             0 ****  ****    0  
     2 RES2       72 GROUP             0 ****  ****    0  
@<TRIPOS>CRYSIN
    8.5020   15.7630   21.8860   90.0000   90.0000   90.0000    19     1
