@<TRIPOS>MOLECULE
HEYMUX
    87    93     3     0     0
SMALL
USER_CHARGES
****
Generated from the CSD

@<TRIPOS>ATOM
     1 Fe1     -4.3029  -6.6423 -10.7869   Fe        1 RES1   1.0000
     2 Cl1     -4.1281  -4.4129 -11.4099   Cl        1 RES1   0.0000
     3 O1      -4.3026 -10.3907  -6.3594   O.2       1 RES1   0.0000
     4 O2      -4.6559  -8.2588  -5.7911   O.3       1 RES1   0.0000
     5 O3       0.5115  -9.1971 -10.1281   O.2       1 RES1   0.0000
     6 O4      -0.7361 -11.0539  -9.9160   O.3       1 RES1   0.0000
     7 O5      -1.4071  -9.3829  -7.2249   O.3       1 RES1   0.0000
     8 N1      -5.8504  -6.8639  -9.2657   N.ar      1 RES1   0.0000
     9 N2      -2.8306  -7.4220 -12.1975   N.ar      1 RES1   0.0000
    10 N3      -4.2508  -8.8127 -10.3728   N.3       1 RES1   0.0000
    11 N4      -6.0540  -7.3529 -12.0510   N.ar      1 RES1   0.0000
    12 N5      -6.9025  -5.2882 -12.7197   N.pl3     1 RES1   0.0000
    13 N6      -2.6910  -6.6890  -9.0800   N.3       1 RES1   0.0000
    14 C1      -3.6310  -8.6814  -7.9073   C.3       1 RES1   0.0000
    15 C2      -4.7239  -8.9918  -8.9730   C.3       1 RES1   0.0000
    16 H1      -5.0086  -9.9437  -8.8595   H         1 RES1   0.0000
    17 C3      -2.8756  -9.3142 -10.6812   C.3       1 RES1   0.0000
    18 H2      -2.9200 -10.3074 -10.7888   H         1 RES1   0.0000
    19 C4      -1.8395  -8.9888  -9.5699   C.3       1 RES1   0.0000
    20 C5      -1.4980  -7.4991  -9.4353   C.3       1 RES1   0.0000
    21 H3      -0.8060  -7.3846  -8.7370   H         1 RES1   0.0000
    22 H4      -1.1243  -7.1713 -10.2915   H         1 RES1   0.0000
    23 C6      -3.2393  -7.2021  -7.8023   C.3       1 RES1   0.0000
    24 H5      -4.0352  -6.6701  -7.5510   H         1 RES1   0.0000
    25 H6      -2.5616  -7.0932  -7.0888   H         1 RES1   0.0000
    26 C7      -2.3917  -9.5250  -8.2429   C.3       1 RES1   0.0000
    27 H7      -2.6470 -10.4868  -8.3412   H         1 RES1   0.0000
    28 C8      -4.2126  -9.2169  -6.5957   C.2       1 RES1   0.0000
    29 C9      -5.3541  -8.7249  -4.6054   C.3       1 RES1   0.0000
    30 H8      -6.1797  -9.1806  -4.8709   H         1 RES1   0.0000
    31 H9      -5.5717  -7.9601  -4.0332   H         1 RES1   0.0000
    32 H10     -4.7801  -9.3487  -4.1133   H         1 RES1   0.0000
    33 C10     -0.5397  -9.7268  -9.9063   C.2       1 RES1   0.0000
    34 C11      0.4279 -11.8588 -10.2290   C.3       1 RES1   0.0000
    35 H11      0.6804 -11.7169 -11.1653   H         1 RES1   0.0000
    36 H12      0.2176 -12.8054 -10.0874   H         1 RES1   0.0000
    37 H13      1.1713 -11.5983  -9.6467   H         1 RES1   0.0000
    38 C12     -5.9367  -8.1065  -8.7589   C.ar      1 RES1   0.0000
    39 C13     -7.0230  -8.5263  -8.0025   C.ar      1 RES1   0.0000
    40 H14     -7.0715  -9.4164  -7.6737   H         1 RES1   0.0000
    41 C14     -8.0406  -7.6132  -7.7362   C.ar      1 RES1   0.0000
    42 H15     -8.7890  -7.8673  -7.2093   H         1 RES1   0.0000
    43 C15     -7.9470  -6.3337  -8.2469   C.ar      1 RES1   0.0000
    44 H16     -8.6232  -5.6913  -8.0678   H         1 RES1   0.0000
    45 C16     -6.8467  -6.0018  -9.0270   C.ar      1 RES1   0.0000
    46 H17     -6.7995  -5.1317  -9.4058   H         1 RES1   0.0000
    47 C17     -2.4663  -8.7076 -12.0113   C.ar      1 RES1   0.0000
    48 C18     -1.7430  -9.4185 -12.9567   C.ar      1 RES1   0.0000
    49 H18     -1.5115 -10.3275 -12.8072   H         1 RES1   0.0000
    50 C19     -1.3655  -8.7719 -14.1284   C.ar      1 RES1   0.0000
    51 H19     -0.8922  -9.2432 -14.8048   H         1 RES1   0.0000
    52 C20     -1.6834  -7.4400 -14.3018   C.ar      1 RES1   0.0000
    53 H20     -1.4006  -6.9709 -15.0782   H         1 RES1   0.0000
    54 C21     -2.4236  -6.8003 -13.3181   C.ar      1 RES1   0.0000
    55 H21     -2.6513  -5.8864 -13.4411   H         1 RES1   0.0000
    56 C22     -5.1806  -9.5283 -11.3067   C.3       1 RES1   0.0000
    57 H22     -5.6361 -10.2461 -10.7990   H         1 RES1   0.0000
    58 H23     -4.6374  -9.9637 -12.0103   H         1 RES1   0.0000
    59 C23     -6.2302  -8.6917 -11.9766   C.ar      1 RES1   0.0000
    60 C24     -7.2789  -9.3618 -12.5703   C.ar      1 RES1   0.0000
    61 H24     -7.3720 -10.3028 -12.4788   H         1 RES1   0.0000
    62 C25     -8.1932  -8.6218 -13.3055   C.ar      1 RES1   0.0000
    63 H25     -8.9057  -9.0609 -13.7557   H         1 RES1   0.0000
    64 C26     -8.0731  -7.2650 -13.3849   C.ar      1 RES1   0.0000
    65 H26     -8.7013  -6.7513 -13.8784   H         1 RES1   0.0000
    66 C27     -6.9974  -6.6389 -12.7189   C.ar      1 RES1   0.0000
    67 C28     -2.2361  -5.3004  -8.8453   C.3       1 RES1   0.0000
    68 H27     -1.8228  -4.9498  -9.6622   H         1 RES1   0.0000
    69 H28     -1.5806  -5.2899  -8.1173   H         1 RES1   0.0000
    70 H29     -3.0038  -4.7419  -8.6024   H         1 RES1   0.0000
    71 H30     -7.3981  -4.7988 -13.2940   H         1 RES1   0.0000
    72 H31     -6.2232  -4.9461 -12.4377   H         1 RES1   0.0000
    73 H32     -1.2697 -10.1182  -6.8611   H         1 RES1   0.0000
    74 S1     -10.0316 -12.2773  -4.9529   S.o2      2 RES2   0.0000
    75 O6     -10.9705 -11.8521  -5.9745   O.3       2 RES2  -1.0000
    76 O7      -9.8193 -13.6966  -4.8876   O.2       2 RES2   0.0000
    77 O8     -10.1816 -11.6111  -3.6872   O.2       2 RES2   0.0000
    78 C29     -8.4472 -11.6269  -5.5923   C.3       2 RES2   0.0000
    79 F1      -8.4828 -10.2983  -5.6884   F         2 RES2   0.0000
    80 F2      -8.1863 -12.1093  -6.8030   F         2 RES2   0.0000
    81 F3      -7.4418 -11.9411  -4.7882   F         2 RES2   0.0000
    82 N7      -4.4298 -11.8283  -3.0201   N.1       3 RES3   0.0000
    83 C30     -4.2291 -12.4349  -3.9611   C.1       3 RES3   0.0000
    84 C31     -3.9617 -13.2395  -5.1380   C.3       3 RES3   0.0000
    85 H33     -4.2952 -12.7752  -5.9336   H         3 RES3   0.0000
    86 H34     -4.4125 -14.1051  -5.0513   H         3 RES3   0.0000
    87 H35     -2.9956 -13.3815  -5.2234   H         3 RES3   0.0000
@<TRIPOS>BOND
     1     1     2    1
     2     3    28    2
     3     4    28    1
     4     5    33    2
     5     6    33    1
     6     7    26    1
     7     8     1    1
     8     9     1    1
     9    10     1    1
    10    11     1    1
    11    12    66    1
    12    13     1    1
    13    14    15    1
    14    15    10    1
    15    16    15    1
    16    17    10    1
    17    18    17    1
    18    19    17    1
    19    20    13    1
    20    21    20    1
    21    22    20    1
    22    23    13    1
    23    24    23    1
    24    25    23    1
    25    26    14    1
    26    27    26    1
    27    28    14    1
    28    29     4    1
    29    30    29    1
    30    31    29    1
    31    32    29    1
    32    33    19    1
    33    34     6    1
    34    35    34    1
    35    36    34    1
    36    37    34    1
    37    38     8   ar
    38    39    38   ar
    39    40    39    1
    40    41    39   ar
    41    42    41    1
    42    43    41   ar
    43    44    43    1
    44    45     8   ar
    45    46    45    1
    46    47     9   ar
    47    48    47   ar
    48    49    48    1
    49    50    48   ar
    50    51    50    1
    51    52    50   ar
    52    53    52    1
    53    54     9   ar
    54    55    54    1
    55    56    10    1
    56    57    56    1
    57    58    56    1
    58    59    11   ar
    59    60    59   ar
    60    61    60    1
    61    62    60   ar
    62    63    62    1
    63    64    62   ar
    64    65    64    1
    65    66    11   ar
    66    67    13    1
    67    68    67    1
    68    69    67    1
    69    70    67    1
    70    71    12    1
    71    72    12    1
    72    73     7    1
    73    14    23    1
    74    15    38    1
    75    17    47    1
    76    19    20    1
    77    19    26    1
    78    43    45   ar
    79    52    54   ar
    80    56    59    1
    81    64    66   ar
    82    74    75    1
    83    76    74    2
    84    77    74    2
    85    78    74    1
    86    79    78    1
    87    80    78    1
    88    81    78    1
    89    82    83    3
    90    83    84    1
    91    84    85    1
    92    86    84    1
    93    87    84    1
@<TRIPOS>SUBSTRUCTURE
     1 RES1        1 GROUP             0 ****  ****    0  
     2 RES2       74 GROUP             0 ****  ****    0  
     3 RES3       82 GROUP             0 ****  ****    0  
@<TRIPOS>CRYSIN
   10.1229   16.3725   10.4544   90.0000   92.6668   90.0000     4     1
