@<TRIPOS>MOLECULE
HEYMIL
   104   108     5     0     0
SMALL
USER_CHARGES
****
Generated from the CSD

@<TRIPOS>ATOM
     1 Fe1      6.7028   8.7208  10.9768   Fe        1 RES1   2.0000
     2 O1       6.4808  13.7329   9.3384   O.2       1 RES1   0.0000
     3 O2       6.3495  14.1558  11.5464   O.3       1 RES1   0.0000
     4 O3       1.7674  10.0529  12.3689   O.2       1 RES1   0.0000
     5 O4       2.8282  11.4314  13.8030   O.3       1 RES1   0.0000
     6 O5       3.5406  12.7264  10.9295   O.3       1 RES1   0.0000
     7 H1       3.3638  13.3838  11.3519   H         1 RES1   0.0000
     8 N1       8.1307   9.9157  10.3063   N.ar      1 RES1   0.0000
     9 N2       5.3944   7.7488  12.0688   N.ar      1 RES1   0.0000
    10 N3       6.5436  10.0737  12.3936   N.3       1 RES1   0.0000
    11 N4       8.1127   7.9174  12.1037   N.ar      1 RES1   0.0000
    12 N5       6.8829   7.3488   9.6579   N.1       1 RES1   0.0000
    13 N6       5.1926   9.7544   9.9179   N.3       1 RES1   0.0000
    14 C1       5.8406  11.9609  10.8672   C.3       1 RES1   0.0000
    15 C2       6.9452  11.3784  11.7850   C.3       1 RES1   0.0000
    16 H2       7.1628  12.0342  12.5087   H         1 RES1   0.0000
    17 C3       5.1365   9.9761  12.9368   C.3       1 RES1   0.0000
    18 H3       5.0882  10.4111  13.8364   H         1 RES1   0.0000
    19 C4       4.0949  10.6245  11.9775   C.3       1 RES1   0.0000
    20 C5       3.9162   9.8495  10.6814   C.3       1 RES1   0.0000
    21 H4       3.5900   8.9379  10.8883   H         1 RES1   0.0000
    22 H5       3.2334  10.2989  10.1237   H         1 RES1   0.0000
    23 C6       5.5880  11.1532   9.5943   C.3       1 RES1   0.0000
    24 H6       4.8689  11.5852   9.0684   H         1 RES1   0.0000
    25 H7       6.4088  11.1442   9.0423   H         1 RES1   0.0000
    26 C7       4.5406  12.0647  11.6838   C.3       1 RES1   0.0000
    27 H8       4.7091  12.5553  12.5393   H         1 RES1   0.0000
    28 C8       6.2636  13.3745  10.4706   C.2       1 RES1   0.0000
    29 C9       6.7268  15.5313  11.3037   C.3       1 RES1   0.0000
    30 H9       6.0863  15.9415  10.6854   H         1 RES1   0.0000
    31 H10      7.6240  15.5592  10.9099   H         1 RES1   0.0000
    32 H11      6.7260  16.0247  12.1500   H         1 RES1   0.0000
    33 C10      2.7470  10.6533  12.7127   C.2       1 RES1   0.0000
    34 C11      1.6100  11.5367  14.5798   C.3       1 RES1   0.0000
    35 H12      0.8756  11.8238  13.9974   H         1 RES1   0.0000
    36 H13      1.7350  12.1938  15.2957   H         1 RES1   0.0000
    37 H14      1.3953  10.6642  14.9702   H         1 RES1   0.0000
    38 C12      8.1793  11.0950  10.9701   C.ar      1 RES1   0.0000
    39 C13      9.2311  11.9887  10.8291   C.ar      1 RES1   0.0000
    40 H15      9.2466  12.8023  11.3198   H         1 RES1   0.0000
    41 C14     10.2586  11.6659   9.9544   C.ar      1 RES1   0.0000
    42 H16     10.9938  12.2561   9.8374   H         1 RES1   0.0000
    43 C15     10.1994  10.4800   9.2624   C.ar      1 RES1   0.0000
    44 H17     10.8820  10.2536   8.6406   H         1 RES1   0.0000
    45 C16      9.1401   9.6212   9.4748   C.ar      1 RES1   0.0000
    46 H18      9.1259   8.7899   9.0162   H         1 RES1   0.0000
    47 C17      4.8567   8.5030  13.0646   C.ar      1 RES1   0.0000
    48 C18      4.0754   7.9455  14.0637   C.ar      1 RES1   0.0000
    49 H19      3.7065   8.4898  14.7491   H         1 RES1   0.0000
    50 C19      3.8389   6.5732  14.0438   C.ar      1 RES1   0.0000
    51 H20      3.3205   6.1643  14.7270   H         1 RES1   0.0000
    52 C20      4.3649   5.8188  13.0231   C.ar      1 RES1   0.0000
    53 H21      4.1988   4.8842  12.9833   H         1 RES1   0.0000
    54 C21      5.1366   6.4320  12.0572   C.ar      1 RES1   0.0000
    55 H22      5.4986   5.9018  11.3570   H         1 RES1   0.0000
    56 C22      7.4946   9.7574  13.5293   C.3       1 RES1   0.0000
    57 H23      8.0458  10.5568  13.7227   H         1 RES1   0.0000
    58 H24      6.9700   9.5470  14.3423   H         1 RES1   0.0000
    59 C23      8.3933   8.6076  13.2173   C.ar      1 RES1   0.0000
    60 C24      9.4523   8.2786  14.0487   C.ar      1 RES1   0.0000
    61 H25      9.6279   8.7910  14.8300   H         1 RES1   0.0000
    62 C25     10.2465   7.1983  13.7301   C.ar      1 RES1   0.0000
    63 H26     10.9878   6.9656  14.2761   H         1 RES1   0.0000
    64 C26      9.9465   6.4609  12.6049   C.ar      1 RES1   0.0000
    65 H27     10.4684   5.7019  12.3717   H         1 RES1   0.0000
    66 C27      8.8790   6.8429  11.8232   C.ar      1 RES1   0.0000
    67 H28      8.6733   6.3268  11.0531   H         1 RES1   0.0000
    68 C28      4.8595   9.0829   8.6384   C.3       1 RES1   0.0000
    69 H29      5.6585   9.0453   8.0718   H         1 RES1   0.0000
    70 H30      4.1564   9.5867   8.1781   H         1 RES1   0.0000
    71 H31      4.5446   8.1728   8.8193   H         1 RES1   0.0000
    72 C29      6.9800   6.4411   8.9736   C.1       1 RES1   0.0000
    73 C30      7.0937   5.2537   8.1372   C.3       1 RES1   0.0000
    74 H32      7.0948   5.5182   7.1931   H         1 RES1   0.0000
    75 H33      6.3333   4.6594   8.3082   H         1 RES1   0.0000
    76 H34      7.9282   4.7852   8.3459   H         1 RES1   0.0000
    77 S1       2.5778   5.0826   9.2406   S.o2      2 RES2   0.0000
    78 F1       1.6649   7.4085  10.0670   F         2 RES2   0.0000
    79 F2       1.8587   7.2615   7.9279   F         2 RES2   0.0000
    80 F3       0.2361   6.2467   8.9298   F         2 RES2   0.0000
    81 O6       3.9133   5.6139   9.1625   O.2       2 RES2   0.0000
    82 O7       2.1895   4.2602   8.1157   O.3       2 RES2  -1.0000
    83 O8       2.1668   4.5820  10.5269   O.2       2 RES2   0.0000
    84 C31      1.5460   6.5630   9.0334   C.3       2 RES2   0.0000
    85 N7       5.7965   2.0660   8.0575   N.1       3 RES3   0.0000
    86 C32      4.9777   1.8664   8.8093   C.1       3 RES3   0.0000
    87 C33      3.9342   1.6203   9.8018   C.3       3 RES3   0.0000
    88 H35      3.1335   2.1344   9.5695   H         3 RES3   0.0000
    89 H36      4.2533   1.8933  10.6871   H         3 RES3   0.0000
    90 H37      3.7154   0.6640   9.8151   H         3 RES3   0.0000
    91 S2       1.6879  15.4074  12.5167   S.o2      4 RES4   0.0000
    92 F4       1.8395  17.1270  10.5277   F         4 RES4   0.0000
    93 F5       1.3680  15.1099   9.9383   F         4 RES4   0.0000
    94 F6      -0.1196  16.3505  10.8540   F         4 RES4   0.0000
    95 O9       1.4857  16.5130  13.4119   O.2       4 RES4   0.0000
    96 O10      3.0793  15.0903  12.2729   O.3       4 RES4  -1.0000
    97 O11      0.8405  14.2732  12.7061   O.2       4 RES4   0.0000
    98 C34      1.1715  16.0450  10.8955   C.3       4 RES4   0.0000
    99 N8      -1.9098  12.7730  14.8304   N.1       5 RES5   0.0000
   100 C35     -1.3643  13.7148  15.1756   C.1       5 RES5   0.0000
   101 C36     -0.6902  14.9170  15.6221   C.3       5 RES5   0.0000
   102 H38     -0.2130  15.3232  14.8689   H         5 RES5   0.0000
   103 H39     -0.0505  14.6887  16.3290   H         5 RES5   0.0000
   104 H40     -1.3499  15.5516  15.9717   H         5 RES5   0.0000
@<TRIPOS>BOND
     1     1     8    1
     2     2    28    2
     3     3    28    1
     4     4    33    2
     5     5    33    1
     6     6     7    1
     7     8    38   ar
     8     9     1    1
     9    10     1    1
    10    11     1    1
    11    12     1    1
    12    13     1    1
    13    14    15    1
    14    15    10    1
    15    16    15    1
    16    17    10    1
    17    18    17    1
    18    19    17    1
    19    20    13    1
    20    21    20    1
    21    22    20    1
    22    23    13    1
    23    24    23    1
    24    25    23    1
    25    26     6    1
    26    27    26    1
    27    28    14    1
    28    29     3    1
    29    30    29    1
    30    31    29    1
    31    32    29    1
    32    33    19    1
    33    34     5    1
    34    35    34    1
    35    36    34    1
    36    37    34    1
    37    38    15    1
    38    39    38   ar
    39    40    39    1
    40    41    39   ar
    41    42    41    1
    42    43    41   ar
    43    44    43    1
    44    45     8   ar
    45    46    45    1
    46    47     9   ar
    47    48    47   ar
    48    49    48    1
    49    50    48   ar
    50    51    50    1
    51    52    50   ar
    52    53    52    1
    53    54     9   ar
    54    55    54    1
    55    56    10    1
    56    57    56    1
    57    58    56    1
    58    59    11   ar
    59    60    59   ar
    60    61    60    1
    61    62    60   ar
    62    63    62    1
    63    64    62   ar
    64    65    64    1
    65    66    11   ar
    66    67    66    1
    67    68    13    1
    68    69    68    1
    69    70    68    1
    70    71    68    1
    71    72    12    3
    72    73    72    1
    73    74    73    1
    74    75    73    1
    75    76    73    1
    76    14    23    1
    77    14    26    1
    78    17    47    1
    79    19    20    1
    80    19    26    1
    81    43    45   ar
    82    52    54   ar
    83    56    59    1
    84    64    66   ar
    85    77    81    2
    86    78    84    1
    87    79    84    1
    88    80    84    1
    89    82    77    1
    90    83    77    2
    91    84    77    1
    92    85    86    3
    93    86    87    1
    94    87    88    1
    95    89    87    1
    96    90    87    1
    97    91    95    2
    98    92    98    1
    99    93    98    1
   100    94    98    1
   101    96    91    1
   102    97    91    2
   103    98    91    1
   104    99   100    3
   105   100   101    1
   106   101   102    1
   107   103   101    1
   108   104   101    1
@<TRIPOS>SUBSTRUCTURE
     1 RES1        1 GROUP             0 ****  ****    0  
     2 RES2       77 GROUP             0 ****  ****    0  
     3 RES3       85 GROUP             0 ****  ****    0  
     4 RES4       91 GROUP             0 ****  ****    0  
     5 RES5       99 GROUP             0 ****  ****    0  
@<TRIPOS>CRYSIN
    9.9780   25.0820   16.6170   90.0000   92.8620   90.0000    14     1
