@<TRIPOS>MOLECULE
HEYNUU
    79    84     1     0     0
SMALL
NO_CHARGES
****
Generated from the CSD

@<TRIPOS>ATOM
     1 Fe1      2.9469   5.0071  20.5591   Fe        1 RES1   0.0000
     2 S1       4.3902   6.2836  21.8408   S.3       1 RES1   0.0000
     3 S2       3.0879   6.5761  18.9786   S.3       1 RES1   0.0000
     4 S3       2.5472   3.6434  22.2579   S.3       1 RES1   0.0000
     5 S4       1.4255   3.8317  19.2792   S.3       1 RES1   0.0000
     6 C1       4.5053   7.5917  19.3589   C.ar      1 RES1   0.0000
     7 C2       4.9902   8.5152  18.4695   C.ar      1 RES1   0.0000
     8 C3       6.0580   9.2763  18.7872   C.ar      1 RES1   0.0000
     9 C4       6.6593   9.1542  19.9952   C.ar      1 RES1   0.0000
    10 C5       6.1862   8.2180  20.9599   C.ar      1 RES1   0.0000
    11 C6       5.0439   7.4223  20.6514   C.ar      1 RES1   0.0000
    12 C7       1.5078   2.3598  21.5778   C.ar      1 RES1   0.0000
    13 C8       1.1971   1.2500  22.3910   C.ar      1 RES1   0.0000
    14 C9       0.3349   0.2621  21.9006   C.ar      1 RES1   0.0000
    15 C10     -0.1795   0.4037  20.6332   C.ar      1 RES1   0.0000
    16 C11      0.1323   1.4809  19.8286   C.ar      1 RES1   0.0000
    17 C12      0.9917   2.4928  20.2817   C.ar      1 RES1   0.0000
    18 N1       1.3955   6.1635  21.2947   N.3       1 RES1   0.0000
    19 C13      1.7663   7.7465  19.4648   C.3       1 RES1   0.0000
    20 C14      0.7310   6.9412  20.2501   C.3       1 RES1   0.0000
    21 C15      1.2745   4.6423  23.1641   C.3       1 RES1   0.0000
    22 C16      0.4788   5.4022  22.1447   C.3       1 RES1   0.0000
    23 P1       4.6435   3.7563  19.7572   P.3       1 RES1   0.0000
    24 C17      5.3384   4.2810  18.1113   C.3       1 RES1   0.0000
    25 C18      4.4151   4.0629  16.9608   C.3       1 RES1   0.0000
    26 C19      4.9391   4.6665  15.7153   C.3       1 RES1   0.0000
    27 C20      4.0736   4.4338  14.5395   C.3       1 RES1   0.0000
    28 C21      4.2997   1.9822  19.4664   C.3       1 RES1   0.0000
    29 C22      5.3901   1.0777  18.9120   C.3       1 RES1   0.0000
    30 C23      4.9831  -0.3356  18.7159   C.3       1 RES1   0.0000
    31 C24      6.0334  -1.2214  18.1113   C.3       1 RES1   0.0000
    32 C25      6.1947   3.6824  20.7481   C.3       1 RES1   0.0000
    33 C26      6.0554   2.9200  22.0609   C.3       1 RES1   0.0000
    34 C27      7.2343   3.0743  22.9802   C.3       1 RES1   0.0000
    35 C28      7.1535   2.2326  24.2522   C.3       1 RES1   0.0000
    36 H1       4.6499   8.7113  17.5021   H         1 RES1   0.0000
    37 H2       6.2878  10.1385  18.2711   H         1 RES1   0.0000
    38 H3       7.5274   9.5210  20.3339   H         1 RES1   0.0000
    39 H4       6.6024   8.1671  21.9685   H         1 RES1   0.0000
    40 H5       1.6770   1.1558  23.4144   H         1 RES1   0.0000
    41 H6       0.3414  -0.5530  22.6201   H         1 RES1   0.0000
    42 H7      -0.8879  -0.3344  20.1589   H         1 RES1   0.0000
    43 H8      -0.3977   1.6516  19.0124   H         1 RES1   0.0000
    44 H9       1.8792   6.7238  21.8926   H         1 RES1   0.0000
    45 H10      1.1675   8.0058  18.5819   H         1 RES1   0.0000
    46 H11      2.2395   8.3916  20.1774   H         1 RES1   0.0000
    47 H12      0.1464   7.6332  20.7207   H         1 RES1   0.0000
    48 H13      0.1062   6.3263  19.6294   H         1 RES1   0.0000
    49 H14      0.6622   3.9677  23.7459   H         1 RES1   0.0000
    50 H15      1.6408   5.3083  23.9439   H         1 RES1   0.0000
    51 H16     -0.0989   4.7818  21.5679   H         1 RES1   0.0000
    52 H17     -0.0994   6.0726  22.6339   H         1 RES1   0.0000
    53 H18      6.2449   3.6934  17.9718   H         1 RES1   0.0000
    54 H19      5.5268   5.2673  18.3608   H         1 RES1   0.0000
    55 H20      4.3569   2.9996  16.6963   H         1 RES1   0.0000
    56 H21      3.4504   4.2112  17.1867   H         1 RES1   0.0000
    57 H22      4.8930   5.8643  15.9480   H         1 RES1   0.0000
    58 H23      5.8988   4.2963  15.5589   H         1 RES1   0.0000
    59 H24      4.3530   4.8324  13.6899   H         1 RES1   0.0000
    60 H25      3.8609   3.4974  14.3484   H         1 RES1   0.0000
    61 H26      3.1365   4.8479  14.6785   H         1 RES1   0.0000
    62 H27      3.5267   1.9039  18.8374   H         1 RES1   0.0000
    63 H28      3.9032   1.5445  20.3086   H         1 RES1   0.0000
    64 H29      6.1928   1.3011  19.4176   H         1 RES1   0.0000
    65 H30      5.7122   1.5137  17.8658   H         1 RES1   0.0000
    66 H31      4.5747  -0.6073  19.8896   H         1 RES1   0.0000
    67 H32      4.1088  -0.3374  18.2181   H         1 RES1   0.0000
    68 H33      5.7145  -2.1261  18.0091   H         1 RES1   0.0000
    69 H34      6.2894  -0.8887  17.2371   H         1 RES1   0.0000
    70 H35      6.8286  -1.2408  18.6664   H         1 RES1   0.0000
    71 H36      6.3388   4.7290  21.0154   H         1 RES1   0.0000
    72 H37      6.9291   3.6186  20.0830   H         1 RES1   0.0000
    73 H38      5.3265   2.9160  22.4474   H         1 RES1   0.0000
    74 H39      5.6911   1.8320  21.7038   H         1 RES1   0.0000
    75 H40      7.9920   2.9336  22.4797   H         1 RES1   0.0000
    76 H41      7.4056   4.1232  23.1243   H         1 RES1   0.0000
    77 H42      7.1822   1.2600  24.0475   H         1 RES1   0.0000
    78 H43      7.7367   2.5713  24.9500   H         1 RES1   0.0000
    79 H44      6.3719   2.4628  24.5494   H         1 RES1   0.0000
@<TRIPOS>BOND
     1     1     2    1
     2     2    11    1
     3     3     1    1
     4     4     1    1
     5     5     1    1
     6     6     3    1
     7     7     6   ar
     8     8     7   ar
     9     9     8   ar
    10    10     9   ar
    11    11     6   ar
    12    12     4    1
    13    13    12   ar
    14    14    13   ar
    15    15    14   ar
    16    16    15   ar
    17    17     5    1
    18    18     1    1
    19    19     3    1
    20    20    18    1
    21    21     4    1
    22    22    18    1
    23    23     1    1
    24    24    23    1
    25    25    24    1
    26    26    25    1
    27    27    26    1
    28    28    23    1
    29    29    28    1
    30    30    29    1
    31    31    30    1
    32    32    23    1
    33    33    32    1
    34    34    33    1
    35    35    34    1
    36    36     7    1
    37    37     8    1
    38    38     9    1
    39    39    10    1
    40    40    13    1
    41    41    14    1
    42    42    15    1
    43    43    16    1
    44    44    18    1
    45    45    19    1
    46    46    19    1
    47    47    20    1
    48    48    20    1
    49    49    21    1
    50    50    21    1
    51    51    22    1
    52    52    22    1
    53    53    24    1
    54    54    24    1
    55    55    25    1
    56    56    25    1
    57    57    26    1
    58    58    26    1
    59    59    27    1
    60    60    27    1
    61    61    27    1
    62    62    28    1
    63    63    28    1
    64    64    29    1
    65    65    29    1
    66    66    30    1
    67    67    30    1
    68    68    31    1
    69    69    31    1
    70    70    31    1
    71    71    32    1
    72    72    32    1
    73    73    33    1
    74    74    33    1
    75    75    34    1
    76    76    34    1
    77    77    35    1
    78    78    35    1
    79    79    35    1
    80    10    11   ar
    81    12    17   ar
    82    16    17   ar
    83    19    20    1
    84    21    22    1
@<TRIPOS>SUBSTRUCTURE
     1 RES1        1 GROUP             0 ****  ****    0  
@<TRIPOS>CRYSIN
    9.1930   14.6680   23.1370   90.0000   95.6900   90.0000    14     1
