@<TRIPOS>MOLECULE
HEZMOS
    86    90     4     0     0
SMALL
USER_CHARGES
****
Generated from the CSD

@<TRIPOS>ATOM
     1 Fe1      4.2165   1.6625  12.0048   Fe        1 RES1   2.0000
     2 N1       3.2806   0.1531  14.1304   N.pl3     1 RES1   0.0000
     3 N2       2.6661   2.1359  14.6426   N.pl3     1 RES1   0.0000
     4 N3       4.0693   3.6512  11.8841   N.ar      1 RES1   0.0000
     5 N4       5.1688   1.6745  10.2936   N.1       1 RES1   0.0000
     6 N5       6.8327   1.6212  13.6948   N.pl3     1 RES1   0.0000
     7 N6       5.9118   3.4848  13.2169   N.pl3     1 RES1   0.0000
     8 N7       2.5483   1.4163  10.9803   N.1       1 RES1   0.0000
     9 N8       4.3384  -0.3284  12.1761   N.ar      1 RES1   0.0000
    10 N9       7.6258  -0.2371  14.8531   N.ar      1 RES1   0.0000
    11 N10      2.9370   4.2559  15.5594   N.ar      1 RES1   0.0000
    12 C1       5.0132   4.3323  12.5513   C.ar      1 RES1   0.0000
    13 C2       5.8052   2.1345  13.0015   C.3       1 RES1   0.0000
    14 C3       2.3251   3.5249  14.6361   C.ar      1 RES1   0.0000
    15 C4       3.3041   1.4435  13.6704   C.3       1 RES1   0.0000
    16 C5       5.7182   1.7512   9.3050   C.1       1 RES1   0.0000
    17 C6       3.2325   5.7662  11.1223   C.ar      1 RES1   0.0000
    18 H1       2.5839   6.2548  10.6277   H         1 RES1   0.0000
    19 C7       4.2269   6.4212  11.8025   C.ar      1 RES1   0.0000
    20 H2       4.2866   7.3683  11.7599   H         1 RES1   0.0000
    21 C8       1.6133   1.2437  10.3523   C.1       1 RES1   0.0000
    22 C9       5.1375   5.7081  12.5497   C.ar      1 RES1   0.0000
    23 H3       5.8227   6.1438  13.0429   H         1 RES1   0.0000
    24 C10      2.6237   0.0441  15.3555   C.2       1 RES1   0.0000
    25 H4       2.4731  -0.7477  15.8582   H         1 RES1   0.0000
    26 C11      3.1886   4.3714  11.1663   C.ar      1 RES1   0.0000
    27 H5       2.5160   3.9166  10.6724   H         1 RES1   0.0000
    28 C12      3.7891  -0.8350  13.2919   C.ar      1 RES1   0.0000
    29 C13      7.5734   2.6336  14.3669   C.2       1 RES1   0.0000
    30 H6       8.3281   2.5103  14.9295   H         1 RES1   0.0000
    31 C14      6.4334   1.8597   8.0391   C.3       1 RES1   0.0000
    32 H7       5.7913   1.9991   7.3120   H         1 RES1   0.0000
    33 H8       6.9370   1.0350   7.8768   H         1 RES1   0.0000
    34 H9       7.0526   2.6185   8.0777   H         1 RES1   0.0000
    35 C15      2.2526   1.2878  15.6720   C.2       1 RES1   0.0000
    36 H10      1.7892   1.5495  16.4592   H         1 RES1   0.0000
    37 C16      1.6980   6.1302  14.7274   C.ar      1 RES1   0.0000
    38 H11      1.5058   7.0592  14.7758   H         1 RES1   0.0000
    39 C17      6.9900   3.8007  14.0423   C.2       1 RES1   0.0000
    40 H12      7.2584   4.6680  14.3213   H         1 RES1   0.0000
    41 C18      1.4001   3.9813  13.7536   C.ar      1 RES1   0.0000
    42 C19      7.3112   0.2757  13.6687   C.ar      1 RES1   0.0000
    43 C20      1.0643   5.3299  13.8107   C.ar      1 RES1   0.0000
    44 H13      0.4069   5.6898  13.2271   H         1 RES1   0.0000
    45 C21      3.6617  -2.1902  13.5529   C.ar      1 RES1   0.0000
    46 H14      3.2709  -2.5043  14.3597   H         1 RES1   0.0000
    47 C22      2.6054   5.5655  15.5659   C.ar      1 RES1   0.0000
    48 H15      3.0349   6.1284  16.1991   H         1 RES1   0.0000
    49 C23      4.7730  -1.1977  11.2479   C.ar      1 RES1   0.0000
    50 H16      5.1590  -0.8631  10.4467   H         1 RES1   0.0000
    51 C24      0.4508   1.0445   9.5497   C.3       1 RES1   0.0000
    52 H17      0.3303   1.8120   8.9528   H         1 RES1   0.0000
    53 H18     -0.3349   0.9539  10.1285   H         1 RES1   0.0000
    54 H19      0.5581   0.2292   9.0156   H         1 RES1   0.0000
    55 C25      7.4690  -0.3464  12.4550   C.ar      1 RES1   0.0000
    56 C26      8.1074  -1.4706  14.8367   C.ar      1 RES1   0.0000
    57 H20      8.3030  -1.8819  15.6698   H         1 RES1   0.0000
    58 C27      4.1261  -3.0660  12.5888   C.ar      1 RES1   0.0000
    59 H21      4.0668  -4.0035  12.7315   H         1 RES1   0.0000
    60 C28      4.6723  -2.5872  11.4289   C.ar      1 RES1   0.0000
    61 H22      4.9783  -3.1851  10.7571   H         1 RES1   0.0000
    62 C29      8.0238  -1.6149  12.4877   C.ar      1 RES1   0.0000
    63 H23      8.1868  -2.0890  11.6809   H         1 RES1   0.0000
    64 C30      8.3382  -2.1821  13.7095   C.ar      1 RES1   0.0000
    65 H24      8.7099  -3.0553  13.7564   H         1 RES1   0.0000
    66 P1      -1.6479  -2.2933   8.1565   P.3       2 RES2  -1.0000
    67 F1      -1.9871  -1.1277   9.1973   F         2 RES2   0.0000
    68 F2      -1.9163  -1.3174   6.9967   F         2 RES2   0.0000
    69 F3      -3.1234  -2.7376   8.2299   F         2 RES2   0.0000
    70 F1A     -1.3087  -3.4588   7.1158   F         2 RES2   0.0000
    71 F2A     -1.3795  -3.2691   9.3164   F         2 RES2   0.0000
    72 F3A     -0.1723  -1.8489   8.0831   F         2 RES2   0.0000
    73 P2      10.9259  -4.5865  16.3131   P.3       3 RES3  -1.0000
    74 F4      10.4625  -6.0908  16.2413   F         3 RES3   0.0000
    75 F5      12.0693  -4.9320  15.2854   F         3 RES3   0.0000
    76 F6      10.0532  -4.2340  15.1222   F         3 RES3   0.0000
    77 F4A     11.3893  -3.0823  16.3849   F         3 RES3   0.0000
    78 F5A      9.7825  -4.2411  17.3408   F         3 RES3   0.0000
    79 F6A     11.7986  -4.9391  17.5039   F         3 RES3   0.0000
    80 P3       8.4548   5.0605  10.1353   P.3       4 RES4  -1.0000
    81 F7       7.1632   4.1392  10.3001   F         4 RES4   0.0000
    82 F8       8.1455   5.7298  11.5464   F         4 RES4   0.0000
    83 F9       8.7570   4.3791   8.7438   F         4 RES4   0.0000
    84 F10      7.5878   6.1508   9.4175   F         4 RES4   0.0000
    85 F11      9.3583   3.9918  10.8580   F         4 RES4   0.0000
    86 F12      9.7025   6.0429   9.9657   F         4 RES4   0.0000
@<TRIPOS>BOND
     1     1     4    1
     2     2    15    1
     3     3    14    1
     4     4    12   ar
     5     5     1    1
     6     6    13    1
     7     7    12    1
     8     8     1    1
     9     9     1    1
    10    10    42   ar
    11    11    14   ar
    12    12    22   ar
    13    13     1    1
    14    14    41   ar
    15    15     1    1
    16    16     5    3
    17    17    18    1
    18    19    17   ar
    19    20    19    1
    20    21     8    3
    21    22    19   ar
    22    23    22    1
    23    24     2    1
    24    25    24    1
    25    26     4   ar
    26    27    26    1
    27    28     2    1
    28    29     6    1
    29    30    29    1
    30    31    16    1
    31    32    31    1
    32    33    31    1
    33    34    31    1
    34    35     3    1
    35    36    35    1
    36    37    38    1
    37    39     7    1
    38    40    39    1
    39    41    43   ar
    40    42     6    1
    41    43    37   ar
    42    44    43    1
    43    45    28   ar
    44    46    45    1
    45    47    11   ar
    46    48    47    1
    47    49     9   ar
    48    50    49    1
    49    51    21    1
    50    52    51    1
    51    53    51    1
    52    54    51    1
    53    55    42   ar
    54    56    10   ar
    55    57    56    1
    56    58    45   ar
    57    59    58    1
    58    60    49   ar
    59    61    60    1
    60    62    55   ar
    61    63    62    1
    62    64    56   ar
    63    65    64    1
    64     3    15    1
    65     7    13    1
    66     9    28   ar
    67    17    26   ar
    68    24    35    2
    69    29    39    2
    70    37    47   ar
    71    58    60   ar
    72    62    64   ar
    73    66    67    1
    74    68    66    1
    75    69    66    1
    76    70    66    1
    77    71    66    1
    78    72    66    1
    79    73    74    1
    80    75    73    1
    81    76    73    1
    82    77    73    1
    83    78    73    1
    84    79    73    1
    85    80    81    1
    86    82    80    1
    87    83    80    1
    88    84    80    1
    89    85    80    1
    90    86    80    1
@<TRIPOS>SUBSTRUCTURE
     1 RES1        1 GROUP             0 ****  ****    0  
     2 RES2       66 GROUP             0 ****  ****    0  
     3 RES3       73 GROUP             0 ****  ****    0  
     4 RES4       80 GROUP             0 ****  ****    0  
@<TRIPOS>CRYSIN
    9.4811   12.6849   17.2631  100.3240  101.0060  111.0850     2     1
