@<TRIPOS>MOLECULE
HIBSUK
    77    84     2     0     0
SMALL
NO_CHARGES
****
Generated from the CSD

@<TRIPOS>ATOM
     1 Fe1     -4.2387  21.2947   9.4338   Fe        1 RES1   0.0000
     2 S1      -2.8223  22.2228  13.5260   S.3       1 RES1   0.0000
     3 S2      -1.3550  24.6607   9.0837   S.3       1 RES1   0.0000
     4 N1      -3.9390  20.3715  12.1684   N.2       1 RES1   0.0000
     5 N2      -3.5816  21.3461  11.2565   N.2       1 RES1   0.0000
     6 N3      -2.4042  23.4382  11.1998   N.2       1 RES1   0.0000
     7 N4      -2.9580  22.6804   8.9835   N.2       1 RES1   0.0000
     8 N5      -2.5905  22.9391   7.6666   N.2       1 RES1   0.0000
     9 C1      -3.6251  20.7059  13.3709   C.2       1 RES1   0.0000
    10 C2      -2.9502  22.3812  11.7961   C.2       1 RES1   0.0000
    11 C3      -2.3621  23.4836   9.8716   C.2       1 RES1   0.0000
    12 C4      -1.7751  23.9138   7.5672   C.2       1 RES1   0.0000
    13 C5      -1.2035  24.4179   6.2804   C.3       1 RES1   0.0000
    14 H1      -0.2227  24.5064   6.3771   H         1 RES1   0.0000
    15 H2      -1.5717  25.3187   6.0968   H         1 RES1   0.0000
    16 C6      -1.5046  23.5122   5.1006   C.3       1 RES1   0.0000
    17 H3      -1.0717  23.8687   4.2964   H         1 RES1   0.0000
    18 H4      -2.4732  23.4705   4.9585   H         1 RES1   0.0000
    19 H5      -1.1621  22.6123   5.2835   H         1 RES1   0.0000
    20 C7      -3.9818  19.8354  14.5545   C.3       1 RES1   0.0000
    21 H6      -3.8073  18.8886  14.3260   H         1 RES1   0.0000
    22 H7      -3.4011  20.0754  15.3202   H         1 RES1   0.0000
    23 C8      -5.3926  19.9867  14.9520   C.3       1 RES1   0.0000
    24 H8      -5.5463  19.5115  15.7956   H         1 RES1   0.0000
    25 H9      -5.9697  19.6095  14.2554   H         1 RES1   0.0000
    26 H10     -5.5994  20.9366  15.0695   H         1 RES1   0.0000
    27 S3      -1.9239  17.7165   8.1533   S.3       1 RES1   0.0000
    28 N6      -1.7264  20.2102   8.4313   N.2       1 RES1   0.0000
    29 N7      -2.9648  19.8758   8.9621   N.2       1 RES1   0.0000
    30 N8      -4.2387  17.9349   9.4338   N.2       1 RES1   0.0000
    31 C9      -1.0932  19.1834   7.9835   C.2       1 RES1   0.0000
    32 C10     -3.2040  18.5919   8.9483   C.2       1 RES1   0.0000
    33 C11      0.2761  19.2876   7.3798   C.3       1 RES1   0.0000
    34 H11      0.7589  20.0148   7.8474   H         1 RES1   0.0000
    35 H12      0.7587  18.4452   7.5759   H         1 RES1   0.0000
    36 C12      0.3768  19.5262   6.0012   C.3       1 RES1   0.0000
    37 H13      1.3024  19.7544   5.7757   H         1 RES1   0.0000
    38 H14     -0.2128  20.2690   5.7552   H         1 RES1   0.0000
    39 H15      0.1098  18.7207   5.5107   H         1 RES1   0.0000
    40 S3A     -6.5536  17.7165  10.7143   S.3       1 RES1   0.0000
    41 N6A     -6.7511  20.2102  10.4363   N.2       1 RES1   0.0000
    42 N7A     -5.5127  19.8758   9.9055   N.2       1 RES1   0.0000
    43 C9A     -7.3843  19.1834  10.8841   C.2       1 RES1   0.0000
    44 C10A    -5.2735  18.5919   9.9194   C.2       1 RES1   0.0000
    45 C11A    -8.7536  19.2876  11.4879   C.3       1 RES1   0.0000
    46 H11A    -9.2364  20.0148  11.0203   H         1 RES1   0.0000
    47 H12A    -9.2362  18.4452  11.2918   H         1 RES1   0.0000
    48 C12A    -8.8543  19.5262  12.8665   C.3       1 RES1   0.0000
    49 H13A    -9.7799  19.7544  13.0919   H         1 RES1   0.0000
    50 H14A    -8.2647  20.2690  13.1125   H         1 RES1   0.0000
    51 H15A    -8.5873  18.7207  13.3569   H         1 RES1   0.0000
    52 S1A     -5.6552  22.2228   5.3417   S.3       1 RES1   0.0000
    53 S2A     -7.1225  24.6607   9.7840   S.3       1 RES1   0.0000
    54 N1A     -4.5385  20.3715   6.6993   N.2       1 RES1   0.0000
    55 N2A     -4.8959  21.3461   7.6112   N.2       1 RES1   0.0000
    56 N3A     -6.0733  23.4382   7.6678   N.2       1 RES1   0.0000
    57 N4A     -5.5195  22.6804   9.8841   N.2       1 RES1   0.0000
    58 N5A     -5.8870  22.9391  11.2011   N.2       1 RES1   0.0000
    59 C1A     -4.8524  20.7059   5.4968   C.2       1 RES1   0.0000
    60 C2A     -5.5272  22.3812   7.0716   C.2       1 RES1   0.0000
    61 C3A     -6.1154  23.4836   8.9961   C.2       1 RES1   0.0000
    62 C4A     -6.7024  23.9138  11.3005   C.2       1 RES1   0.0000
    63 C5A     -7.2740  24.4179  12.5873   C.3       1 RES1   0.0000
    64 H1A     -8.2547  24.5064  12.4906   H         1 RES1   0.0000
    65 H2A     -6.9058  25.3187  12.7708   H         1 RES1   0.0000
    66 C6A     -6.9729  23.5122  13.7671   C.3       1 RES1   0.0000
    67 H3A     -7.4058  23.8687  14.5713   H         1 RES1   0.0000
    68 H4A     -6.0043  23.4705  13.9092   H         1 RES1   0.0000
    69 H5A     -7.3154  22.6123  13.5841   H         1 RES1   0.0000
    70 C7A     -4.4957  19.8354   4.3131   C.3       1 RES1   0.0000
    71 H6A     -4.6702  18.8886   4.5417   H         1 RES1   0.0000
    72 H7A     -5.0764  20.0754   3.5475   H         1 RES1   0.0000
    73 C8A     -3.0849  19.9867   3.9157   C.3       1 RES1   0.0000
    74 H8A     -2.9312  19.5115   3.0721   H         1 RES1   0.0000
    75 H9A     -2.5077  19.6095   4.6122   H         1 RES1   0.0000
    76 H10A    -2.8781  20.9366   3.7982   H         1 RES1   0.0000
    77 O1       0.2774  16.5889   5.9748   O.3       2 RES2   0.0000
@<TRIPOS>BOND
     1     1     5    1
     2     2     9    1
     3     3    11    1
     4     4     5    1
     5     5    10   un
     6     6    10   un
     7     7     1    1
     8     8     7    1
     9     9     4    2
    10    10     2    1
    11    11     6   un
    12    12     3    1
    13    13    12    1
    14    14    13    1
    15    15    13    1
    16    16    13    1
    17    17    16    1
    18    18    16    1
    19    19    16    1
    20    20     9    1
    21    21    20    1
    22    22    20    1
    23    23    20    1
    24    24    23    1
    25    25    23    1
    26    26    23    1
    27    27    31    1
    28    28    29    1
    29    29     1    1
    30    30    32   un
    31    31    28    2
    32    32    27    1
    33    33    31    1
    34    34    33    1
    35    35    33    1
    36    36    33    1
    37    37    36    1
    38    38    36    1
    39    39    36    1
    40    40    43    1
    41    41    42    1
    42    42     1    1
    43    43    41    2
    44    44    30   un
    45    45    43    1
    46    46    45    1
    47    47    45    1
    48    48    45    1
    49    49    48    1
    50    50    48    1
    51    51    48    1
    52    52    59    1
    53    53    61    1
    54    54    55    1
    55    55     1    1
    56    56    60   un
    57    57     1    1
    58    58    57    1
    59    59    54    2
    60    60    52    1
    61    61    56   un
    62    62    53    1
    63    63    62    1
    64    64    63    1
    65    65    63    1
    66    66    63    1
    67    67    66    1
    68    68    66    1
    69    69    66    1
    70    70    59    1
    71    71    70    1
    72    72    70    1
    73    73    70    1
    74    74    73    1
    75    75    73    1
    76    76    73    1
    77     7    11   un
    78     8    12    2
    79    29    32   un
    80    40    44    1
    81    42    44   un
    82    55    60   un
    83    57    61   un
    84    58    62    2
@<TRIPOS>SUBSTRUCTURE
     1 RES1        1 GROUP             0 ****  ****    0  
     2 RES2       77 GROUP             0 ****  ****    0  
@<TRIPOS>CRYSIN
   16.3641   16.8040   13.7898   90.0000  114.1950   90.0000    15     1
