@<TRIPOS>MOLECULE
HIKPID02
    82    88     4     0     0
SMALL
USER_CHARGES
****
Generated from the CSD

@<TRIPOS>ATOM
     1 Fe1      2.4952   4.7058   3.1847   Fe        1 RES1   2.0000
     2 S1       3.9225  11.3316   5.3584   S.2       1 RES1   0.0000
     3 S2       2.8322  -2.3562   3.5345   S.2       1 RES1   0.0000
     4 N1       3.6845  11.3304   2.7164   N.am      1 RES1   0.0000
     5 H1       3.5589  10.8793   1.9951   H         1 RES1   0.0000
     6 N2       2.8485   6.5511   3.4286   N.ar      1 RES1   0.0000
     7 N3       0.7974   6.8425   2.5295   N.pl3     1 RES1   0.0000
     8 N4       0.7899   5.4594   2.5209   N.2       1 RES1   0.0000
     9 N5       4.7909   5.8379   4.3072   N.pl3     1 RES1   0.0000
    10 N6       4.3135   4.6077   3.9141   N.2       1 RES1   0.0000
    11 N7       1.1804  -1.7231   1.5585   N.am      1 RES1   0.0000
    12 H2       0.8040  -1.1055   1.0928   H         1 RES1   0.0000
    13 N8       2.2502   2.8388   2.9721   N.ar      1 RES1   0.0000
    14 N9       1.5868   2.8969   5.1224   N.pl3     1 RES1   0.0000
    15 N10      1.7680   4.2542   4.9559   N.2       1 RES1   0.0000
    16 N11      3.0341   3.1969   0.8904   N.pl3     1 RES1   0.0000
    17 N12      3.1224   4.4986   1.3287   N.2       1 RES1   0.0000
    18 C1       3.8921  12.7649   2.5918   C.3       1 RES1   0.0000
    19 H3       3.8571  13.0137   1.6650   H         1 RES1   0.0000
    20 H4       3.2056  13.2311   3.0742   H         1 RES1   0.0000
    21 H5       4.7508  12.9965   2.9529   H         1 RES1   0.0000
    22 C2       3.6738  10.6732   3.8614   C.2       1 RES1   0.0000
    23 C3       3.3877   9.2141   3.7110   C.ar      1 RES1   0.0000
    24 C4       2.1910   8.8144   3.1235   C.ar      1 RES1   0.0000
    25 H6       1.5785   9.4379   2.8054   H         1 RES1   0.0000
    26 C5       4.3249   8.2717   4.1751   C.ar      1 RES1   0.0000
    27 H7       5.1206   8.5286   4.5813   H         1 RES1   0.0000
    28 C6       1.9465   7.4657   3.0301   C.ar      1 RES1   0.0000
    29 C7       3.9961   6.9487   3.9914   C.ar      1 RES1   0.0000
    30 C8      -0.3602   7.3398   2.0344   C.2       1 RES1   0.0000
    31 H8      -0.5937   8.2369   1.9593   H         1 RES1   0.0000
    32 C9      -1.1206   6.2605   1.6659   C.2       1 RES1   0.0000
    33 H9      -1.9623   6.2783   1.2706   H         1 RES1   0.0000
    34 C10     -0.3793   5.1333   2.0043   C.2       1 RES1   0.0000
    35 H10     -0.6719   4.2591   1.8823   H         1 RES1   0.0000
    36 C11      5.9965   5.7075   4.9183   C.2       1 RES1   0.0000
    37 H11      6.5133   6.3920   5.2775   H         1 RES1   0.0000
    38 C12      6.2995   4.3931   4.9012   C.2       1 RES1   0.0000
    39 H12      7.0708   3.9981   5.2399   H         1 RES1   0.0000
    40 C13      5.2369   3.7412   4.2803   C.2       1 RES1   0.0000
    41 H13      5.1857   2.8228   4.1431   H         1 RES1   0.0000
    42 C14      0.9209  -3.1000   1.1880   C.3       1 RES1   0.0000
    43 H14      0.3306  -3.1221   0.4311   H         1 RES1   0.0000
    44 H15      1.7475  -3.5320   0.9621   H         1 RES1   0.0000
    45 H16      0.5115  -3.5581   1.9260   H         1 RES1   0.0000
    46 C15      1.9512  -1.3528   2.5575   C.2       1 RES1   0.0000
    47 C16      2.0782   0.1279   2.7143   C.ar      1 RES1   0.0000
    48 C17      1.7964   0.7140   3.9441   C.ar      1 RES1   0.0000
    49 H17      1.5641   0.2030   4.6859   H         1 RES1   0.0000
    50 C18      2.4674   0.8942   1.6187   C.ar      1 RES1   0.0000
    51 H18      2.6465   0.5071   0.7921   H         1 RES1   0.0000
    52 C19      1.8784   2.0876   4.0118   C.ar      1 RES1   0.0000
    53 C20      2.5747   2.2560   1.8174   C.ar      1 RES1   0.0000
    54 C21      1.1603   2.6091   6.3738   C.2       1 RES1   0.0000
    55 H19      0.9855   1.7634   6.7184   H         1 RES1   0.0000
    56 C22      1.0376   3.8025   7.0365   C.2       1 RES1   0.0000
    57 H20      0.7600   3.9307   7.9150   H         1 RES1   0.0000
    58 C23      1.4141   4.7879   6.1181   C.2       1 RES1   0.0000
    59 H21      1.4167   5.7002   6.2996   H         1 RES1   0.0000
    60 C24      3.4561   3.0849  -0.3888   C.2       1 RES1   0.0000
    61 H22      3.4722   2.3067  -0.8983   H         1 RES1   0.0000
    62 C25      3.8562   4.3306  -0.7959   C.2       1 RES1   0.0000
    63 H23      4.2108   4.5657  -1.6233   H         1 RES1   0.0000
    64 C26      3.6189   5.1733   0.2922   C.2       1 RES1   0.0000
    65 H24      3.7860   6.0881   0.2934   H         1 RES1   0.0000
    66 F1       0.0545   9.9886   6.4500   F         2 RES2   0.0000
    67 F2      -0.5918   9.0854   4.5284   F         2 RES2   0.0000
    68 F3      -1.3837   8.4110   6.4328   F         2 RES2   0.0000
    69 F4       0.6016   7.9517   6.0129   F         2 RES2   0.0000
    70 B1      -0.2335   8.9150   5.8485   B         2 RES2  -1.0000
    71 F5      -2.6772   1.5490   1.6165   F         3 RES3   0.0000
    72 F6      -0.6594   1.4059   1.6767   F         3 RES3   0.0000
    73 F7      -1.6504   0.6237   3.3781   F         3 RES3   0.0000
    74 F8      -1.5923  -0.2493   1.4790   F         3 RES3   0.0000
    75 B2      -1.7208   0.8493   2.0558   B         3 RES3  -1.0000
    76 O1       1.1167   6.1975  -1.4200   O.2       4 RES4   0.0000
    77 O2      -0.9059   6.3046  -1.8056   O.2       4 RES4   0.0000
    78 N13      0.1305   6.8265  -1.5102   N.pl3     4 RES4   0.0000
    79 C27      0.1255   8.2582  -1.2825   C.3       4 RES4   0.0000
    80 H25     -0.7648   8.5980  -1.3998   H         4 RES4   0.0000
    81 H26      0.4219   8.4409  -0.3875   H         4 RES4   0.0000
    82 H27      0.7157   8.6839  -1.9081   H         4 RES4   0.0000
@<TRIPOS>BOND
     1     1     6    1
     2     2    22    2
     3     3    46    2
     4     4     5    1
     5     6    28   ar
     6     7     8    1
     7     8     1    1
     8     9    10    1
     9    10     1    1
    10    11    12    1
    11    13     1    1
    12    14    15    1
    13    15     1    1
    14    16    17    1
    15    17     1    1
    16    18     4    1
    17    19    18    1
    18    20    18    1
    19    21    18    1
    20    22     4   am
    21    23    22    1
    22    24    23   ar
    23    25    24    1
    24    26    23   ar
    25    27    26    1
    26    28     7    1
    27    29     6   ar
    28    30     7    1
    29    31    30    1
    30    32    30    2
    31    33    32    1
    32    34     8    2
    33    35    34    1
    34    36     9    1
    35    37    36    1
    36    38    36    2
    37    39    38    1
    38    40    10    2
    39    41    40    1
    40    42    11    1
    41    43    42    1
    42    44    42    1
    43    45    42    1
    44    46    11   am
    45    47    46    1
    46    48    47   ar
    47    49    48    1
    48    50    47   ar
    49    51    50    1
    50    52    13   ar
    51    53    13   ar
    52    54    14    1
    53    55    54    1
    54    56    54    2
    55    57    56    1
    56    58    15    2
    57    59    58    1
    58    60    16    1
    59    61    60    1
    60    62    60    2
    61    63    62    1
    62    64    17    2
    63    65    64    1
    64     9    29    1
    65    14    52    1
    66    16    53    1
    67    24    28   ar
    68    26    29   ar
    69    32    34    1
    70    38    40    1
    71    48    52   ar
    72    50    53   ar
    73    56    58    1
    74    62    64    1
    75    66    70    1
    76    67    70    1
    77    68    70    1
    78    69    70    1
    79    71    75    1
    80    72    75    1
    81    73    75    1
    82    74    75    1
    83    76    78    2
    84    77    78    2
    85    78    79    1
    86    79    80    1
    87    81    79    1
    88    82    79    1
@<TRIPOS>SUBSTRUCTURE
     1 RES1        1 GROUP             0 ****  ****    0  
     2 RES2       66 GROUP             0 ****  ****    0  
     3 RES3       71 GROUP             0 ****  ****    0  
     4 RES4       76 GROUP             0 ****  ****    0  
@<TRIPOS>CRYSIN
    8.2211   40.8700   10.7721   90.0000   94.3490   90.0000    14     1
