@<TRIPOS>MOLECULE
HIKPEZ
    83    88     5     0     0
SMALL
USER_CHARGES
****
Generated from the CSD

@<TRIPOS>ATOM
     1 Fe1      6.4184   2.0244   0.4636   Fe        1 RES1   2.0000
     2 S1      13.1777   1.7545   2.7580   S.2       1 RES1   0.0000
     3 S2      -0.6947   2.3467   0.5592   S.2       1 RES1   0.0000
     4 N1      12.9422   3.7514   1.0520   N.am      1 RES1   0.0000
     5 N2       8.2766   2.1490   0.8158   N.ar      1 RES1   0.0000
     6 N3       8.4281   2.7891  -1.3310   N.pl3     1 RES1   0.0000
     7 N4       7.0580   2.6520  -1.2958   N.2       1 RES1   0.0000
     8 N5       7.7112   1.4442   2.8827   N.pl3     1 RES1   0.0000
     9 N6       6.4503   1.3912   2.3268   N.2       1 RES1   0.0000
    10 N7       0.0404   1.2482  -1.7192   N.am      1 RES1   0.0000
    11 N8       4.5524   1.9573   0.1404   N.ar      1 RES1   0.0000
    12 N9       4.9786  -0.1203  -0.6175   N.pl3     1 RES1   0.0000
    13 N10      6.2710   0.1850  -0.2410   N.2       1 RES1   0.0000
    14 N11      4.5375   4.0407   0.9913   N.pl3     1 RES1   0.0000
    15 N12      5.9004   3.8329   1.0678   N.2       1 RES1   0.0000
    16 C1      12.3735   2.7563   1.7038   C.2       1 RES1   0.0000
    17 C2      10.9271   2.5183   1.3822   C.ar      1 RES1   0.0000
    18 C3      10.4582   2.7731   0.0949   C.ar      1 RES1   0.0000
    19 H1      11.0250   3.0663  -0.5816   H         1 RES1   0.0000
    20 C4      10.0761   2.0641   2.3915   C.ar      1 RES1   0.0000
    21 H2      10.3864   1.8902   3.2501   H         1 RES1   0.0000
    22 C5       9.1091   2.5671  -0.1266   C.ar      1 RES1   0.0000
    23 C6       8.7444   1.8858   2.0476   C.ar      1 RES1   0.0000
    24 C7       8.8400   3.1727  -2.5676   C.2       1 RES1   0.0000
    25 H3       9.7166   3.3293  -2.8350   H         1 RES1   0.0000
    26 C8       7.7352   3.2829  -3.3323   C.2       1 RES1   0.0000
    27 H4       7.7027   3.5318  -4.2280   H         1 RES1   0.0000
    28 C9       6.6497   2.9523  -2.5197   C.2       1 RES1   0.0000
    29 H5       5.7625   2.9441  -2.7994   H         1 RES1   0.0000
    30 C10      7.7058   0.9261   4.1368   C.2       1 RES1   0.0000
    31 H6       8.4339   0.8515   4.7108   H         1 RES1   0.0000
    32 C11      6.4174   0.5341   4.3912   C.2       1 RES1   0.0000
    33 H7       6.0994   0.1349   5.1690   H         1 RES1   0.0000
    34 C12      5.6814   0.8504   3.2570   C.2       1 RES1   0.0000
    35 H8       4.7682   0.7017   3.1643   H         1 RES1   0.0000
    36 C13      0.3817   1.7798  -0.5782   C.2       1 RES1   0.0000
    37 C14      1.8600   1.8429  -0.3233   C.ar      1 RES1   0.0000
    38 C15      2.6542   0.7528  -0.6500   C.ar      1 RES1   0.0000
    39 H9       2.2899  -0.0162  -1.0253   H         1 RES1   0.0000
    40 C16      2.4107   2.9910   0.2532   C.ar      1 RES1   0.0000
    41 H10      1.8829   3.7199   0.4861   H         1 RES1   0.0000
    42 C17      4.0064   0.8546  -0.3941   C.ar      1 RES1   0.0000
    43 C18      3.7693   2.9918   0.4583   C.ar      1 RES1   0.0000
    44 C19      4.9297  -1.3517  -1.1957   C.2       1 RES1   0.0000
    45 H11      4.1739  -1.7751  -1.5344   H         1 RES1   0.0000
    46 C20      6.1989  -1.8446  -1.1855   C.2       1 RES1   0.0000
    47 H12      6.4807  -2.6684  -1.5137   H         1 RES1   0.0000
    48 C21      6.9913  -0.8689  -0.5864   C.2       1 RES1   0.0000
    49 H13      7.9075  -0.9480  -0.4471   H         1 RES1   0.0000
    50 C22      4.2044   5.2267   1.5584   C.2       1 RES1   0.0000
    51 H14      3.3478   5.5813   1.6293   H         1 RES1   0.0000
    52 C23      5.3485   5.7986   2.0031   C.2       1 RES1   0.0000
    53 H15      5.4349   6.6160   2.4383   H         1 RES1   0.0000
    54 C24      6.3749   4.9054   1.6726   C.2       1 RES1   0.0000
    55 H16      7.2753   5.0488   1.8559   H         1 RES1   0.0000
    56 H17     13.8500   4.0373   1.2145   H         1 RES1   0.0000
    57 H18     12.4883   4.2224   0.4790   H         1 RES1   0.0000
    58 H19      0.5734   1.0177  -2.3436   H         1 RES1   0.0000
    59 H20     -0.7256   1.0177  -1.9672   H         1 RES1   0.0000
    60 F1      10.7208  -2.3316  -2.7028   F         2 RES2   0.0000
    61 F2      11.6640  -2.5410  -0.7243   F         2 RES2   0.0000
    62 F3      10.3661  -0.7536  -1.1530   F         2 RES2   0.0000
    63 F4       9.4399  -2.7546  -0.9408   F         2 RES2   0.0000
    64 B1      10.5512  -2.0944  -1.4027   B         2 RES2  -1.0000
    65 F5       3.2272   0.5677  -5.6295   F         3 RES3   0.0000
    66 F6       4.1797   1.0892  -3.6727   F         3 RES3   0.0000
    67 F7       2.0112   1.4080  -4.0029   F         3 RES3   0.0000
    68 F8       2.8300  -0.3945  -3.7035   F         3 RES3   0.0000
    69 B2       3.0630   0.7663  -4.2851   B         3 RES3  -1.0000
    70 O1       9.8419  -3.2029   2.7011   O.2       4 RES4   0.0000
    71 O2       9.0011  -1.3163   2.3076   O.2       4 RES4   0.0000
    72 N13      9.9665  -2.0355   2.4907   N.pl3     4 RES4   0.0000
    73 C25     11.3124  -1.4677   2.4051   C.3       4 RES4   0.0000
    74 H21     11.2518  -0.5249   2.2341   H         4 RES4   0.0000
    75 H22     11.7738  -1.6124   3.2353   H         4 RES4   0.0000
    76 H23     11.7950  -1.8923   1.6930   H         4 RES4   0.0000
    77 O3       2.8345   3.8195   5.9786   O.2       5 RES5   0.0000
    78 O4       3.7289   3.4292   4.1123   O.2       5 RES5   0.0000
    79 N14      2.7649   3.5621   4.7983   N.pl3     5 RES5   0.0000
    80 C26      1.4381   3.3888   4.2150   C.3       5 RES5   0.0000
    81 H24      0.7710   3.5281   4.8910   H         5 RES5   0.0000
    82 H25      1.3143   4.0258   3.5073   H         5 RES5   0.0000
    83 H26      1.3569   2.4997   3.8631   H         5 RES5   0.0000
@<TRIPOS>BOND
     1     1     5    1
     2     2    16    2
     3     3    36    2
     4     4    16   am
     5     5    22   ar
     6     6     7    1
     7     7     1    1
     8     8     9    1
     9     9     1    1
    10    10    36   am
    11    11     1    1
    12    12    13    1
    13    13     1    1
    14    14    15    1
    15    15     1    1
    16    16    17    1
    17    17    18   ar
    18    18    19    1
    19    20    17   ar
    20    21    20    1
    21    22     6    1
    22    23     5   ar
    23    24     6    1
    24    25    24    1
    25    26    24    2
    26    27    26    1
    27    28     7    2
    28    29    28    1
    29    30     8    1
    30    31    30    1
    31    32    30    2
    32    33    32    1
    33    34     9    2
    34    35    34    1
    35    36    37    1
    36    37    38   ar
    37    38    39    1
    38    40    37   ar
    39    41    40    1
    40    42    11   ar
    41    43    11   ar
    42    44    12    1
    43    45    44    1
    44    46    44    2
    45    47    46    1
    46    48    13    2
    47    49    48    1
    48    50    14    1
    49    51    50    1
    50    52    50    2
    51    53    52    1
    52    54    15    2
    53    55    54    1
    54    56     4    1
    55    57     4    1
    56    58    10    1
    57    59    10    1
    58     8    23    1
    59    12    42    1
    60    14    43    1
    61    18    22   ar
    62    20    23   ar
    63    26    28    1
    64    32    34    1
    65    38    42   ar
    66    40    43   ar
    67    46    48    1
    68    52    54    1
    69    60    64    1
    70    61    64    1
    71    62    64    1
    72    63    64    1
    73    65    69    1
    74    66    69    1
    75    67    69    1
    76    68    69    1
    77    70    72    2
    78    71    72    2
    79    72    73    1
    80    73    74    1
    81    75    73    1
    82    76    73    1
    83    77    79    2
    84    78    79    2
    85    79    80    1
    86    80    81    1
    87    82    80    1
    88    83    80    1
@<TRIPOS>SUBSTRUCTURE
     1 RES1        1 GROUP             0 ****  ****    0  
     2 RES2       60 GROUP             0 ****  ****    0  
     3 RES3       65 GROUP             0 ****  ****    0  
     4 RES4       70 GROUP             0 ****  ****    0  
     5 RES5       77 GROUP             0 ****  ****    0  
@<TRIPOS>CRYSIN
   51.8800    8.4111   17.1533   90.0000   94.2450   90.0000    15     1
