@<TRIPOS>MOLECULE
HIKPEZ01
    83    88     5     0     0
SMALL
USER_CHARGES
****
Generated from the CSD

@<TRIPOS>ATOM
     1 Fe1      6.3928   2.0035   0.4429   Fe        1 RES1   2.0000
     2 S1      13.1435   1.7463   2.7991   S.2       1 RES1   0.0000
     3 S2      -0.7153   2.3444   0.6843   S.2       1 RES1   0.0000
     4 N1      12.9058   3.7258   1.0624   N.am      1 RES1   0.0000
     5 N2       8.2484   2.1034   0.8056   N.ar      1 RES1   0.0000
     6 N3       8.4140   2.7590  -1.3469   N.pl3     1 RES1   0.0000
     7 N4       7.0353   2.6300  -1.3174   N.2       1 RES1   0.0000
     8 N5       7.6723   1.4070   2.8643   N.pl3     1 RES1   0.0000
     9 N6       6.4064   1.3728   2.3034   N.2       1 RES1   0.0000
    10 N7      -0.0272   1.2980  -1.6570   N.am      1 RES1   0.0000
    11 N8       4.5250   1.9553   0.1330   N.ar      1 RES1   0.0000
    12 N9       4.9248  -0.1248  -0.6371   N.pl3     1 RES1   0.0000
    13 N10      6.2212   0.1706  -0.2602   N.2       1 RES1   0.0000
    14 N11      4.5440   4.0353   0.9931   N.pl3     1 RES1   0.0000
    15 N12      5.9028   3.8090   1.0415   N.2       1 RES1   0.0000
    16 C1      12.3432   2.7207   1.7142   C.2       1 RES1   0.0000
    17 C2      10.9027   2.4745   1.3886   C.ar      1 RES1   0.0000
    18 C3      10.4390   2.7249   0.0918   C.ar      1 RES1   0.0000
    19 H1      11.0246   3.0183  -0.5963   H         1 RES1   0.0000
    20 C4      10.0337   2.0210   2.3919   C.ar      1 RES1   0.0000
    21 H2      10.3407   1.8458   3.2735   H         1 RES1   0.0000
    22 C5       9.0881   2.5260  -0.1441   C.ar      1 RES1   0.0000
    23 C6       8.7120   1.8421   2.0389   C.ar      1 RES1   0.0000
    24 C7       8.8375   3.1950  -2.5648   C.2       1 RES1   0.0000
    25 H3       9.7345   3.3631  -2.8286   H         1 RES1   0.0000
    26 C8       7.7160   3.3423  -3.3342   C.2       1 RES1   0.0000
    27 H4       7.6806   3.6338  -4.2377   H         1 RES1   0.0000
    28 C9       6.6274   2.9795  -2.5261   C.2       1 RES1   0.0000
    29 H5       5.7207   2.9833  -2.8091   H         1 RES1   0.0000
    30 C10      7.6555   0.8329   4.1061   C.2       1 RES1   0.0000
    31 H6       8.3971   0.7234   4.6895   H         1 RES1   0.0000
    32 C11      6.3685   0.4460   4.3465   C.2       1 RES1   0.0000
    33 H7       6.0400   0.0141   5.1260   H         1 RES1   0.0000
    34 C12      5.6270   0.8146   3.2126   C.2       1 RES1   0.0000
    35 H8       4.6920   0.6804   3.1128   H         1 RES1   0.0000
    36 C13      0.3370   1.8138  -0.4903   C.2       1 RES1   0.0000
    37 C14      1.8166   1.8662  -0.2672   C.ar      1 RES1   0.0000
    38 C15      2.6040   0.7671  -0.6342   C.ar      1 RES1   0.0000
    39 H9       2.2212  -0.0079  -1.0289   H         1 RES1   0.0000
    40 C16      2.3895   3.0028   0.3109   C.ar      1 RES1   0.0000
    41 H10      1.8603   3.7445   0.5804   H         1 RES1   0.0000
    42 C17      3.9660   0.8612  -0.3954   C.ar      1 RES1   0.0000
    43 C18      3.7621   2.9978   0.4719   C.ar      1 RES1   0.0000
    44 C19      4.8533  -1.3579  -1.2026   C.2       1 RES1   0.0000
    45 H11      4.0721  -1.7795  -1.5409   H         1 RES1   0.0000
    46 C20      6.1180  -1.8762  -1.1928   C.2       1 RES1   0.0000
    47 H12      6.3912  -2.7243  -1.5226   H         1 RES1   0.0000
    48 C21      6.9326  -0.8969  -0.5942   C.2       1 RES1   0.0000
    49 H13      7.8670  -0.9886  -0.4489   H         1 RES1   0.0000
    50 C22      4.2260   5.2285   1.5740   C.2       1 RES1   0.0000
    51 H14      3.3560   5.5985   1.6688   H         1 RES1   0.0000
    52 C23      5.3989   5.7868   1.9928   C.2       1 RES1   0.0000
    53 H15      5.5089   6.6196   2.4365   H         1 RES1   0.0000
    54 C24      6.4107   4.8790   1.6342   C.2       1 RES1   0.0000
    55 H16      7.3366   5.0153   1.7957   H         1 RES1   0.0000
    56 H17     13.7227   3.9521   1.1911   H         1 RES1   0.0000
    57 H18     12.4654   4.2850   0.5193   H         1 RES1   0.0000
    58 H19      0.5788   1.1316  -2.3420   H         1 RES1   0.0000
    59 H20     -0.7817   1.1316  -1.8092   H         1 RES1   0.0000
    60 F1      10.5338  -2.4154  -2.6854   F         2 RES2   0.0000
    61 F2      11.6266  -2.5102  -0.6981   F         2 RES2   0.0000
    62 F3      10.2740  -0.7355  -1.1728   F         2 RES2   0.0000
    63 F4       9.3742  -2.7790  -0.7580   F         2 RES2   0.0000
    64 B1      10.4500  -2.1217  -1.3410   B         2 RES2  -1.0000
    65 F5       3.1535   0.5791  -5.5565   F         3 RES3   0.0000
    66 F6       4.1050   1.2605  -3.6042   F         3 RES3   0.0000
    67 F7       1.8574   1.4128  -3.8897   F         3 RES3   0.0000
    68 F8       2.8599  -0.5966  -3.6300   F         3 RES3   0.0000
    69 B2       2.9976   0.6706  -4.1584   B         3 RES3  -1.0000
    70 O1       9.8474  -3.1842   2.6410   O.2       4 RES4   0.0000
    71 O2       8.9378  -1.2772   2.2044   O.2       4 RES4   0.0000
    72 N13      9.9213  -1.9902   2.3820   N.pl3     4 RES4   0.0000
    73 C25     11.2598  -1.3654   2.2798   C.3       4 RES4   0.0000
    74 H21     11.1609  -0.4134   2.0692   H         4 RES4   0.0000
    75 H22     11.7323  -1.4638   3.1328   H         4 RES4   0.0000
    76 H23     11.7726  -1.8054   1.5699   H         4 RES4   0.0000
    77 O3       2.9295   3.8847   5.9056   O.2       5 RES5   0.0000
    78 O4       3.7901   3.4288   3.9810   O.2       5 RES5   0.0000
    79 N14      2.8345   3.6160   4.7176   N.pl3     5 RES5   0.0000
    80 C26      1.4646   3.5303   4.1512   C.3       5 RES5   0.0000
    81 H24      0.8075   3.7028   4.8573   H         5 RES5   0.0000
    82 H25      1.3626   4.1967   3.4399   H         5 RES5   0.0000
    83 H26      1.3195   2.6339   3.7820   H         5 RES5   0.0000
@<TRIPOS>BOND
     1     1     5    1
     2     2    16    2
     3     3    36    2
     4     4    16   am
     5     5    22   ar
     6     6     7    1
     7     7     1    1
     8     8     9    1
     9     9     1    1
    10    10    36   am
    11    11     1    1
    12    12    13    1
    13    13     1    1
    14    14    15    1
    15    15     1    1
    16    16    17    1
    17    17    18   ar
    18    18    19    1
    19    20    17   ar
    20    21    20    1
    21    22     6    1
    22    23     5   ar
    23    24     6    1
    24    25    24    1
    25    26    24    2
    26    27    26    1
    27    28     7    2
    28    29    28    1
    29    30     8    1
    30    31    30    1
    31    32    30    2
    32    33    32    1
    33    34     9    2
    34    35    34    1
    35    36    37    1
    36    37    38   ar
    37    38    39    1
    38    40    37   ar
    39    41    40    1
    40    42    11   ar
    41    43    11   ar
    42    44    12    1
    43    45    44    1
    44    46    44    2
    45    47    46    1
    46    48    13    2
    47    49    48    1
    48    50    14    1
    49    51    50    1
    50    52    50    2
    51    53    52    1
    52    54    15    2
    53    55    54    1
    54    56     4    1
    55    57     4    1
    56    58    10    1
    57    59    10    1
    58     8    23    1
    59    12    42    1
    60    14    43    1
    61    18    22   ar
    62    20    23   ar
    63    26    28    1
    64    32    34    1
    65    38    42   ar
    66    40    43   ar
    67    46    48    1
    68    52    54    1
    69    60    64    1
    70    61    64    1
    71    62    64    1
    72    63    64    1
    73    65    69    1
    74    66    69    1
    75    67    69    1
    76    68    69    1
    77    70    72    2
    78    71    72    2
    79    72    73    1
    80    73    74    1
    81    75    73    1
    82    76    73    1
    83    77    79    2
    84    78    79    2
    85    79    80    1
    86    80    81    1
    87    82    80    1
    88    83    80    1
@<TRIPOS>SUBSTRUCTURE
     1 RES1        1 GROUP             0 ****  ****    0  
     2 RES2       60 GROUP             0 ****  ****    0  
     3 RES3       65 GROUP             0 ****  ****    0  
     4 RES4       70 GROUP             0 ****  ****    0  
     5 RES5       77 GROUP             0 ****  ****    0  
@<TRIPOS>CRYSIN
   51.6050    8.3203   16.7867   90.0000   93.6760   90.0000    15     1
