@<TRIPOS>MOLECULE
HIKRAX
    75    82     3     0     0
SMALL
USER_CHARGES
****
Generated from the CSD

@<TRIPOS>ATOM
     1 Fe1      5.2469   5.6645   4.8640   Fe        1 RES1   2.0000
     2 S1       7.1256   4.6662  -1.9465   S.2       1 RES1   0.0000
     3 S2       2.7395   5.9525  11.5531   S.2       1 RES1   0.0000
     4 N1       6.9156   7.2718  -1.5705   N.am      1 RES1   0.0000
     5 H1       6.6563   7.9527  -1.0765   H         1 RES1   0.0000
     6 N2       5.7094   5.7853   3.0271   N.ar      1 RES1   0.0000
     7 N3       6.4019   7.8637   3.5561   N.pl3     1 RES1   0.0000
     8 N4       6.0478   7.4744   4.8363   N.2       1 RES1   0.0000
     9 N5       4.8395   3.7129   2.8789   N.pl3     1 RES1   0.0000
    10 N6       4.6138   3.9044   4.2323   N.2       1 RES1   0.0000
    11 N7       2.8237   3.4307  10.7143   N.am      1 RES1   0.0000
    12 H2       3.0919   2.8578  10.1026   H         1 RES1   0.0000
    13 N8       4.6548   5.4843   6.6617   N.ar      1 RES1   0.0000
    14 N9       6.5948   4.3999   6.9844   N.pl3     1 RES1   0.0000
    15 N10      6.8433   4.8023   5.6818   N.2       1 RES1   0.0000
    16 N11      2.8325   6.5897   5.9314   N.pl3     1 RES1   0.0000
    17 N12      3.4883   6.5296   4.7243   N.2       1 RES1   0.0000
    18 C1       7.4447   7.5367  -2.8979   C.3       1 RES1   0.0000
    19 H3       7.4368   8.5021  -3.0663   H         1 RES1   0.0000
    20 H4       8.3640   7.2024  -2.9559   H         1 RES1   0.0000
    21 H5       6.8897   7.0839  -3.5669   H         1 RES1   0.0000
    22 C2       6.8079   6.0486  -1.0729   C.2       1 RES1   0.0000
    23 C3       6.3725   5.9747   0.3584   C.ar      1 RES1   0.0000
    24 C4       6.6549   7.0348   1.2275   C.ar      1 RES1   0.0000
    25 H6       7.0902   7.8217   0.9225   H         1 RES1   0.0000
    26 C5       5.7411   4.8177   0.8378   C.ar      1 RES1   0.0000
    27 H7       5.5323   4.0941   0.2593   H         1 RES1   0.0000
    28 C6       6.2726   6.8898   2.5488   C.ar      1 RES1   0.0000
    29 C7       5.4349   4.7718   2.1874   C.ar      1 RES1   0.0000
    30 C8       6.7111   9.1920   3.5053   C.2       1 RES1   0.0000
    31 H8       6.9671   9.6871   2.7362   H         1 RES1   0.0000
    32 C9       6.5789   9.6687   4.7762   C.2       1 RES1   0.0000
    33 H9       6.7412  10.5569   5.0711   H         1 RES1   0.0000
    34 C10      6.1542   8.5787   5.5662   C.2       1 RES1   0.0000
    35 H10      5.9692   8.6287   6.4967   H         1 RES1   0.0000
    36 C11      4.4471   2.4669   2.5033   C.2       1 RES1   0.0000
    37 H11      4.4917   2.1020   1.6273   H         1 RES1   0.0000
    38 C12      3.9743   1.8345   3.6213   C.2       1 RES1   0.0000
    39 H12      3.6275   0.9521   3.6775   H         1 RES1   0.0000
    40 C13      4.1088   2.7634   4.6709   C.2       1 RES1   0.0000
    41 H13      3.8693   2.5925   5.5742   H         1 RES1   0.0000
    42 C14      2.1371   2.8955  11.8867   C.3       1 RES1   0.0000
    43 H14      2.0740   1.9202  11.8107   H         1 RES1   0.0000
    44 H15      2.6396   3.1285  12.6946   H         1 RES1   0.0000
    45 H16      1.2362   3.2775  11.9401   H         1 RES1   0.0000
    46 C15      3.0718   4.7005  10.5041   C.2       1 RES1   0.0000
    47 C16      3.6761   5.0063   9.1701   C.ar      1 RES1   0.0000
    48 C17      4.9255   4.4860   8.8214   C.ar      1 RES1   0.0000
    49 H17      5.4363   3.9580   9.4235   H         1 RES1   0.0000
    50 C18      2.9222   5.7787   8.2762   C.ar      1 RES1   0.0000
    51 H18      2.0894   6.1609   8.5265   H         1 RES1   0.0000
    52 C19      5.3757   4.7867   7.5418   C.ar      1 RES1   0.0000
    53 C20      3.4498   5.9561   7.0178   C.ar      1 RES1   0.0000
    54 C21      7.6872   3.7770   7.5179   C.2       1 RES1   0.0000
    55 H19      7.7683   3.4303   8.3986   H         1 RES1   0.0000
    56 C22      8.6405   3.7496   6.5412   C.2       1 RES1   0.0000
    57 H20      9.5079   3.3677   6.6027   H         1 RES1   0.0000
    58 C23      8.0777   4.4044   5.4163   C.2       1 RES1   0.0000
    59 H21      8.5234   4.5384   4.5883   H         1 RES1   0.0000
    60 C24      1.6872   7.3175   5.8310   C.2       1 RES1   0.0000
    61 H22      1.0692   7.5049   6.5280   H         1 RES1   0.0000
    62 C25      1.6007   7.7262   4.5314   C.2       1 RES1   0.0000
    63 H23      0.9084   8.2488   4.1445   H         1 RES1   0.0000
    64 C26      2.7348   7.2210   3.8792   C.2       1 RES1   0.0000
    65 H24      2.9361   7.3559   2.9605   H         1 RES1   0.0000
    66 Cl1      1.9868   8.7390   0.4902   Cl        2 RES2   0.0000
    67 O1       1.2175   8.2897  -0.6361   O.2       2 RES2   0.0000
    68 O2       2.5049  10.0429   0.2023   O.2       2 RES2   0.0000
    69 O3       3.0815   7.8316   0.7143   O.2       2 RES2   0.0000
    70 O4       1.1351   8.8057   1.6497   O.3       2 RES2  -1.0000
    71 Cl2      3.7890  10.5885   8.1229   Cl        3 RES3   0.0000
    72 O5       5.1397  10.9447   7.7836   O.2       3 RES3   0.0000
    73 O6       2.9163  11.6301   7.6556   O.2       3 RES3   0.0000
    74 O7       3.4564   9.3502   7.5520   O.2       3 RES3   0.0000
    75 O8       3.6271  10.5518   9.5513   O.3       3 RES3  -1.0000
@<TRIPOS>BOND
     1     1     6    1
     2     2    22    2
     3     3    46    2
     4     4     5    1
     5     6    28   ar
     6     7     8    1
     7     8     1    1
     8     9    10    1
     9    10     1    1
    10    11    12    1
    11    13     1    1
    12    14    15    1
    13    15     1    1
    14    16    17    1
    15    17     1    1
    16    18     4    1
    17    19    18    1
    18    20    18    1
    19    21    18    1
    20    22     4   am
    21    23    22    1
    22    24    23   ar
    23    25    24    1
    24    26    23   ar
    25    27    26    1
    26    28     7    1
    27    29     6   ar
    28    30     7    1
    29    31    30    1
    30    32    30    2
    31    33    32    1
    32    34     8    2
    33    35    34    1
    34    36     9    1
    35    37    36    1
    36    38    36    2
    37    39    38    1
    38    40    10    2
    39    41    40    1
    40    42    11    1
    41    43    42    1
    42    44    42    1
    43    45    42    1
    44    46    11   am
    45    47    46    1
    46    48    47   ar
    47    49    48    1
    48    50    47   ar
    49    51    50    1
    50    52    13   ar
    51    53    13   ar
    52    54    14    1
    53    55    54    1
    54    56    54    2
    55    57    56    1
    56    58    15    2
    57    59    58    1
    58    60    16    1
    59    61    60    1
    60    62    60    2
    61    63    62    1
    62    64    17    2
    63    65    64    1
    64     9    29    1
    65    14    52    1
    66    16    53    1
    67    24    28   ar
    68    26    29   ar
    69    32    34    1
    70    38    40    1
    71    48    52   ar
    72    50    53   ar
    73    56    58    1
    74    62    64    1
    75    66    67    2
    76    68    66    2
    77    69    66    2
    78    70    66    1
    79    71    72    2
    80    73    71    2
    81    74    71    2
    82    75    71    1
@<TRIPOS>SUBSTRUCTURE
     1 RES1        1 GROUP             0 ****  ****    0  
     2 RES2       66 GROUP             0 ****  ****    0  
     3 RES3       71 GROUP             0 ****  ****    0  
@<TRIPOS>CRYSIN
    8.2973    9.7480   20.6211   81.0870   83.7930   90.5170     2     1
