@<TRIPOS>MOLECULE
HIKRAX02
    75    82     3     0     0
SMALL
USER_CHARGES
****
Generated from the CSD

@<TRIPOS>ATOM
     1 Fe1      5.3257   5.8046   4.8998   Fe        1 RES1   2.0000
     2 S1       7.0459   4.8754  -1.9718   S.2       1 RES1   0.0000
     3 S2       2.8273   6.1980  11.5851   S.2       1 RES1   0.0000
     4 N1       7.3104   7.3747  -1.4437   N.am      1 RES1   0.0000
     5 H1       6.8618   8.0383  -1.0798   H         1 RES1   0.0000
     6 N2       5.8033   5.9278   3.0652   N.ar      1 RES1   0.0000
     7 N3       6.4686   8.0119   3.6053   N.pl3     1 RES1   0.0000
     8 N4       6.1140   7.6219   4.8748   N.2       1 RES1   0.0000
     9 N5       4.9409   3.8594   2.9027   N.pl3     1 RES1   0.0000
    10 N6       4.6919   4.0517   4.2515   N.2       1 RES1   0.0000
    11 N7       2.9166   3.6696  10.7868   N.am      1 RES1   0.0000
    12 H2       3.1577   3.1035  10.1861   H         1 RES1   0.0000
    13 N8       4.7333   5.6466   6.7004   N.ar      1 RES1   0.0000
    14 N9       6.6719   4.5599   7.0379   N.pl3     1 RES1   0.0000
    15 N10      6.9144   4.9374   5.7365   N.2       1 RES1   0.0000
    16 N11      2.9124   6.7635   5.9673   N.pl3     1 RES1   0.0000
    17 N12      3.5648   6.6768   4.7526   N.2       1 RES1   0.0000
    18 C1       7.8410   7.6594  -2.7695   C.3       1 RES1   0.0000
    19 H3       8.0137   8.5998  -2.8508   H         1 RES1   0.0000
    20 H4       8.6579   7.1714  -2.8994   H         1 RES1   0.0000
    21 H5       7.2013   7.3931  -3.4351   H         1 RES1   0.0000
    22 C2       6.9742   6.1964  -1.0179   C.2       1 RES1   0.0000
    23 C3       6.5079   6.1261   0.4148   C.ar      1 RES1   0.0000
    24 C4       6.7287   7.1955   1.2778   C.ar      1 RES1   0.0000
    25 H6       7.1200   7.9834   0.9759   H         1 RES1   0.0000
    26 C5       5.8962   4.9552   0.8839   C.ar      1 RES1   0.0000
    27 H7       5.7268   4.2365   0.3189   H         1 RES1   0.0000
    28 C6       6.3515   7.0487   2.5888   C.ar      1 RES1   0.0000
    29 C7       5.5552   4.9162   2.2199   C.ar      1 RES1   0.0000
    30 C8       6.7730   9.3318   3.5606   C.2       1 RES1   0.0000
    31 H8       7.0242   9.8203   2.8101   H         1 RES1   0.0000
    32 C9       6.6410   9.8036   4.8314   C.2       1 RES1   0.0000
    33 H9       6.7996  10.6725   5.1233   H         1 RES1   0.0000
    34 C10      6.2180   8.7224   5.6103   C.2       1 RES1   0.0000
    35 H10      6.0337   8.7676   6.5200   H         1 RES1   0.0000
    36 C11      4.5160   2.6260   2.5032   C.2       1 RES1   0.0000
    37 H11      4.5661   2.2681   1.6467   H         1 RES1   0.0000
    38 C12      4.0026   2.0263   3.6114   C.2       1 RES1   0.0000
    39 H12      3.6352   1.1736   3.6583   H         1 RES1   0.0000
    40 C13      4.1324   2.9269   4.6525   C.2       1 RES1   0.0000
    41 H13      3.8588   2.7602   5.5265   H         1 RES1   0.0000
    42 C14      2.2723   3.1509  11.9729   C.3       1 RES1   0.0000
    43 H14      2.2054   2.1956  11.9093   H         1 RES1   0.0000
    44 H15      2.7901   3.3848  12.7470   H         1 RES1   0.0000
    45 H16      1.3929   3.5289  12.0508   H         1 RES1   0.0000
    46 C15      3.1626   4.9389  10.5560   C.2       1 RES1   0.0000
    47 C16      3.7594   5.2221   9.2208   C.ar      1 RES1   0.0000
    48 C17      5.0059   4.6970   8.8695   C.ar      1 RES1   0.0000
    49 H17      5.5097   4.1933   9.4670   H         1 RES1   0.0000
    50 C18      3.0141   5.9832   8.3115   C.ar      1 RES1   0.0000
    51 H18      2.2041   6.3705   8.5525   H         1 RES1   0.0000
    52 C19      5.4469   4.9625   7.6000   C.ar      1 RES1   0.0000
    53 C20      3.5317   6.1326   7.0505   C.ar      1 RES1   0.0000
    54 C21      7.7405   3.9390   7.5786   C.2       1 RES1   0.0000
    55 H19      7.8131   3.6140   8.4461   H         1 RES1   0.0000
    56 C22      8.7021   3.8810   6.5965   C.2       1 RES1   0.0000
    57 H20      9.5499   3.5031   6.6603   H         1 RES1   0.0000
    58 C23      8.1357   4.5102   5.4801   C.2       1 RES1   0.0000
    59 H21      8.5662   4.6144   4.6633   H         1 RES1   0.0000
    60 C24      1.7874   7.4998   5.8522   C.2       1 RES1   0.0000
    61 H22      1.1803   7.6910   6.5300   H         1 RES1   0.0000
    62 C25      1.7090   7.9053   4.5630   C.2       1 RES1   0.0000
    63 H23      1.0461   8.4388   4.1864   H         1 RES1   0.0000
    64 C26      2.8183   7.3667   3.9103   C.2       1 RES1   0.0000
    65 H24      3.0066   7.4782   3.0066   H         1 RES1   0.0000
    66 Cl1      2.2344   9.0232   0.6127   Cl        2 RES2   0.0000
    67 O1       1.6982   9.0439  -0.6263   O.2       2 RES2   0.0000
    68 O2       2.7934  10.2380   0.7402   O.2       2 RES2   0.0000
    69 O3       3.2249   8.0169   0.7101   O.3       2 RES2  -1.0000
    70 O4       1.2212   8.8721   1.5718   O.2       2 RES2   0.0000
    71 Cl2      3.9217  10.9033   8.1512   Cl        3 RES3   0.0000
    72 O5       5.2344  11.3087   7.8104   O.3       3 RES3  -1.0000
    73 O6       3.0916  11.8897   7.6844   O.2       3 RES3   0.0000
    74 O7       3.6694   9.7072   7.6701   O.2       3 RES3   0.0000
    75 O8       3.6752  10.9046   9.5287   O.2       3 RES3   0.0000
@<TRIPOS>BOND
     1     1     6    1
     2     2    22    2
     3     3    46    2
     4     4     5    1
     5     6    28   ar
     6     7     8    1
     7     8     1    1
     8     9    10    1
     9    10     1    1
    10    11    12    1
    11    13     1    1
    12    14    15    1
    13    15     1    1
    14    16    17    1
    15    17     1    1
    16    18     4    1
    17    19    18    1
    18    20    18    1
    19    21    18    1
    20    22     4   am
    21    23    22    1
    22    24    23   ar
    23    25    24    1
    24    26    23   ar
    25    27    26    1
    26    28     7    1
    27    29     6   ar
    28    30     7    1
    29    31    30    1
    30    32    30    2
    31    33    32    1
    32    34     8    2
    33    35    34    1
    34    36     9    1
    35    37    36    1
    36    38    36    2
    37    39    38    1
    38    40    10    2
    39    41    40    1
    40    42    11    1
    41    43    42    1
    42    44    42    1
    43    45    42    1
    44    46    11   am
    45    47    46    1
    46    48    47   ar
    47    49    48    1
    48    50    47   ar
    49    51    50    1
    50    52    13   ar
    51    53    13   ar
    52    54    14    1
    53    55    54    1
    54    56    54    2
    55    57    56    1
    56    58    15    2
    57    59    58    1
    58    60    16    1
    59    61    60    1
    60    62    60    2
    61    63    62    1
    62    64    17    2
    63    65    64    1
    64     9    29    1
    65    14    52    1
    66    16    53    1
    67    24    28   ar
    68    26    29   ar
    69    32    34    1
    70    38    40    1
    71    48    52   ar
    72    50    53   ar
    73    56    58    1
    74    62    64    1
    75    66    67    2
    76    68    66    2
    77    69    66    1
    78    70    66    2
    79    71    72    1
    80    73    71    2
    81    74    71    2
    82    75    71    2
@<TRIPOS>SUBSTRUCTURE
     1 RES1        1 GROUP             0 ****  ****    0  
     2 RES2       66 GROUP             0 ****  ****    0  
     3 RES3       71 GROUP             0 ****  ****    0  
@<TRIPOS>CRYSIN
    8.2899    9.9601   20.7440   80.3020   83.9410   89.3210     2     1
