@<TRIPOS>MOLECULE
HIMPOI
    49    55     1     0     0
SMALL
NO_CHARGES
****
Generated from the CSD

@<TRIPOS>ATOM
     1 Fe1      5.3001   2.4989   2.8315   Fe        1 RES1   0.0000
     2 O1       4.3660   1.3956   1.6418   O.3       1 RES1   0.0000
     3 O2       6.8000   1.3809   2.9397   O.3       1 RES1   0.0000
     4 O3       4.5628   1.8569   4.6053   O.2       1 RES1   0.0000
     5 O4       3.5732   3.6523   3.0348   O.3       1 RES1   0.0000
     6 N1       5.7919   3.7222   1.0253   N.3       1 RES1   0.0000
     7 C1       3.7485   1.5271   0.4954   C.ar      1 RES1   0.0000
     8 C2       2.8900   0.4906   0.0195   C.ar      1 RES1   0.0000
     9 C3       2.6686  -0.7630   0.8631   C.3       1 RES1   0.0000
    10 C4       3.9865  -1.4989   1.1032   C.3       1 RES1   0.0000
    11 C5       2.0412  -0.3883   2.2129   C.3       1 RES1   0.0000
    12 C6       1.7063  -1.7473   0.1622   C.3       1 RES1   0.0000
    13 C7       2.2777   0.6774  -1.2070   C.ar      1 RES1   0.0000
    14 C8       2.4259   1.8099  -2.0030   C.ar      1 RES1   0.0000
    15 C9       1.7235   1.9342  -3.3225   C.3       1 RES1   0.0000
    16 C10      3.2523   2.8078  -1.5207   C.ar      1 RES1   0.0000
    17 C11      3.8765   2.6961  -0.2963   C.ar      1 RES1   0.0000
    18 C12      4.5909   3.9748   0.2315   C.3       1 RES1   0.0000
    19 C13      6.7509   3.0260   0.1622   C.3       1 RES1   0.0000
    20 C14      6.3624   5.0113   1.4817   C.3       1 RES1   0.0000
    21 N2       6.5748   4.1293   3.7379   N.3       1 RES1   0.0000
    22 C15      8.0720   1.4561   3.2923   C.ar      1 RES1   0.0000
    23 C16      9.0077   0.4582   2.8769   C.ar      1 RES1   0.0000
    24 C17      8.5262  -0.7557   2.0636   C.3       1 RES1   0.0000
    25 C18      7.9035  -0.3152   0.7290   C.3       1 RES1   0.0000
    26 C19      7.4804  -1.5594   2.8575   C.3       1 RES1   0.0000
    27 C20      9.6862  -1.7223   1.7564   C.3       1 RES1   0.0000
    28 C21     10.3145   0.6242   3.2403   C.ar      1 RES1   0.0000
    29 C22     10.7940   1.6941   3.9888   C.ar      1 RES1   0.0000
    30 C23     12.2567   1.8423   4.2830   C.3       1 RES1   0.0000
    31 C24      9.8543   2.6293   4.4279   C.ar      1 RES1   0.0000
    32 C25      8.5318   2.5229   4.1056   C.ar      1 RES1   0.0000
    33 C26      7.5220   3.4873   4.7004   C.3       1 RES1   0.0000
    34 C27      5.7592   5.1125   4.5122   C.3       1 RES1   0.0000
    35 C28      7.3001   4.7983   2.6563   C.3       1 RES1   0.0000
    36 C29      3.3427   2.1774   4.8172   C.2       1 RES1   0.0000
    37 C30      2.5421   1.6315   5.8512   C.2       1 RES1   0.0000
    38 C31      1.2303   1.9790   5.9659   C.2       1 RES1   0.0000
    39 C32      0.2802   1.3830   7.0171   C.3       1 RES1   0.0000
    40 C33      0.9983   0.4781   8.0122   C.3       1 RES1   0.0000
    41 C34     -0.4132   2.5114   7.8088   C.3       1 RES1   0.0000
    42 C35     -0.7848   0.5647   6.2882   C.3       1 RES1   0.0000
    43 C36      0.6879   2.9195   5.0054   C.2       1 RES1   0.0000
    44 C37      1.3758   3.4988   3.9953   C.2       1 RES1   0.0000
    45 C38      0.7119   4.4215   2.9700   C.3       1 RES1   0.0000
    46 C39     -0.7749   4.6533   3.2555   C.3       1 RES1   0.0000
    47 C40      0.8287   3.7786   1.5812   C.3       1 RES1   0.0000
    48 C41      1.4252   5.7785   2.9483   C.3       1 RES1   0.0000
    49 C42      2.7700   3.1700   3.8979   C.2       1 RES1   0.0000
@<TRIPOS>BOND
     1     1     2    1
     2     2     7    1
     3     3     1    1
     4     4     1    1
     5     5     1    1
     6     6     1    1
     7     7     8   ar
     8     8     9    1
     9     9    10    1
    10    11     9    1
    11    12     9    1
    12    13     8   ar
    13    14    13   ar
    14    15    14    1
    15    16    14   ar
    16    17     7   ar
    17    18     6    1
    18    19     6    1
    19    20     6    1
    20    21     1    1
    21    22     3    1
    22    23    22   ar
    23    24    23    1
    24    25    24    1
    25    26    24    1
    26    27    24    1
    27    28    23   ar
    28    29    28   ar
    29    30    29    1
    30    31    29   ar
    31    32    22   ar
    32    33    21    1
    33    34    21    1
    34    35    20    1
    35    36     4    2
    36    37    36    1
    37    38    37    2
    38    39    38    1
    39    40    39    1
    40    41    39    1
    41    42    39    1
    42    43    38    1
    43    44    43    2
    44    45    44    1
    45    46    45    1
    46    47    45    1
    47    48    45    1
    48    49     5    1
    49    16    17   ar
    50    17    18    1
    51    21    35    1
    52    31    32   ar
    53    32    33    1
    54    36    49    1
    55    44    49    1
@<TRIPOS>SUBSTRUCTURE
     1 RES1        1 GROUP             0 ****  ****    0  
@<TRIPOS>CRYSIN
   36.2400   10.4380   23.9280   90.0000  115.3100   90.0000    15     1
