@<TRIPOS>MOLECULE
HIPHUM
    88    99     1     0     0
SMALL
NO_CHARGES
****
Generated from the CSD

@<TRIPOS>ATOM
     1 Fe1      5.7177   4.3342   4.2042   Fe        1 RES1   0.0000
     2 P1       7.2839   5.7966   4.7165   P.3       1 RES1   0.0000
     3 P2       4.1070   4.8069   5.5683   P.3       1 RES1   0.0000
     4 Si1      5.7654   2.0953   4.6953   Si        1 RES1   0.0000
     5 H1       4.4300   1.4600   4.6798   H         1 RES1   0.0000
     6 H2       6.2532   1.6035   5.8073   H         1 RES1   0.0000
     7 N1       4.2651   3.9492   3.0144   N.ar      1 RES1   0.0000
     8 N2       6.7082   4.3255   2.5499   N.ar      1 RES1   0.0000
     9 C1       4.0001   4.3833   7.3502   C.ar      1 RES1   0.0000
    10 C2       7.9975   5.8353   6.4052   C.ar      1 RES1   0.0000
    11 C3       8.0242   4.6633   2.3632   C.ar      1 RES1   0.0000
    12 C4       2.9478   3.7079   3.3480   C.ar      1 RES1   0.0000
    13 C5       5.9932   3.9231   1.4409   C.ar      1 RES1   0.0000
    14 C6       2.6471   3.9204   4.8186   C.3       1 RES1   0.0000
    15 H3       2.5079   3.0498   5.2677   H         1 RES1   0.0000
    16 H4       1.8271   4.4643   4.9246   H         1 RES1   0.0000
    17 C7       8.6748   5.1689   3.6188   C.3       1 RES1   0.0000
    18 H5       9.3077   5.9008   3.4091   H         1 RES1   0.0000
    19 H6       9.1710   4.4410   4.0703   H         1 RES1   0.0000
    20 C8       2.7541   7.0935   4.5762   C.ar      1 RES1   0.0000
    21 H7       2.3315   6.5079   3.9587   H         1 RES1   0.0000
    22 C9       3.5825   6.5674   5.5803   C.ar      1 RES1   0.0000
    23 C10      4.6282   3.6998   1.6979   C.ar      1 RES1   0.0000
    24 C11      8.6324   4.5305   1.1123   C.ar      1 RES1   0.0000
    25 H8       9.5422   4.7830   1.0059   H         1 RES1   0.0000
    26 C12      7.9258   4.0341   0.0155   C.ar      1 RES1   0.0000
    27 H9       8.3618   3.9054  -0.8194   H         1 RES1   0.0000
    28 C13      5.1241   3.8530   7.9942   C.ar      1 RES1   0.0000
    29 H10      5.9302   3.7214   7.5094   H         1 RES1   0.0000
    30 C14      8.6173   4.6869   6.9140   C.ar      1 RES1   0.0000
    31 H11      8.7631   3.9421   6.3436   H         1 RES1   0.0000
    32 C15      9.0226   4.6225   8.2446   C.ar      1 RES1   0.0000
    33 H12      9.4345   3.8342   8.5786   H         1 RES1   0.0000
    34 C16      7.2390   7.5794   4.2616   C.ar      1 RES1   0.0000
    35 C17      4.2004   7.4597   6.4780   C.ar      1 RES1   0.0000
    36 H13      4.7637   7.1208   7.1630   H         1 RES1   0.0000
    37 C18      8.3493   8.4274   4.4640   C.ar      1 RES1   0.0000
    38 H14      9.1328   8.0895   4.8813   H         1 RES1   0.0000
    39 C19      7.8030   6.9244   7.2702   C.ar      1 RES1   0.0000
    40 H15      7.3862   7.7132   6.9465   H         1 RES1   0.0000
    41 C20      6.5650   3.7285   0.1607   C.ar      1 RES1   0.0000
    42 C21      2.5463   8.4729   4.4790   C.ar      1 RES1   0.0000
    43 H16      1.9789   8.8181   3.8005   H         1 RES1   0.0000
    44 C22      2.0352   3.2683   2.4002   C.ar      1 RES1   0.0000
    45 H17      1.1350   3.1145   2.6613   H         1 RES1   0.0000
    46 C23      6.6434   1.2333   3.2469   C.ar      1 RES1   0.0000
    47 C24      5.9346   0.7037   2.1557   C.ar      1 RES1   0.0000
    48 H18      4.9869   0.6589   2.2000   H         1 RES1   0.0000
    49 C25      5.0615   3.5166   9.3448   C.ar      1 RES1   0.0000
    50 H19      5.8290   3.1618   9.7777   H         1 RES1   0.0000
    51 C26      8.8228   5.7168   9.0880   C.ar      1 RES1   0.0000
    52 H20      9.1024   5.6788   9.9958   H         1 RES1   0.0000
    53 C27      2.4126   3.0431   1.0575   C.ar      1 RES1   0.0000
    54 H21      1.7741   2.7513   0.4180   H         1 RES1   0.0000
    55 C28      6.1064   8.0895   3.6454   C.ar      1 RES1   0.0000
    56 H22      5.3569   7.5246   3.4957   H         1 RES1   0.0000
    57 C29      8.0497   1.2838   3.1302   C.ar      1 RES1   0.0000
    58 H23      8.5619   1.6355   3.8488   H         1 RES1   0.0000
    59 C30      8.3014   9.7494   4.0575   C.ar      1 RES1   0.0000
    60 H24      9.0509  10.3166   4.1952   H         1 RES1   0.0000
    61 C31      5.6593   3.2603  -0.8664   C.ar      1 RES1   0.0000
    62 H25      5.9971   3.0967  -1.7387   H         1 RES1   0.0000
    63 C32      7.1495  10.2462   3.4457   C.ar      1 RES1   0.0000
    64 H26      7.1177  11.1539   3.1676   H         1 RES1   0.0000
    65 C33      3.7463   3.2588   0.6883   C.ar      1 RES1   0.0000
    66 C34      8.2140   6.8602   8.5936   C.ar      1 RES1   0.0000
    67 H27      8.0766   7.6057   9.1665   H         1 RES1   0.0000
    68 C35      3.8900   3.6980  10.0625   C.ar      1 RES1   0.0000
    69 H28      3.8521   3.4557  10.9801   H         1 RES1   0.0000
    70 C36      2.8276   4.5867   8.0946   C.ar      1 RES1   0.0000
    71 H29      2.0652   4.9689   7.6759   H         1 RES1   0.0000
    72 C37      6.0564   9.4289   3.2409   C.ar      1 RES1   0.0000
    73 H30      5.2730   9.7746   2.8279   H         1 RES1   0.0000
    74 C38      3.9927   8.8357   6.3724   C.ar      1 RES1   0.0000
    75 H31      4.4151   9.4284   6.9831   H         1 RES1   0.0000
    76 C39      6.5831   0.2406   1.0092   C.ar      1 RES1   0.0000
    77 H32      6.0806  -0.1225   0.2898   H         1 RES1   0.0000
    78 C40      8.7034   0.8294   1.9868   C.ar      1 RES1   0.0000
    79 H33      9.6510   0.8706   1.9335   H         1 RES1   0.0000
    80 C41      3.1640   9.3403   5.3676   C.ar      1 RES1   0.0000
    81 H34      3.0237  10.2778   5.2944   H         1 RES1   0.0000
    82 C42      2.7691   4.2333   9.4363   C.ar      1 RES1   0.0000
    83 H35      1.9649   4.3584   9.9259   H         1 RES1   0.0000
    84 C43      7.9686   0.3154   0.9276   C.ar      1 RES1   0.0000
    85 H36      8.4135   0.0138   0.1432   H         1 RES1   0.0000
    86 C44      4.3313   3.0443  -0.6197   C.ar      1 RES1   0.0000
    87 H37      3.7751   2.7432  -1.3290   H         1 RES1   0.0000
    88 H38      6.6981   3.5052   4.9963   H         1 RES1   0.0000
@<TRIPOS>BOND
     1     1     2    1
     2     2    10    1
     3     3     1    1
     4     4     1    1
     5     5     4    1
     6     6     4    1
     7     7     1    1
     8     8     1    1
     9     9     3    1
    10    10    30   ar
    11    11     8   ar
    12    12     7   ar
    13    13     8   ar
    14    14     3    1
    15    15    14    1
    16    16    14    1
    17    17     2    1
    18    18    17    1
    19    19    17    1
    20    20    21    1
    21    22     3    1
    22    23     7   ar
    23    24    11   ar
    24    25    24    1
    25    26    24   ar
    26    27    26    1
    27    28     9   ar
    28    29    28    1
    29    30    31    1
    30    32    30   ar
    31    33    32    1
    32    34     2    1
    33    35    22   ar
    34    36    35    1
    35    37    34   ar
    36    38    37    1
    37    39    10   ar
    38    40    39    1
    39    41    13   ar
    40    42    20   ar
    41    43    42    1
    42    44    12   ar
    43    45    44    1
    44    46     4    1
    45    47    46   ar
    46    48    47    1
    47    49    28   ar
    48    50    49    1
    49    51    32   ar
    50    52    51    1
    51    53    44   ar
    52    54    53    1
    53    55    34   ar
    54    56    55    1
    55    57    46   ar
    56    58    57    1
    57    59    37   ar
    58    60    59    1
    59    61    41   ar
    60    62    61    1
    61    63    59   ar
    62    64    63    1
    63    65    23   ar
    64    66    39   ar
    65    67    66    1
    66    68    49   ar
    67    69    68    1
    68    70     9   ar
    69    71    70    1
    70    72    55   ar
    71    73    72    1
    72    74    35   ar
    73    75    74    1
    74    76    47   ar
    75    77    76    1
    76    78    57   ar
    77    79    78    1
    78    80    42   ar
    79    81    80    1
    80    82    68   ar
    81    83    82    1
    82    84    76   ar
    83    85    84    1
    84    86    61   ar
    85    87    86    1
    86    88     1    1
    87     4    88    1
    88    11    17    1
    89    12    14    1
    90    13    23   ar
    91    20    22   ar
    92    26    41   ar
    93    51    66   ar
    94    53    65   ar
    95    63    72   ar
    96    65    86   ar
    97    70    82   ar
    98    74    80   ar
    99    78    84   ar
@<TRIPOS>SUBSTRUCTURE
     1 RES1        1 GROUP             0 ****  ****    0  
@<TRIPOS>CRYSIN
    9.6735   12.1191   17.8980   70.2730   74.8670   67.3910     2     1
