@<TRIPOS>MOLECULE
HIPJIC
    99   108     1     0     0
SMALL
NO_CHARGES
****
Generated from the CSD

@<TRIPOS>ATOM
     1 C1       4.8335   5.0126  10.6627   C.ar      1 RES1   0.0000
     2 C2       6.1306   4.6549  11.1031   C.ar      1 RES1   0.0000
     3 H1       6.5458   3.8687  10.7699   H         1 RES1   0.0000
     4 C3       6.7887   5.4467  12.0129   C.ar      1 RES1   0.0000
     5 H2       7.6671   5.2205  12.2940   H         1 RES1   0.0000
     6 C4       6.1527   6.6048  12.5315   C.ar      1 RES1   0.0000
     7 C5       6.7087   7.4461  13.5457   C.ar      1 RES1   0.0000
     8 H3       7.5913   7.2835  13.8600   H         1 RES1   0.0000
     9 C6       5.9849   8.4798  14.0643   C.ar      1 RES1   0.0000
    10 H4       6.3619   9.0100  14.7554   H         1 RES1   0.0000
    11 C7       4.6635   8.7824  13.5848   C.ar      1 RES1   0.0000
    12 C8       3.8422   9.8047  14.0933   C.ar      1 RES1   0.0000
    13 H5       4.1788  10.4042  14.7496   H         1 RES1   0.0000
    14 C9       2.5529   9.9362  13.6398   C.ar      1 RES1   0.0000
    15 H6       1.9987  10.6276  13.9846   H         1 RES1   0.0000
    16 C10      2.0460   9.0538  12.6735   C.ar      1 RES1   0.0000
    17 C11      4.1079   7.9792  12.5692   C.ar      1 RES1   0.0000
    18 C12      4.8665   6.8904  12.0448   C.ar      1 RES1   0.0000
    19 N1       4.2526   6.1198  11.0987   N.ar      1 RES1   0.0000
    20 N2       2.8361   8.1263  12.1302   N.ar      1 RES1   0.0000
    21 C13      0.5908   9.0241  12.2650   C.3       1 RES1   0.0000
    22 H7       0.2272   9.9447  12.3099   H         1 RES1   0.0000
    23 H8       0.0879   8.4713  12.9140   H         1 RES1   0.0000
    24 Fe1      2.3861   6.9331  10.3844   Fe        1 RES1   0.0000
    25 P1       2.8077   5.1036   8.7053   P.3       1 RES1   0.0000
    26 P2       0.3126   8.3502  10.5553   P.3       1 RES1   0.0000
    27 C14      1.4650   3.8433   8.4186   C.3       1 RES1   0.0000
    28 H9       0.9271   3.8235   9.2618   H         1 RES1   0.0000
    29 C15      0.5006   4.2971   7.3233   C.3       1 RES1   0.0000
    30 H10      0.1793   5.2106   7.5262   H         1 RES1   0.0000
    31 H11      0.9799   4.3254   6.4570   H         1 RES1   0.0000
    32 C16     -0.6905   3.3554   7.2118   C.3       1 RES1   0.0000
    33 H12     -1.2562   3.6368   6.4512   H         1 RES1   0.0000
    34 H13     -1.2340   3.4205   8.0376   H         1 RES1   0.0000
    35 C17     -0.2589   1.9089   7.0075   C.3       1 RES1   0.0000
    36 H14     -1.0552   1.3221   7.0553   H         1 RES1   0.0000
    37 H15      0.1379   1.8113   6.1064   H         1 RES1   0.0000
    38 C18      0.7455   1.4649   8.0448   C.3       1 RES1   0.0000
    39 H16      1.0796   0.5656   7.8014   H         1 RES1   0.0000
    40 H17      0.2891   1.3900   8.9199   H         1 RES1   0.0000
    41 C19      1.9281   2.4038   8.1897   C.3       1 RES1   0.0000
    42 H18      2.4840   2.3642   7.3712   H         1 RES1   0.0000
    43 H19      2.4874   2.1125   8.9532   H         1 RES1   0.0000
    44 C20      3.6963   5.2403   7.0930   C.3       1 RES1   0.0000
    45 H20      3.6119   4.3608   6.6251   H         1 RES1   0.0000
    46 C21      3.0395   6.3206   6.1846   C.3       1 RES1   0.0000
    47 H21      2.0757   6.1226   6.0774   H         1 RES1   0.0000
    48 H22      3.1278   7.2100   6.6106   H         1 RES1   0.0000
    49 C22      3.7134   6.3361   4.8243   C.3       1 RES1   0.0000
    50 H23      3.5499   5.4722   4.3694   H         1 RES1   0.0000
    51 H24      3.3117   7.0516   4.2709   H         1 RES1   0.0000
    52 C23      5.2097   6.5666   4.9257   C.3       1 RES1   0.0000
    53 H25      5.3764   7.4871   5.2473   H         1 RES1   0.0000
    54 H26      5.6148   6.4775   4.0275   H         1 RES1   0.0000
    55 C24      5.8647   5.5754   5.8746   C.3       1 RES1   0.0000
    56 H27      6.8153   5.8229   5.9949   H         1 RES1   0.0000
    57 H28      5.8332   4.6719   5.4719   H         1 RES1   0.0000
    58 C25      5.1785   5.5372   7.2451   C.3       1 RES1   0.0000
    59 H29      5.5994   4.8401   7.8072   H         1 RES1   0.0000
    60 H30      5.2967   6.4097   7.6986   H         1 RES1   0.0000
    61 C26     -1.3898   7.6073  10.7032   C.3       1 RES1   0.0000
    62 H31     -1.3778   7.0742  11.5493   H         1 RES1   0.0000
    63 C27     -2.5852   8.5646  10.8336   C.3       1 RES1   0.0000
    64 H32     -2.6735   9.0977  10.0035   H         1 RES1   0.0000
    65 H33     -2.4285   9.1896  11.5855   H         1 RES1   0.0000
    66 C28     -3.8832   7.7784  11.0814   C.3       1 RES1   0.0000
    67 H34     -3.8263   7.3118  11.9535   H         1 RES1   0.0000
    68 H35     -4.6475   8.4062  11.1205   H         1 RES1   0.0000
    69 C29     -4.1261   6.7476   9.9673   C.3       1 RES1   0.0000
    70 H36     -4.9393   6.2230  10.1745   H         1 RES1   0.0000
    71 H37     -4.2772   7.2199   9.1096   H         1 RES1   0.0000
    72 C30     -2.9344   5.8031   9.8253   C.3       1 RES1   0.0000
    73 H38     -3.0934   5.1837   9.0691   H         1 RES1   0.0000
    74 H39     -2.8406   5.2643  10.6496   H         1 RES1   0.0000
    75 C31     -1.6347   6.5921   9.5776   C.3       1 RES1   0.0000
    76 H40     -0.8727   5.9643   9.5283   H         1 RES1   0.0000
    77 H41     -1.6975   7.0686   8.7127   H         1 RES1   0.0000
    78 C32      0.3044   9.8683   9.5153   C.3       1 RES1   0.0000
    79 H42      1.2519  10.1794   9.5573   H         1 RES1   0.0000
    80 C33     -0.4759  11.0971   9.8572   C.3       1 RES1   0.0000
    81 H43     -0.3226  11.3332  10.8076   H         1 RES1   0.0000
    82 H44     -1.4424  10.9232   9.7355   H         1 RES1   0.0000
    83 C34     -0.0456  12.2707   8.9604   C.3       1 RES1   0.0000
    84 H45      0.8992  12.4998   9.1401   H         1 RES1   0.0000
    85 H46     -0.5998  13.0668   9.1647   H         1 RES1   0.0000
    86 C35     -0.2139  11.8917   7.4726   C.3       1 RES1   0.0000
    87 H47     -1.1762  11.7758   7.2726   H         1 RES1   0.0000
    88 H48      0.1292  12.6284   6.9076   H         1 RES1   0.0000
    89 C36      0.4964  10.6644   7.1437   C.3       1 RES1   0.0000
    90 H49      1.4706  10.8270   7.2176   H         1 RES1   0.0000
    91 H50      0.3016  10.4226   6.2035   H         1 RES1   0.0000
    92 C37      0.1220   9.4908   8.0434   C.3       1 RES1   0.0000
    93 H51      0.6926   8.7117   7.8275   H         1 RES1   0.0000
    94 H52     -0.8205   9.2362   7.8797   H         1 RES1   0.0000
    95 Br1      1.0894   5.1743  11.8488   Br        1 RES1   0.0000
    96 Br2      3.7267   8.7389   9.0578   Br        1 RES1   0.0000
    97 C38      3.9865   4.1331   9.7717   C.3       1 RES1   0.0000
    98 H53      3.4683   3.5053  10.3353   H         1 RES1   0.0000
    99 H54      4.5802   3.5958   9.1893   H         1 RES1   0.0000
@<TRIPOS>BOND
     1     1     2   ar
     2     2     3    1
     3     4     2   ar
     4     5     4    1
     5     6     4   ar
     6     7     6   ar
     7     8     7    1
     8     9     7   ar
     9    10     9    1
    10    11     9   ar
    11    12    11   ar
    12    13    12    1
    13    14    12   ar
    14    15    14    1
    15    16    14   ar
    16    17    11   ar
    17    18     6   ar
    18    19     1   ar
    19    20    16   ar
    20    21    16    1
    21    22    21    1
    22    23    21    1
    23    24    19    1
    24    25    24    1
    25    26    21    1
    26    27    25    1
    27    28    27    1
    28    29    27    1
    29    30    29    1
    30    31    29    1
    31    32    29    1
    32    33    32    1
    33    34    32    1
    34    35    32    1
    35    36    35    1
    36    37    35    1
    37    38    35    1
    38    39    38    1
    39    40    38    1
    40    41    27    1
    41    42    41    1
    42    43    41    1
    43    44    25    1
    44    45    44    1
    45    46    44    1
    46    47    46    1
    47    48    46    1
    48    49    46    1
    49    50    49    1
    50    51    49    1
    51    52    49    1
    52    53    52    1
    53    54    52    1
    54    55    52    1
    55    56    55    1
    56    57    55    1
    57    58    44    1
    58    59    58    1
    59    60    58    1
    60    61    26    1
    61    62    61    1
    62    63    61    1
    63    64    63    1
    64    65    63    1
    65    66    63    1
    66    67    66    1
    67    68    66    1
    68    69    66    1
    69    70    69    1
    70    71    69    1
    71    72    69    1
    72    73    72    1
    73    74    72    1
    74    75    61    1
    75    76    75    1
    76    77    75    1
    77    78    26    1
    78    79    78    1
    79    80    78    1
    80    81    80    1
    81    82    80    1
    82    83    80    1
    83    84    83    1
    84    85    83    1
    85    86    83    1
    86    87    86    1
    87    88    86    1
    88    89    86    1
    89    90    89    1
    90    91    89    1
    91    92    78    1
    92    93    92    1
    93    94    92    1
    94    95    24    1
    95    96    24    1
    96    97     1    1
    97    98    97    1
    98    99    97    1
    99    17    18   ar
   100    17    20   ar
   101    18    19   ar
   102    20    24    1
   103    24    26    1
   104    25    97    1
   105    38    41    1
   106    55    58    1
   107    72    75    1
   108    89    92    1
@<TRIPOS>SUBSTRUCTURE
     1 RES1        1 GROUP             0 ****  ****    0  
@<TRIPOS>CRYSIN
   18.2990   14.1400   15.1780   90.0000  107.3510   90.0000    14     1
