@<TRIPOS>MOLECULE
HIPJOI
    99   108     1     0     0
SMALL
NO_CHARGES
****
Generated from the CSD

@<TRIPOS>ATOM
     1 C1       1.4148   8.9551   6.2195   C.3       1 RES1   0.0000
     2 H1       0.6415   9.2809   6.7460   H         1 RES1   0.0000
     3 H2       1.2192   9.0857   5.2589   H         1 RES1   0.0000
     4 C2       1.6605   7.5134   6.5039   C.ar      1 RES1   0.0000
     5 C3       0.9751   6.4555   5.9183   C.ar      1 RES1   0.0000
     6 H3       0.3094   6.6362   5.2656   H         1 RES1   0.0000
     7 C4       1.2465   5.1311   6.2767   C.ar      1 RES1   0.0000
     8 H4       0.7719   4.4136   5.8729   H         1 RES1   0.0000
     9 C5       2.2216   4.8832   7.2272   C.ar      1 RES1   0.0000
    10 C6       2.6553   3.5958   7.6814   C.ar      1 RES1   0.0000
    11 H5       2.2095   2.8202   7.3634   H         1 RES1   0.0000
    12 C7       3.6850   3.4507   8.5528   C.ar      1 RES1   0.0000
    13 H6       3.9549   2.5748   8.8018   H         1 RES1   0.0000
    14 H7       5.0194   8.8773   7.6376   H         1 RES1   0.0000
    15 H8       2.5325   9.2070   9.0340   H         1 RES1   0.0000
    16 C8       4.3871   4.5837   9.1181   C.ar      1 RES1   0.0000
    17 C9       5.4380   4.5574  10.0097   C.ar      1 RES1   0.0000
    18 H9       5.7792   3.7290  10.3260   H         1 RES1   0.0000
    19 C10      5.9976   5.7669  10.4437   C.ar      1 RES1   0.0000
    20 H10      6.7224   5.7524  11.0561   H         1 RES1   0.0000
    21 C11      5.5047   6.9897   9.9929   C.ar      1 RES1   0.0000
    22 C12      3.9291   5.8566   8.6935   C.ar      1 RES1   0.0000
    23 C13      2.9086   5.9978   7.7756   C.ar      1 RES1   0.0000
    24 C14      6.0749   8.3246  10.3443   C.3       1 RES1   0.0000
    25 H11      6.9120   8.4789   9.8398   H         1 RES1   0.0000
    26 H12      6.2796   8.3602  11.3118   H         1 RES1   0.0000
    27 N1       2.6494   7.3010   7.4168   N.ar      1 RES1   0.0000
    28 N2       4.4714   7.0549   9.1172   N.ar      1 RES1   0.0000
    29 P1       2.9524   9.8803   6.6967   P.3       1 RES1   0.0000
    30 P2       4.8153   9.6266   9.9093   P.3       1 RES1   0.0000
    31 C15      2.3262  11.6236   6.8229   C.3       1 RES1   0.0000
    32 H13      3.1269  12.2198   6.7914   H         1 RES1   0.0000
    33 C16      1.6499  11.8676   8.1703   C.3       1 RES1   0.0000
    34 H14      2.2732  11.6209   8.8994   H         1 RES1   0.0000
    35 H15      0.8492  11.2912   8.2450   H         1 RES1   0.0000
    36 C17      1.2374  13.3344   8.3307   C.3       1 RES1   0.0000
    37 H16      0.7734  13.4531   9.1971   H         1 RES1   0.0000
    38 H17      2.0457  13.9055   8.3341   H         1 RES1   0.0000
    39 C18      0.3124  13.7710   7.1969   C.3       1 RES1   0.0000
    40 H18      0.0986  14.7326   7.2961   H         1 RES1   0.0000
    41 H19     -0.5338  13.2605   7.2440   H         1 RES1   0.0000
    42 C19      0.9796  13.5322   5.8409   C.3       1 RES1   0.0000
    43 H20      0.3488  13.7736   5.1176   H         1 RES1   0.0000
    44 H21      1.7773  14.1139   5.7602   H         1 RES1   0.0000
    45 C20      1.3982  12.0720   5.6828   C.3       1 RES1   0.0000
    46 H22      1.8652  11.9586   4.8164   H         1 RES1   0.0000
    47 H23      0.5914  11.4996   5.6727   H         1 RES1   0.0000
    48 C21      3.8700   9.8982   5.0822   C.3       1 RES1   0.0000
    49 H24      3.2467  10.2544   4.3858   H         1 RES1   0.0000
    50 C22      5.1029  10.7991   5.0974   C.3       1 RES1   0.0000
    51 H25      5.7382  10.4747   5.7837   H         1 RES1   0.0000
    52 H26      4.8329  11.7198   5.3413   H         1 RES1   0.0000
    53 C23      5.7959  10.8189   3.7364   C.3       1 RES1   0.0000
    54 H27      6.6148  11.3716   3.7936   H         1 RES1   0.0000
    55 H28      5.1938  11.2344   3.0702   H         1 RES1   0.0000
    56 C24      6.1689   9.4102   3.2704   C.3       1 RES1   0.0000
    57 H29      6.5298   9.4550   2.3485   H         1 RES1   0.0000
    58 H30      6.8771   9.0474   3.8575   H         1 RES1   0.0000
    59 C25      4.9724   8.4829   3.2939   C.3       1 RES1   0.0000
    60 H31      5.2697   7.5635   3.0752   H         1 RES1   0.0000
    61 H32      4.3264   8.7665   2.5992   H         1 RES1   0.0000
    62 C26      4.2718   8.4710   4.6583   C.3       1 RES1   0.0000
    63 H33      4.8784   8.0832   5.3379   H         1 RES1   0.0000
    64 H34      3.4636   7.9025   4.6095   H         1 RES1   0.0000
    65 C27      4.0459   9.8745  11.5944   C.3       1 RES1   0.0000
    66 H35      4.7920  10.0209  12.2421   H         1 RES1   0.0000
    67 C28      3.3089   8.6029  12.0268   C.3       1 RES1   0.0000
    68 H36      3.9367   7.8379  12.0083   H         1 RES1   0.0000
    69 H37      2.5780   8.4143  11.3858   H         1 RES1   0.0000
    70 C29      2.7205   8.7388  13.4399   C.3       1 RES1   0.0000
    71 H38      2.1837   7.9341  13.6502   H         1 RES1   0.0000
    72 H39      3.4590   8.7929  14.0977   H         1 RES1   0.0000
    73 C30      1.8425   9.9761  13.5711   C.3       1 RES1   0.0000
    74 H40      1.0266   9.8587  13.0210   H         1 RES1   0.0000
    75 H41      1.5604  10.0789  14.5149   H         1 RES1   0.0000
    76 C31      2.5704  11.2331  13.1270   C.3       1 RES1   0.0000
    77 H42      3.3225  11.4138  13.7444   H         1 RES1   0.0000
    78 H43      1.9502  12.0034  13.1640   H         1 RES1   0.0000
    79 C32      3.1072  11.0788  11.7004   C.3       1 RES1   0.0000
    80 H44      2.3490  10.9614  11.0746   H         1 RES1   0.0000
    81 H45      3.5955  11.9006  11.4413   H         1 RES1   0.0000
    82 C33      5.9248  11.0920   9.6283   C.3       1 RES1   0.0000
    83 H46      6.5966  10.7899   8.9532   H         1 RES1   0.0000
    84 C34      6.7421  11.5418  10.8407   C.3       1 RES1   0.0000
    85 H47      7.2365  10.7675  11.2092   H         1 RES1   0.0000
    86 H48      6.1325  11.8781  11.5423   H         1 RES1   0.0000
    87 C35      7.7339  12.6445  10.4572   C.3       1 RES1   0.0000
    88 H49      8.3981  12.2831   9.8162   H         1 RES1   0.0000
    89 H50      8.2207  12.9453  11.2647   H         1 RES1   0.0000
    90 C36      7.0090  13.8369   9.8246   C.3       1 RES1   0.0000
    91 H51      6.4055  14.2498  10.4908   H         1 RES1   0.0000
    92 H52      7.6717  14.5176   9.5437   H         1 RES1   0.0000
    93 C37      6.2023  13.3819   8.6167   C.3       1 RES1   0.0000
    94 H53      6.8210  13.0495   7.9186   H         1 RES1   0.0000
    95 H54      5.7079  14.1535   8.2450   H         1 RES1   0.0000
    96 C38      5.2090  12.2739   8.9818   C.3       1 RES1   0.0000
    97 H55      4.5312  12.6313   9.6093   H         1 RES1   0.0000
    98 H56      4.7404  11.9678   8.1659   H         1 RES1   0.0000
    99 Fe1      3.7267   8.6227   8.3065   Fe        1 RES1   0.0000
@<TRIPOS>BOND
     1     1     2    1
     2     3     1    1
     3     4     1    1
     4     5     4   ar
     5     6     5    1
     6     7     5   ar
     7     8     7    1
     8     9     7   ar
     9    10     9   ar
    10    11    10    1
    11    12    10   ar
    12    13    12    1
    13    14    99    1
    14    15    99    1
    15    16    12   ar
    16    17    16   ar
    17    18    17    1
    18    19    17   ar
    19    20    19    1
    20    21    19   ar
    21    22    16   ar
    22    23     9   ar
    23    24    21    1
    24    25    24    1
    25    26    24    1
    26    27     4   ar
    27    28    21   ar
    28    29     1    1
    29    30    24    1
    30    31    29    1
    31    32    31    1
    32    33    31    1
    33    34    33    1
    34    35    33    1
    35    36    33    1
    36    37    36    1
    37    38    36    1
    38    39    36    1
    39    40    39    1
    40    41    39    1
    41    42    39    1
    42    43    42    1
    43    44    42    1
    44    45    31    1
    45    46    45    1
    46    47    45    1
    47    48    29    1
    48    49    48    1
    49    50    48    1
    50    51    50    1
    51    52    50    1
    52    53    50    1
    53    54    53    1
    54    55    53    1
    55    56    53    1
    56    57    56    1
    57    58    56    1
    58    59    56    1
    59    60    59    1
    60    61    59    1
    61    62    48    1
    62    63    62    1
    63    64    62    1
    64    65    30    1
    65    66    65    1
    66    67    65    1
    67    68    67    1
    68    69    67    1
    69    70    67    1
    70    71    70    1
    71    72    70    1
    72    73    70    1
    73    74    73    1
    74    75    73    1
    75    76    73    1
    76    77    76    1
    77    78    76    1
    78    79    65    1
    79    80    79    1
    80    81    79    1
    81    82    30    1
    82    83    82    1
    83    84    82    1
    84    85    84    1
    85    86    84    1
    86    87    84    1
    87    88    87    1
    88    89    87    1
    89    90    87    1
    90    91    90    1
    91    92    90    1
    92    93    90    1
    93    94    93    1
    94    95    93    1
    95    96    82    1
    96    97    96    1
    97    98    96    1
    98    99    27    1
    99    22    23   ar
   100    22    28   ar
   101    23    27   ar
   102    28    99    1
   103    29    99    1
   104    30    99    1
   105    42    45    1
   106    59    62    1
   107    76    79    1
   108    93    96    1
@<TRIPOS>SUBSTRUCTURE
     1 RES1        1 GROUP             0 ****  ****    0  
@<TRIPOS>CRYSIN
   15.1645   13.1906   16.8230   90.0000   90.0000   90.0000    33     1
