@<TRIPOS>MOLECULE
HISXOA
    84    90     1     0     0
SMALL
NO_CHARGES
****
Generated from the CSD

@<TRIPOS>ATOM
     1 Se1     18.2696  11.6618   2.0141   Se        1 RES1   0.0000
     2 Fe1     15.0752   8.8563   4.6708   Fe        1 RES1   0.0000
     3 O1      13.8978  10.3234   5.0070   O.3       1 RES1   0.0000
     4 O2      14.1919   7.3731   5.4974   O.3       1 RES1   0.0000
     5 O3      12.3007  12.3628   4.5242   O.3       1 RES1   0.0000
     6 O4      13.0909   5.9801   7.4326   O.3       1 RES1   0.0000
     7 N1      14.0784   8.3159   2.8855   N.2       1 RES1   0.0000
     8 N2      16.0460   9.3417   6.4696   N.2       1 RES1   0.0000
     9 N3      16.8322   7.3429   4.7724   N.pl3     1 RES1   0.0000
    10 N4      16.4715   9.9786   3.6197   N.2       1 RES1   0.0000
    11 N5      12.5071  10.5071   1.8404   N.pl3     1 RES1   0.0000
    12 H1      12.2832  11.0437   2.5010   H         1 RES1   0.0000
    13 C1      14.1388  11.4477   5.6566   C.ar      1 RES1   0.0000
    14 C2      12.9939   6.8977   5.2780   C.ar      1 RES1   0.0000
    15 C3      13.3090  12.5728   5.4211   C.ar      1 RES1   0.0000
    16 C4      17.3414   6.9190   3.5062   C.ar      1 RES1   0.0000
    17 C5      15.1731  11.5863   6.6170   C.ar      1 RES1   0.0000
    18 C6      17.1895  10.6365   2.9939   C.1       1 RES1   0.0000
    19 C7      15.3735  12.8230   7.2606   C.ar      1 RES1   0.0000
    20 H2      16.0657  12.9073   7.9059   H         1 RES1   0.0000
    21 C8      16.5699   6.0290   2.7720   C.ar      1 RES1   0.0000
    22 H3      15.7739   5.6702   3.1458   H         1 RES1   0.0000
    23 C9      12.3139   7.0753   4.0567   C.ar      1 RES1   0.0000
    24 C10     12.9527   7.6834   2.9227   C.2       1 RES1   0.0000
    25 H4      12.4892   7.6110   2.0966   H         1 RES1   0.0000
    26 C11     13.5455  13.7717   6.0614   C.ar      1 RES1   0.0000
    27 H5      12.9881  14.5189   5.8781   H         1 RES1   0.0000
    28 C12     16.9533   8.3122   6.9761   C.3       1 RES1   0.0000
    29 H6      16.4388   7.5621   7.3670   H         1 RES1   0.0000
    30 H7      17.5439   8.6882   7.6759   H         1 RES1   0.0000
    31 C13     18.5204   7.4270   2.9710   C.ar      1 RES1   0.0000
    32 H8      19.0576   8.0290   3.4727   H         1 RES1   0.0000
    33 C14     12.3488   6.1459   6.2969   C.ar      1 RES1   0.0000
    34 C15     16.0152  10.4965   7.0176   C.2       1 RES1   0.0000
    35 H9      16.5989  10.6449   7.7527   H         1 RES1   0.0000
    36 C16     17.7770   7.8280   5.7946   C.3       1 RES1   0.0000
    37 H10     18.3242   8.5689   5.4313   H         1 RES1   0.0000
    38 H11     18.3832   7.0975   6.0752   H         1 RES1   0.0000
    39 C17     18.9015   7.0389   1.6871   C.ar      1 RES1   0.0000
    40 H12     19.7069   7.3789   1.3147   H         1 RES1   0.0000
    41 C18     14.5904  13.9003   6.9727   C.ar      1 RES1   0.0000
    42 H13     14.7568  14.7364   7.3918   H         1 RES1   0.0000
    43 C19     13.9048  10.3539   1.5151   C.3       1 RES1   0.0000
    44 H14     14.4380  10.9056   2.1406   H         1 RES1   0.0000
    45 H15     14.0577  10.7039   0.6019   H         1 RES1   0.0000
    46 C20     18.1245   6.1669   0.9477   C.ar      1 RES1   0.0000
    47 H16     18.3886   5.9152   0.0706   H         1 RES1   0.0000
    48 C21     11.0722   5.6820   6.1004   C.ar      1 RES1   0.0000
    49 H17     10.6429   5.1925   6.7922   H         1 RES1   0.0000
    50 C22     14.4167   8.9027   1.5787   C.3       1 RES1   0.0000
    51 H18     14.0019   8.3694   0.8553   H         1 RES1   0.0000
    52 H19     15.3983   8.8883   1.4499   H         1 RES1   0.0000
    53 C23     16.9583   5.6641   1.4965   C.ar      1 RES1   0.0000
    54 H20     16.4210   5.0635   0.9938   H         1 RES1   0.0000
    55 C24     11.4161  13.4806   4.2998   C.3       1 RES1   0.0000
    56 H21     11.9176  14.2438   3.9172   H         1 RES1   0.0000
    57 H22     11.0047  13.7698   5.1523   H         1 RES1   0.0000
    58 C25     10.3597  13.0224   3.3428   C.3       1 RES1   0.0000
    59 H23     10.7801  12.7327   2.5064   H         1 RES1   0.0000
    60 H24      9.7425  13.7612   3.1596   H         1 RES1   0.0000
    61 H25      9.8653  12.2735   3.7366   H         1 RES1   0.0000
    62 C26     12.7187   3.6239   7.9221   C.3       1 RES1   0.0000
    63 H26     12.1452   3.4982   7.1376   H         1 RES1   0.0000
    64 H27     12.4371   3.0122   8.6341   H         1 RES1   0.0000
    65 H28     13.6497   3.4363   7.6797   H         1 RES1   0.0000
    66 C27     11.0090   6.5840   3.8916   C.ar      1 RES1   0.0000
    67 H29     10.5530   6.7187   3.0695   H         1 RES1   0.0000
    68 C28     11.5016   9.8408   1.1518   C.ar      1 RES1   0.0000
    69 C29     10.3941   5.9147   4.9079   C.ar      1 RES1   0.0000
    70 H30      9.5018   5.6067   4.8017   H         1 RES1   0.0000
    71 C30     12.6024   5.0493   8.4074   C.3       1 RES1   0.0000
    72 H31     11.6539   5.2509   8.6066   H         1 RES1   0.0000
    73 H32     13.1188   5.1525   9.2462   H         1 RES1   0.0000
    74 C31     11.6613   9.4351  -0.1838   C.ar      1 RES1   0.0000
    75 H33     12.4706   9.6282  -0.6421   H         1 RES1   0.0000
    76 C32     10.2971   9.5662   1.7862   C.ar      1 RES1   0.0000
    77 H34     10.1619   9.8477   2.6830   H         1 RES1   0.0000
    78 C33     10.6539   8.7601  -0.8317   C.ar      1 RES1   0.0000
    79 H35     10.7738   8.4895  -1.7342   H         1 RES1   0.0000
    80 C34      9.2939   8.8874   1.1230   C.ar      1 RES1   0.0000
    81 H36      8.4758   8.7044   1.5697   H         1 RES1   0.0000
    82 C35      9.4673   8.4716  -0.1812   C.ar      1 RES1   0.0000
    83 H37      8.7792   7.9924  -0.6283   H         1 RES1   0.0000
    84 H38     16.4181   6.7160   5.0900   H         1 RES1   0.0000
@<TRIPOS>BOND
     1     1    18    2
     2     2     3    1
     3     3    13    1
     4     4     2    1
     5     5    15    1
     6     6    33    1
     7     7     2    1
     8     8     2    1
     9     9     2    1
    10    10     2    1
    11    11    12    1
    12    13    15   ar
    13    14     4    1
    14    15    26   ar
    15    16     9    1
    16    17    13   ar
    17    18    10    2
    18    19    17   ar
    19    20    19    1
    20    21    16   ar
    21    22    21    1
    22    23    14   ar
    23    24     7    2
    24    25    24    1
    25    26    27    1
    26    28     8    1
    27    29    28    1
    28    30    28    1
    29    31    16   ar
    30    32    31    1
    31    33    14   ar
    32    34     8    2
    33    35    34    1
    34    36     9    1
    35    37    36    1
    36    38    36    1
    37    39    31   ar
    38    40    39    1
    39    41    19   ar
    40    42    41    1
    41    43    11    1
    42    44    43    1
    43    45    43    1
    44    46    39   ar
    45    47    46    1
    46    48    33   ar
    47    49    48    1
    48    50     7    1
    49    51    50    1
    50    52    50    1
    51    53    21   ar
    52    54    53    1
    53    55     5    1
    54    56    55    1
    55    57    55    1
    56    58    55    1
    57    59    58    1
    58    60    58    1
    59    61    58    1
    60    62    63    1
    61    64    62    1
    62    65    62    1
    63    66    23   ar
    64    67    66    1
    65    68    11    1
    66    69    48   ar
    67    70    69    1
    68    71     6    1
    69    72    71    1
    70    73    71    1
    71    74    68   ar
    72    75    74    1
    73    76    68   ar
    74    77    76    1
    75    78    74   ar
    76    79    78    1
    77    80    76   ar
    78    81    80    1
    79    82    78   ar
    80    83    82    1
    81    84     9    1
    82    17    34    1
    83    23    24    1
    84    26    41   ar
    85    28    36    1
    86    43    50    1
    87    46    53   ar
    88    62    71    1
    89    66    69   ar
    90    80    82   ar
@<TRIPOS>SUBSTRUCTURE
     1 RES1        1 GROUP             0 ****  ****    0  
