@<TRIPOS>MOLECULE
HISXUG
    84    90     1     0     0
SMALL
NO_CHARGES
****
Generated from the CSD

@<TRIPOS>ATOM
     1 Fe1     19.2664  13.0020   4.6288   Fe        1 RES1   0.0000
     2 S1      16.6279   9.8373   2.1098   S.2       1 RES1   0.0000
     3 O1      17.7945  14.1570   5.0133   O.3       1 RES1   0.0000
     4 O2      20.7375  13.9045   5.4600   O.3       1 RES1   0.0000
     5 O3      15.7305  15.7551   4.6151   O.3       1 RES1   0.0000
     6 N1      20.8656  11.2773   4.7160   N.pl3     1 RES1   0.0000
     7 N2      18.8502  12.0223   6.4343   N.2       1 RES1   0.0000
     8 N3      19.7849  14.0380   2.8586   N.2       1 RES1   0.0000
     9 O4      22.0519  15.0132   7.4355   O.3       1 RES1   0.0000
    10 N4      18.1838  11.5985   3.5902   N.2       1 RES1   0.0000
    11 N5      17.5753  15.6284   1.8447   N.pl3     1 RES1   0.0000
    12 H1      17.0614  15.8562   2.5085   H         1 RES1   0.0000
    13 C1      21.2905  10.7661   3.4596   C.ar      1 RES1   0.0000
    14 C2      16.6884  13.8938   5.6875   C.ar      1 RES1   0.0000
    15 C3      17.5375  10.8538   2.9798   C.1       1 RES1   0.0000
    16 C4      21.1992  15.1121   5.2560   C.ar      1 RES1   0.0000
    17 C5      17.7074  12.0314   7.0091   C.2       1 RES1   0.0000
    18 H2      17.5887  11.4555   7.7424   H         1 RES1   0.0000
    19 C6      15.5535  14.7327   5.4789   C.ar      1 RES1   0.0000
    20 C7      16.5866  12.8516   6.6242   C.ar      1 RES1   0.0000
    21 C8      21.9298  15.7494   6.3004   C.ar      1 RES1   0.0000
    22 C9      20.4186  15.1633   2.9035   C.2       1 RES1   0.0000
    23 H3      20.4765  15.6375   2.0938   H         1 RES1   0.0000
    24 C10     21.0454  15.7771   4.0403   C.ar      1 RES1   0.0000
    25 C11     19.9096  11.1541   6.9294   C.3       1 RES1   0.0000
    26 H4      19.5631  10.5611   7.6285   H         1 RES1   0.0000
    27 H5      20.6379  11.6894   7.3080   H         1 RES1   0.0000
    28 C12     22.1560  11.5315   2.7085   C.ar      1 RES1   0.0000
    29 H6      22.4972  12.3329   3.0614   H         1 RES1   0.0000
    30 C13     20.4140  10.3392   5.7528   C.3       1 RES1   0.0000
    31 H7      21.1562   9.7645   6.0344   H         1 RES1   0.0000
    32 H8      19.6963   9.7705   5.4041   H         1 RES1   0.0000
    33 C14     15.3686  12.6263   7.2990   C.ar      1 RES1   0.0000
    34 H9      15.3058  11.9372   7.9356   H         1 RES1   0.0000
    35 C15     14.3756  14.4559   6.1402   C.ar      1 RES1   0.0000
    36 H10     13.6221  14.9943   5.9789   H         1 RES1   0.0000
    37 C16     20.8138   9.5628   2.9518   C.ar      1 RES1   0.0000
    38 H11     20.2338   9.0252   3.4603   H         1 RES1   0.0000
    39 C17     19.1691  13.7188   1.5590   C.3       1 RES1   0.0000
    40 H12     19.1776  12.7490   1.4175   H         1 RES1   0.0000
    41 H13     19.6829  14.1378   0.8369   H         1 RES1   0.0000
    42 C18     17.7221  14.2348   1.5336   C.3       1 RES1   0.0000
    43 H14     17.3483  14.0729   0.6422   H         1 RES1   0.0000
    44 H15     17.1939  13.7145   2.1745   H         1 RES1   0.0000
    45 C19     21.2111   9.1687   1.6785   C.ar      1 RES1   0.0000
    46 H16     20.8939   8.3555   1.3294   H         1 RES1   0.0000
    47 C20     14.2755  13.4103   7.0303   C.ar      1 RES1   0.0000
    48 H17     13.4559  13.2329   7.4545   H         1 RES1   0.0000
    49 C21     21.5552  17.0851   3.8776   C.ar      1 RES1   0.0000
    50 H18     21.4476  17.5357   3.0598   H         1 RES1   0.0000
    51 C22     18.2132  16.6140   1.1377   C.ar      1 RES1   0.0000
    52 C23     22.5281  11.1272   1.4335   C.ar      1 RES1   0.0000
    53 H19     23.1033  11.6642   0.9193   H         1 RES1   0.0000
    54 C24     22.4017  17.0217   6.1080   C.ar      1 RES1   0.0000
    55 H20     22.8695  17.4489   6.8028   H         1 RES1   0.0000
    56 C25     22.0539   9.9386   0.9206   C.ar      1 RES1   0.0000
    57 H21     22.3068   9.6590   0.0598   H         1 RES1   0.0000
    58 C26     14.6159  16.6632   4.4464   C.3       1 RES1   0.0000
    59 H22     14.3437  17.0316   5.3127   H         1 RES1   0.0000
    60 H23     13.8510  16.1927   4.0538   H         1 RES1   0.0000
    61 C27     18.5149  17.8284   1.7599   C.ar      1 RES1   0.0000
    62 H24     18.2601  17.9681   2.6540   H         1 RES1   0.0000
    63 C28     18.5723  16.4622  -0.2162   C.ar      1 RES1   0.0000
    64 H25     18.3561  15.6708  -0.6752   H         1 RES1   0.0000
    65 C29     22.2046  17.6907   4.9135   C.ar      1 RES1   0.0000
    66 H26     22.5207  18.5703   4.8147   H         1 RES1   0.0000
    67 C30     15.0734  17.7611   3.5359   C.3       1 RES1   0.0000
    68 H27     15.3639  17.3814   2.6917   H         1 RES1   0.0000
    69 H28     15.8118  18.2364   3.9477   H         1 RES1   0.0000
    70 H29     14.3405  18.3768   3.3778   H         1 RES1   0.0000
    71 C31     22.9748  15.4554   8.4494   C.3       1 RES1   0.0000
    72 H30     22.8189  14.9499   9.2745   H         1 RES1   0.0000
    73 H31     22.8185  16.4036   8.6407   H         1 RES1   0.0000
    74 C32     19.1827  18.8248   1.0775   C.ar      1 RES1   0.0000
    75 H32     19.3806  19.6341   1.5129   H         1 RES1   0.0000
    76 C33     19.2432  17.4789  -0.8689   C.ar      1 RES1   0.0000
    77 H33     19.4859  17.3679  -1.7702   H         1 RES1   0.0000
    78 C34     19.5604  18.6466  -0.2289   C.ar      1 RES1   0.0000
    79 H34     20.0342  19.3204  -0.6815   H         1 RES1   0.0000
    80 C35     24.3746  15.2665   8.0154   C.3       1 RES1   0.0000
    81 H35     24.5609  15.8481   7.2619   H         1 RES1   0.0000
    82 H36     24.5098  14.3428   7.7522   H         1 RES1   0.0000
    83 H37     24.9724  15.4847   8.7477   H         1 RES1   0.0000
    84 H38     21.4147  11.6941   5.0186   H         1 RES1   0.0000
@<TRIPOS>BOND
     1     1     3    1
     2     2    15    2
     3     3    14    1
     4     4     1    1
     5     5    19    1
     6     6     1    1
     7     7     1    1
     8     8     1    1
     9     9    21    1
    10    10     1    1
    11    11    12    1
    12    13     6    1
    13    14    19   ar
    14    15    10    2
    15    16     4    1
    16    17     7    2
    17    18    17    1
    18    19    35   ar
    19    20    14   ar
    20    21    16   ar
    21    22     8    2
    22    23    22    1
    23    24    16   ar
    24    25     7    1
    25    26    25    1
    26    27    25    1
    27    28    13   ar
    28    29    28    1
    29    30     6    1
    30    31    30    1
    31    32    30    1
    32    33    20   ar
    33    34    33    1
    34    35    36    1
    35    37    13   ar
    36    38    37    1
    37    39     8    1
    38    40    39    1
    39    41    39    1
    40    42    11    1
    41    43    42    1
    42    44    42    1
    43    45    37   ar
    44    46    45    1
    45    47    33   ar
    46    48    47    1
    47    49    24   ar
    48    50    49    1
    49    51    11    1
    50    52    28   ar
    51    53    52    1
    52    54    21   ar
    53    55    54    1
    54    56    45   ar
    55    57    56    1
    56    58     5    1
    57    59    58    1
    58    60    58    1
    59    61    51   ar
    60    62    61    1
    61    63    51   ar
    62    64    63    1
    63    65    49   ar
    64    66    65    1
    65    67    58    1
    66    68    67    1
    67    69    67    1
    68    70    67    1
    69    71     9    1
    70    72    71    1
    71    73    71    1
    72    74    61   ar
    73    75    74    1
    74    76    63   ar
    75    77    76    1
    76    78    74   ar
    77    79    78    1
    78    80    71    1
    79    81    80    1
    80    82    80    1
    81    83    80    1
    82    84     6    1
    83    17    20    1
    84    22    24    1
    85    25    30    1
    86    35    47   ar
    87    39    42    1
    88    52    56   ar
    89    54    65   ar
    90    76    78   ar
@<TRIPOS>SUBSTRUCTURE
     1 RES1        1 GROUP             0 ****  ****    0  
