@<TRIPOS>MOLECULE
HIVXAN
    75    80     3     0     0
SMALL
USER_CHARGES
****
Generated from the CSD

@<TRIPOS>ATOM
     1 Fe1      7.8059   3.6942   3.8121   Fe        1 RES1   2.0000
     2 S1       9.0733   4.3531   2.0288   S.3       1 RES1   0.0000
     3 C1      12.8068   3.7927   0.6186   C.1       1 RES1   0.0000
     4 C2      11.5329   4.4469   0.8742   C.3       1 RES1   0.0000
     5 H1      10.9865   4.4382   0.0489   H         1 RES1   0.0000
     6 H2      11.6924   5.3912   1.1253   H         1 RES1   0.0000
     7 C3      10.7640   3.7418   2.0015   C.3       1 RES1   0.0000
     8 H3      11.2019   3.9229   2.8716   H         1 RES1   0.0000
     9 H4      10.7665   2.7636   1.8493   H         1 RES1   0.0000
    10 C4       8.3029   3.5413   0.6453   C.ar      1 RES1   0.0000
    11 C5       8.9444   2.6279  -0.1848   C.ar      1 RES1   0.0000
    12 H5       9.8520   2.3956  -0.0296   H         1 RES1   0.0000
    13 C6       8.2492   2.0574  -1.2427   C.ar      1 RES1   0.0000
    14 H6       8.6781   1.4239  -1.8055   H         1 RES1   0.0000
    15 C7       6.9335   2.4086  -1.4784   C.ar      1 RES1   0.0000
    16 H7       6.4694   2.0358  -2.2196   H         1 RES1   0.0000
    17 C8       6.2872   3.3007  -0.6391   C.ar      1 RES1   0.0000
    18 H8       5.3813   3.5337  -0.8063   H         1 RES1   0.0000
    19 C9       6.9549   3.8610   0.4504   C.ar      1 RES1   0.0000
    20 C10      6.2204   4.7068   1.4579   C.3       1 RES1   0.0000
    21 H9       6.6987   5.5648   1.5818   H         1 RES1   0.0000
    22 H10      5.3109   4.9069   1.1227   H         1 RES1   0.0000
    23 C11      5.4685   2.6482   2.5796   C.3       1 RES1   0.0000
    24 H11      4.8469   2.4678   3.3282   H         1 RES1   0.0000
    25 H12      4.9473   2.6511   1.7374   H         1 RES1   0.0000
    26 C12      6.5194   1.5766   2.5225   C.ar      1 RES1   0.0000
    27 C13      6.3015   0.3561   1.8903   C.ar      1 RES1   0.0000
    28 H13      5.4814   0.1853   1.4416   H         1 RES1   0.0000
    29 C14      7.2971  -0.6072   1.9242   C.ar      1 RES1   0.0000
    30 H14      7.1638  -1.4521   1.5111   H         1 RES1   0.0000
    31 C15      8.4846  -0.3249   2.5654   C.ar      1 RES1   0.0000
    32 H15      9.1814  -0.9698   2.5926   H         1 RES1   0.0000
    33 C16      8.6493   0.9092   3.1699   C.ar      1 RES1   0.0000
    34 H16      9.4711   1.1022   3.6072   H         1 RES1   0.0000
    35 C17      5.4010   4.8432   3.7841   C.3       1 RES1   0.0000
    36 H17      4.4980   5.1358   3.4709   H         1 RES1   0.0000
    37 C18      6.3254   6.0034   4.0924   C.ar      1 RES1   0.0000
    38 C19      5.9331   7.3164   4.2839   C.ar      1 RES1   0.0000
    39 H18      5.0276   7.5802   4.1679   H         1 RES1   0.0000
    40 C20      6.9046   8.2359   4.6513   C.ar      1 RES1   0.0000
    41 H19      6.6735   9.1460   4.7942   H         1 RES1   0.0000
    42 C21      8.2129   7.8140   4.8081   C.ar      1 RES1   0.0000
    43 H20      8.8852   8.4334   5.0656   H         1 RES1   0.0000
    44 C22      8.5384   6.4920   4.5891   C.ar      1 RES1   0.0000
    45 H21      9.4416   6.2128   4.6810   H         1 RES1   0.0000
    46 C23      5.3502   4.0398   5.0551   C.ar      1 RES1   0.0000
    47 C24      4.3054   4.0415   5.9498   C.ar      1 RES1   0.0000
    48 H22      3.5177   4.5454   5.7819   H         1 RES1   0.0000
    49 C25      4.4377   3.2837   7.1066   C.ar      1 RES1   0.0000
    50 H23      3.7429   3.2699   7.7546   H         1 RES1   0.0000
    51 C26      5.5943   2.5496   7.3024   C.ar      1 RES1   0.0000
    52 H24      5.6912   2.0104   8.0787   H         1 RES1   0.0000
    53 C27      6.6102   2.6041   6.3612   C.ar      1 RES1   0.0000
    54 H25      7.4031   2.1013   6.5046   H         1 RES1   0.0000
    55 C28     10.2559   3.3991   5.6256   C.1       1 RES1   0.0000
    56 C29     11.4340   3.3717   6.4871   C.3       1 RES1   0.0000
    57 H26     12.1598   2.8952   6.0326   H         1 RES1   0.0000
    58 H27     11.2162   2.9115   7.3251   H         1 RES1   0.0000
    59 H28     11.7166   4.2889   6.6821   H         1 RES1   0.0000
    60 N1      13.7881   3.2622   0.3850   N.1       1 RES1   0.0000
    61 N2       6.1245   3.9878   2.7757   N.3       1 RES1   0.0000
    62 N3       7.6786   1.8488   3.1582   N.ar      1 RES1   0.0000
    63 N4       7.6001   5.5910   4.2470   N.ar      1 RES1   0.0000
    64 N5       6.4989   3.3489   5.2574   N.ar      1 RES1   0.0000
    65 N6       9.3421   3.4478   4.9474   N.1       1 RES1   0.0000
    66 B1       2.1544   0.9876   3.7798   B         2 RES2  -1.0000
    67 F1       1.1210   0.6324   2.9365   F         2 RES2   0.0000
    68 F2       1.8344   0.6233   5.0901   F         2 RES2   0.0000
    69 F3       3.3223   0.3403   3.4078   F         2 RES2   0.0000
    70 F4       2.3385   2.3574   3.7385   F         2 RES2   0.0000
    71 B2       2.9422   6.4380   9.2772   B         3 RES3  -1.0000
    72 F5       3.2002   7.5300   8.4881   F         3 RES3   0.0000
    73 F6       2.3431   5.4369   8.5385   F         3 RES3   0.0000
    74 F7       4.1133   5.9936   9.8337   F         3 RES3   0.0000
    75 F8       2.0657   6.8319  10.2977   F         3 RES3   0.0000
@<TRIPOS>BOND
     1     1     2    1
     2     2     7    1
     3     3     4    1
     4     4     5    1
     5     6     4    1
     6     7     4    1
     7     8     7    1
     8     9     7    1
     9    10     2    1
    10    11    10   ar
    11    12    11    1
    12    13    11   ar
    13    14    13    1
    14    15    13   ar
    15    16    15    1
    16    17    15   ar
    17    18    17    1
    18    19    10   ar
    19    20    19    1
    20    21    20    1
    21    22    20    1
    22    23    24    1
    23    25    23    1
    24    26    23    1
    25    27    26   ar
    26    28    27    1
    27    29    27   ar
    28    30    29    1
    29    31    29   ar
    30    32    31    1
    31    33    31   ar
    32    34    33    1
    33    35    36    1
    34    37    35    1
    35    38    37   ar
    36    39    38    1
    37    40    38   ar
    38    41    40    1
    39    42    40   ar
    40    43    42    1
    41    44    42   ar
    42    45    44    1
    43    46    35    1
    44    47    46   ar
    45    48    47    1
    46    49    47   ar
    47    50    49    1
    48    51    49   ar
    49    52    51    1
    50    53    51   ar
    51    54    53    1
    52    55    56    1
    53    56    57    1
    54    58    56    1
    55    59    56    1
    56    60     3    3
    57    61     1    1
    58    62     1    1
    59    63     1    1
    60    64     1    1
    61    65     1    1
    62    17    19   ar
    63    20    61    1
    64    23    61    1
    65    26    62   ar
    66    33    62   ar
    67    35    61    1
    68    37    63   ar
    69    44    63   ar
    70    46    64   ar
    71    53    64   ar
    72    55    65    3
    73    66    67    1
    74    68    66    1
    75    69    66    1
    76    70    66    1
    77    71    72    1
    78    73    71    1
    79    74    71    1
    80    75    71    1
@<TRIPOS>SUBSTRUCTURE
     1 RES1        1 GROUP             0 ****  ****    0  
     2 RES2       66 GROUP             0 ****  ****    0  
     3 RES3       71 GROUP             0 ****  ****    0  
@<TRIPOS>CRYSIN
   10.6689   12.0355   13.0403   80.5885   88.0024   68.5430     2     1
