@<TRIPOS>MOLECULE
HIWMAE
   157   162     1     0     0
SMALL
NO_CHARGES
****
Generated from the CSD

@<TRIPOS>ATOM
     1 Fe1      0.9557  10.2045  17.8475   Fe        1 RES1   0.0000
     2 P1       1.4479  12.6476  17.6757   P.3       1 RES1   0.0000
     3 Si1     -0.4735  11.8606  17.0330   Si        1 RES1   0.0000
     4 Si2      2.7226  11.2076  16.5779   Si        1 RES1   0.0000
     5 O1       2.7728   9.3979  20.0001   O.2       1 RES1   0.0000
     6 O2      -1.4453   9.1816  19.1413   O.2       1 RES1   0.0000
     7 O3       1.2727   7.7322  16.3725   O.2       1 RES1   0.0000
     8 N1      -2.9344  13.3299  18.0123   N.pl3     1 RES1   0.0000
     9 N2      -1.7440  12.5958  19.6611   N.pl3     1 RES1   0.0000
    10 C1      -1.7586  12.6988  18.3005   C.3       1 RES1   0.0000
    11 C2      -3.6620  13.5670  19.1766   C.2       1 RES1   0.0000
    12 C3      -2.9149  13.1098  20.1979   C.2       1 RES1   0.0000
    13 C4      -3.1917  14.0792  16.7461   C.3       1 RES1   0.0000
    14 H1      -2.4898  13.7991  16.0919   H         1 RES1   0.0000
    15 C5      -2.9944  15.5602  17.0021   C.3       1 RES1   0.0000
    16 H2      -3.7264  15.8962  17.5591   H         1 RES1   0.0000
    17 H3      -2.9878  16.0409  16.1495   H         1 RES1   0.0000
    18 H4      -2.1409  15.7018  17.4648   H         1 RES1   0.0000
    19 C6      -4.5413  13.7727  16.1102   C.3       1 RES1   0.0000
    20 H5      -4.6859  12.8035  16.1024   H         1 RES1   0.0000
    21 H6      -4.5526  14.1118  15.1906   H         1 RES1   0.0000
    22 H7      -5.2518  14.2067  16.6264   H         1 RES1   0.0000
    23 C7      -5.0469  14.1290  19.2330   C.3       1 RES1   0.0000
    24 H8      -5.6659  13.5176  18.7826   H         1 RES1   0.0000
    25 H9      -5.0642  15.0002  18.7826   H         1 RES1   0.0000
    26 H10     -5.3171  14.2394  20.1686   H         1 RES1   0.0000
    27 C8      -3.2756  13.1006  21.6381   C.3       1 RES1   0.0000
    28 H11     -4.0698  13.6576  21.7799   H         1 RES1   0.0000
    29 H12     -2.5296  13.4584  22.1650   H         1 RES1   0.0000
    30 H13     -3.4642  12.1828  21.9213   H         1 RES1   0.0000
    31 C9      -0.5363  12.2932  20.4748   C.3       1 RES1   0.0000
    32 H14      0.1378  11.8934  19.8542   H         1 RES1   0.0000
    33 C10      0.0648  13.5907  20.9962   C.3       1 RES1   0.0000
    34 H15      0.2893  14.1725  20.2419   H         1 RES1   0.0000
    35 H16      0.8762  13.3916  21.5074   H         1 RES1   0.0000
    36 H17     -0.5849  14.0418  21.5755   H         1 RES1   0.0000
    37 C11     -0.7863  11.2633  21.5700   C.3       1 RES1   0.0000
    38 H18     -1.1017  11.7176  22.3798   H         1 RES1   0.0000
    39 H19      0.0462  10.7857  21.7668   H         1 RES1   0.0000
    40 H20     -1.4658  10.6255  21.2690   H         1 RES1   0.0000
    41 C12     -1.3751  11.9097  15.3596   C.ar      1 RES1   0.0000
    42 C13     -2.4844  11.0566  15.1623   C.ar      1 RES1   0.0000
    43 C14     -3.2467  11.1537  13.9998   C.ar      1 RES1   0.0000
    44 H21     -3.9830  10.5664  13.8780   H         1 RES1   0.0000
    45 C15     -2.9529  12.0876  13.0179   C.ar      1 RES1   0.0000
    46 C16     -1.8424  12.8912  13.2039   C.ar      1 RES1   0.0000
    47 H22     -1.6297  13.5253  12.5287   H         1 RES1   0.0000
    48 C17     -1.0207  12.8215  14.3276   C.ar      1 RES1   0.0000
    49 C18     -2.8602   9.9743  16.1584   C.3       1 RES1   0.0000
    50 H23     -2.4605  10.2257  17.0403   H         1 RES1   0.0000
    51 C19     -4.3586   9.7854  16.3704   C.3       1 RES1   0.0000
    52 H24     -4.7614  10.6379  16.6368   H         1 RES1   0.0000
    53 H25     -4.5082   9.1196  17.0744   H         1 RES1   0.0000
    54 H26     -4.7708   9.4758  15.5365   H         1 RES1   0.0000
    55 C20     -2.2315   8.6497  15.7285   C.3       1 RES1   0.0000
    56 H27     -2.6326   8.3573  14.8841   H         1 RES1   0.0000
    57 H28     -2.3909   7.9730  16.4194   H         1 RES1   0.0000
    58 H29     -1.2659   8.7711  15.6072   H         1 RES1   0.0000
    59 C21     -3.8436  12.2512  11.8032   C.3       1 RES1   0.0000
    60 H30     -3.3176  12.7397  11.1061   H         1 RES1   0.0000
    61 C22     -5.0508  13.1069  12.1520   C.3       1 RES1   0.0000
    62 H31     -5.6303  12.6184  12.7724   H         1 RES1   0.0000
    63 H32     -5.5509  13.3153  11.3340   H         1 RES1   0.0000
    64 H33     -4.7506  13.9392  12.5733   H         1 RES1   0.0000
    65 C23     -4.2898  10.9273  11.1980   C.3       1 RES1   0.0000
    66 H34     -3.5075  10.3564  11.0484   H         1 RES1   0.0000
    67 H35     -4.7392  11.0953  10.3437   H         1 RES1   0.0000
    68 H36     -4.9080  10.4793  11.8108   H         1 RES1   0.0000
    69 C24      0.2029  13.7270  14.4122   C.3       1 RES1   0.0000
    70 H37      0.9124  13.2204  14.8998   H         1 RES1   0.0000
    71 C25     -0.0868  14.9885  15.2202   C.3       1 RES1   0.0000
    72 H38     -0.8364  15.4715  14.8133   H         1 RES1   0.0000
    73 H39      0.7076  15.5618  15.2273   H         1 RES1   0.0000
    74 H40     -0.3198  14.7419  16.1390   H         1 RES1   0.0000
    75 C26      0.7803  14.1165  13.0548   C.3       1 RES1   0.0000
    76 H41      0.8547  13.3184  12.4920   H         1 RES1   0.0000
    77 H42      1.6676  14.5132  13.1785   H         1 RES1   0.0000
    78 H43      0.1875  14.7668  12.6230   H         1 RES1   0.0000
    79 C27      3.0388  11.5208  14.7051   C.ar      1 RES1   0.0000
    80 C28      2.5075  10.7966  13.5985   C.ar      1 RES1   0.0000
    81 C29      2.9287  11.1123  12.3115   C.ar      1 RES1   0.0000
    82 H44      2.5847  10.6022  11.5881   H         1 RES1   0.0000
    83 C30      3.8148  12.1230  12.0304   C.ar      1 RES1   0.0000
    84 C31      4.3255  12.8376  13.1062   C.ar      1 RES1   0.0000
    85 H45      4.9430  13.5393  12.9401   H         1 RES1   0.0000
    86 C32      3.9627  12.5586  14.4143   C.ar      1 RES1   0.0000
    87 C33      1.4794   9.6793  13.7106   C.3       1 RES1   0.0000
    88 H46      1.1665   9.6438  14.6614   H         1 RES1   0.0000
    89 C34      0.2540   9.9099  12.8229   C.3       1 RES1   0.0000
    90 H47     -0.0983  10.8106  12.9794   H         1 RES1   0.0000
    91 H48     -0.4355   9.2487  13.0396   H         1 RES1   0.0000
    92 H49      0.5107   9.8181  11.8816   H         1 RES1   0.0000
    93 C35      2.0845   8.3160  13.3650   C.3       1 RES1   0.0000
    94 H50      2.3895   8.3199  12.4344   H         1 RES1   0.0000
    95 H51      1.4075   7.6183  13.4824   H         1 RES1   0.0000
    96 H52      2.8459   8.1364  13.9566   H         1 RES1   0.0000
    97 C36      4.1924  12.5095  10.6154   C.3       1 RES1   0.0000
    98 H53      3.7665  11.8545   9.9926   H         1 RES1   0.0000
    99 C37      3.6321  13.9018  10.2968   C.3       1 RES1   0.0000
   100 H54      2.6639  13.9080  10.4537   H         1 RES1   0.0000
   101 H55      3.8122  14.1212   9.3586   H         1 RES1   0.0000
   102 H56      4.0601  14.5677  10.8755   H         1 RES1   0.0000
   103 C38      5.6954  12.4690  10.3872   C.3       1 RES1   0.0000
   104 H57      6.1348  13.1053  10.9908   H         1 RES1   0.0000
   105 H58      5.8914  12.7117   9.4581   H         1 RES1   0.0000
   106 H59      6.0285  11.5651  10.5664   H         1 RES1   0.0000
   107 C39      4.6038  13.4628  15.4607   C.3       1 RES1   0.0000
   108 H60      4.2986  13.1411  16.3565   H         1 RES1   0.0000
   109 C40      4.1288  14.9077  15.3132   C.3       1 RES1   0.0000
   110 H61      4.5300  15.4575  16.0185   H         1 RES1   0.0000
   111 H62      3.1527  14.9395  15.3897   H         1 RES1   0.0000
   112 H63      4.3981  15.2522  14.4361   H         1 RES1   0.0000
   113 C41      6.1218  13.3620  15.4390   C.3       1 RES1   0.0000
   114 H64      6.3911  12.4348  15.6072   H         1 RES1   0.0000
   115 H65      6.4987  13.9407  16.1338   H         1 RES1   0.0000
   116 H66      6.4561  13.6436  14.5618   H         1 RES1   0.0000
   117 C42      4.4097  10.8713  17.4561   C.ar      1 RES1   0.0000
   118 C43      4.9497  11.6294  18.5479   C.ar      1 RES1   0.0000
   119 C44      6.0504  11.1309  19.2500   C.ar      1 RES1   0.0000
   120 H67      6.3741  11.6320  19.9904   H         1 RES1   0.0000
   121 C45      6.6951   9.9508  18.9298   C.ar      1 RES1   0.0000
   122 C46      6.2162   9.2663  17.8221   C.ar      1 RES1   0.0000
   123 H68      6.6610   8.4724  17.5460   H         1 RES1   0.0000
   124 C47      5.1131   9.6981  17.1032   C.ar      1 RES1   0.0000
   125 C48      4.4039  12.9682  19.0318   C.3       1 RES1   0.0000
   126 H69      3.7337  13.2795  18.3582   H         1 RES1   0.0000
   127 C49      5.4834  14.0502  19.1418   C.3       1 RES1   0.0000
   128 H70      6.1060  13.8178  19.8620   H         1 RES1   0.0000
   129 H71      5.0614  14.9130  19.3407   H         1 RES1   0.0000
   130 H72      5.9710  14.1134  18.2953   H         1 RES1   0.0000
   131 C50      3.6819  12.8331  20.3690   C.3       1 RES1   0.0000
   132 H73      2.9516  12.1843  20.2812   H         1 RES1   0.0000
   133 H74      3.3162  13.7027  20.6323   H         1 RES1   0.0000
   134 H75      4.3130  12.5235  21.0515   H         1 RES1   0.0000
   135 C51      7.8280   9.3918  19.7722   C.3       1 RES1   0.0000
   136 H76      8.2330   8.6342  19.2594   H         1 RES1   0.0000
   137 C52      7.2994   8.8224  21.0730   C.3       1 RES1   0.0000
   138 H77      8.0335   8.4008  21.5676   H         1 RES1   0.0000
   139 H78      6.6090   8.1535  20.8812   H         1 RES1   0.0000
   140 H79      6.9140   9.5427  21.6122   H         1 RES1   0.0000
   141 C53      8.9341  10.3968  20.0357   C.3       1 RES1   0.0000
   142 H80      9.2240  10.7935  19.1887   H         1 RES1   0.0000
   143 H81      9.6914   9.9441  20.4620   H         1 RES1   0.0000
   144 H82      8.5991  11.1015  20.6297   H         1 RES1   0.0000
   145 C54      4.6967   8.8588  15.8925   C.3       1 RES1   0.0000
   146 H83      3.7777   9.1476  15.6229   H         1 RES1   0.0000
   147 C55      4.6467   7.3601  16.1870   C.3       1 RES1   0.0000
   148 H84      5.5542   7.0303  16.3565   H         1 RES1   0.0000
   149 H85      4.2653   6.8871  15.4186   H         1 RES1   0.0000
   150 H86      4.0891   7.1998  16.9774   H         1 RES1   0.0000
   151 C56      5.6427   9.1522  14.7240   C.3       1 RES1   0.0000
   152 H87      5.6218  10.1106  14.5199   H         1 RES1   0.0000
   153 H88      5.3582   8.6435  13.9356   H         1 RES1   0.0000
   154 H89      6.5560   8.8909  14.9679   H         1 RES1   0.0000
   155 C57      2.0957   9.7664  19.1473   C.1       1 RES1   0.0000
   156 C58     -0.5013   9.6536  18.6637   C.1       1 RES1   0.0000
   157 C59      1.1453   8.7642  16.8784   C.1       1 RES1   0.0000
@<TRIPOS>BOND
     1     1     2    1
     2     2     3    1
     3     3     1    1
     4     4     1    1
     5     5   155    3
     6     6   156    3
     7     7   157    3
     8     8    10    1
     9     9    10    1
    10    10     3    1
    11    11     8    1
    12    12     9    1
    13    13     8    1
    14    14    13    1
    15    15    13    1
    16    16    15    1
    17    17    15    1
    18    18    15    1
    19    19    13    1
    20    20    19    1
    21    21    19    1
    22    22    19    1
    23    23    11    1
    24    24    23    1
    25    25    23    1
    26    26    23    1
    27    27    12    1
    28    28    27    1
    29    29    27    1
    30    30    27    1
    31    31     9    1
    32    32    31    1
    33    33    31    1
    34    34    33    1
    35    35    33    1
    36    36    33    1
    37    37    31    1
    38    38    37    1
    39    39    37    1
    40    40    37    1
    41    41     3    1
    42    42    41   ar
    43    43    42   ar
    44    44    43    1
    45    45    43   ar
    46    46    45   ar
    47    47    46    1
    48    48    41   ar
    49    49    42    1
    50    50    49    1
    51    51    49    1
    52    52    51    1
    53    53    51    1
    54    54    51    1
    55    55    49    1
    56    56    55    1
    57    57    55    1
    58    58    55    1
    59    59    45    1
    60    60    59    1
    61    61    59    1
    62    62    61    1
    63    63    61    1
    64    64    61    1
    65    65    59    1
    66    66    65    1
    67    67    65    1
    68    68    65    1
    69    69    48    1
    70    70    69    1
    71    71    69    1
    72    72    71    1
    73    73    71    1
    74    74    71    1
    75    75    69    1
    76    76    75    1
    77    77    75    1
    78    78    75    1
    79    79     4    1
    80    80    79   ar
    81    81    80   ar
    82    82    81    1
    83    83    81   ar
    84    84    83   ar
    85    85    84    1
    86    86    79   ar
    87    87    80    1
    88    88    87    1
    89    89    87    1
    90    90    89    1
    91    91    89    1
    92    92    89    1
    93    93    87    1
    94    94    93    1
    95    95    93    1
    96    96    93    1
    97    97    83    1
    98    98    97    1
    99    99    97    1
   100   100    99    1
   101   101    99    1
   102   102    99    1
   103   103    97    1
   104   104   103    1
   105   105   103    1
   106   106   103    1
   107   107    86    1
   108   108   107    1
   109   109   107    1
   110   110   109    1
   111   111   109    1
   112   112   109    1
   113   113   107    1
   114   114   113    1
   115   115   113    1
   116   116   113    1
   117   117     4    1
   118   118   117   ar
   119   119   118   ar
   120   120   119    1
   121   121   119   ar
   122   122   121   ar
   123   123   122    1
   124   124   117   ar
   125   125   118    1
   126   126   125    1
   127   127   125    1
   128   128   127    1
   129   129   127    1
   130   130   127    1
   131   131   125    1
   132   132   131    1
   133   133   131    1
   134   134   131    1
   135   135   121    1
   136   136   135    1
   137   137   135    1
   138   138   137    1
   139   139   137    1
   140   140   137    1
   141   141   135    1
   142   142   141    1
   143   143   141    1
   144   144   141    1
   145   145   124    1
   146   146   145    1
   147   147   145    1
   148   148   147    1
   149   149   147    1
   150   150   147    1
   151   151   145    1
   152   152   151    1
   153   153   151    1
   154   154   151    1
   155   155     1    1
   156   156     1    1
   157   157     1    1
   158     2     4    1
   159    11    12    2
   160    46    48   ar
   161    84    86   ar
   162   122   124   ar
@<TRIPOS>SUBSTRUCTURE
     1 RES1        1 GROUP             0 ****  ****    0  
@<TRIPOS>CRYSIN
   14.1247   15.5571   26.3640   90.0000   96.3990   90.0000    14     1
