@<TRIPOS>MOLECULE
HIXDUQ
   132   139     7     0     0
SMALL
USER_CHARGES
****
Generated from the CSD

@<TRIPOS>ATOM
     1 Fe1     13.8092   3.3398   6.7055   Fe        1 RES1   0.0000
     2 N1      15.3069   3.9851   5.6328   N.2       1 RES1   0.0000
     3 N2      16.6798   3.5396   3.8504   N.2       1 RES1   0.0000
     4 N3      11.5049   2.4101   8.3846   N.2       1 RES1   0.0000
     5 N4      12.5204   4.3695   5.6314   N.2       1 RES1   0.0000
     6 N5      11.1769   6.2220   5.5838   N.2       1 RES1   0.0000
     7 C1      16.1562   5.0651   5.4819   C.ar      1 RES1   0.0000
     8 C2      16.2281   6.2819   6.1725   C.ar      1 RES1   0.0000
     9 H1      15.6683   6.4688   6.9165   H         1 RES1   0.0000
    10 C3      17.1570   7.1951   5.7130   C.ar      1 RES1   0.0000
    11 H2      17.2237   8.0380   6.1445   H         1 RES1   0.0000
    12 N6      13.9776   1.8538   5.5118   N.ar      1 RES1   0.0000
    13 C4      18.0069   6.9190   4.6280   C.ar      1 RES1   0.0000
    14 H3      18.6339   7.5763   4.3503   H         1 RES1   0.0000
    15 N7      12.4025   2.2512   7.4070   N.2       1 RES1   0.0000
    16 C5      17.9506   5.7126   3.9591   C.ar      1 RES1   0.0000
    17 H4      18.5349   5.5242   3.2337   H         1 RES1   0.0000
    18 N8      13.5628   4.8293   7.8856   N.ar      1 RES1   0.0000
    19 N9      15.0361   2.8192   8.1317   N.2       1 RES1  -1.0000
    20 N10     15.9367   1.8356   8.3125   N.2       1 RES1   0.0000
    21 C6      17.0025   4.7798   4.3860   C.ar      1 RES1   0.0000
    22 C7      15.6776   3.1344   4.6226   C.2       1 RES1   0.0000
    23 C8      14.8977   1.9033   4.5274   C.ar      1 RES1   0.0000
    24 C9      14.9762   0.8833   3.5852   C.ar      1 RES1   0.0000
    25 H5      15.6283   0.9040   2.8942   H         1 RES1   0.0000
    26 C10     14.0717  -0.1668   3.6831   C.ar      1 RES1   0.0000
    27 H6      14.0999  -0.8705   3.0462   H         1 RES1   0.0000
    28 C11     13.1275  -0.2019   4.7001   C.ar      1 RES1   0.0000
    29 H7      12.5147  -0.9246   4.7649   H         1 RES1   0.0000
    30 C12     13.0931   0.8429   5.6246   C.ar      1 RES1   0.0000
    31 C13     12.1860   1.0670   6.7340   C.2       1 RES1   0.0000
    32 C14     11.1053   0.4273   7.3119   C.2       1 RES1   0.0000
    33 H8      10.7213  -0.4083   7.0743   H         1 RES1   0.0000
    34 C15     10.7069   1.3080   8.3397   C.2       1 RES1   0.0000
    35 C16      9.5541   1.2011   9.2534   C.ar      1 RES1   0.0000
    36 C17      8.5749   0.2215   9.0549   C.ar      1 RES1   0.0000
    37 H9       8.6973  -0.4370   8.3801   H         1 RES1   0.0000
    38 C18      7.4304   0.2019   9.8312   C.ar      1 RES1   0.0000
    39 H10      6.7637  -0.4547   9.6698   H         1 RES1   0.0000
    40 C19      7.2461   1.1243  10.8359   C.ar      1 RES1   0.0000
    41 H11      6.4567   1.1031  11.3644   H         1 RES1   0.0000
    42 C20      8.2314   2.0987  11.0793   C.ar      1 RES1   0.0000
    43 H12      8.1174   2.7326  11.7778   H         1 RES1   0.0000
    44 C21      9.3754   2.1274  10.2853   C.ar      1 RES1   0.0000
    45 H13     10.0425   2.7843  10.4463   H         1 RES1   0.0000
    46 C22     11.8204   4.3356   4.4431   C.ar      1 RES1   0.0000
    47 C23     11.8070   3.4263   3.3813   C.ar      1 RES1   0.0000
    48 H14     12.3660   2.6584   3.3825   H         1 RES1   0.0000
    49 C24     10.9461   3.6894   2.3263   C.ar      1 RES1   0.0000
    50 H15     10.9087   3.0848   1.5944   H         1 RES1   0.0000
    51 C25     10.1209   4.8424   2.3181   C.ar      1 RES1   0.0000
    52 H16      9.5392   4.9913   1.5822   H         1 RES1   0.0000
    53 C26     10.1428   5.7452   3.3460   C.ar      1 RES1   0.0000
    54 H17      9.5969   6.5220   3.3248   H         1 RES1   0.0000
    55 C27     10.9902   5.4924   4.4255   C.ar      1 RES1   0.0000
    56 C28     12.0912   5.5120   6.2528   C.2       1 RES1   0.0000
    57 C29     12.6957   5.8064   7.5389   C.ar      1 RES1   0.0000
    58 C30     12.5154   6.9137   8.3533   C.ar      1 RES1   0.0000
    59 H18     11.9054   7.6018   8.1168   H         1 RES1   0.0000
    60 C31     13.2590   6.9841   9.5334   C.ar      1 RES1   0.0000
    61 H19     13.1727   7.7430  10.0984   H         1 RES1   0.0000
    62 C32     14.1144   5.9666   9.8883   C.ar      1 RES1   0.0000
    63 H20     14.6012   6.0056  10.7033   H         1 RES1   0.0000
    64 C33     14.2537   4.8775   9.0304   C.ar      1 RES1   0.0000
    65 C34     15.1277   3.7285   9.1514   C.2       1 RES1   0.0000
    66 C35     16.1251   3.3272  10.0243   C.2       1 RES1   0.0000
    67 H21     16.4185   3.7587  10.8177   H         1 RES1   0.0000
    68 C36     16.6004   2.1326   9.4627   C.2       1 RES1   0.0000
    69 C37     17.7383   1.3236   9.9318   C.ar      1 RES1   0.0000
    70 C38     18.5673   1.7978  10.9542   C.ar      1 RES1   0.0000
    71 H22     18.3446   2.6005  11.4096   H         1 RES1   0.0000
    72 C39     19.7177   1.0969  11.3064   C.ar      1 RES1   0.0000
    73 H23     20.2818   1.4317  11.9935   H         1 RES1   0.0000
    74 C40     20.0418  -0.0717  10.6714   C.ar      1 RES1   0.0000
    75 H24     20.8302  -0.5429  10.9127   H         1 RES1   0.0000
    76 C41     19.2216  -0.5589   9.6816   C.ar      1 RES1   0.0000
    77 H25     19.4514  -1.3646   9.2334   H         1 RES1   0.0000
    78 C42     18.0579   0.1172   9.3322   C.ar      1 RES1   0.0000
    79 H26     17.4777  -0.2507   8.6765   H         1 RES1   0.0000
    80 N11      6.9318   3.7767   6.7055   N.4       2 RES2   1.0000
    81 C43      6.0905   3.4458   7.9332   C.3       2 RES2   0.0000
    82 H27      6.6999   3.2553   8.6902   H         2 RES2   0.0000
    83 H28      5.5582   4.2455   8.1743   H         2 RES2   0.0000
    84 C44      5.1466   2.2720   7.7687   C.3       2 RES2   0.0000
    85 H29      4.5276   2.4515   7.0303   H         2 RES2   0.0000
    86 H30      4.6387   2.1417   8.5964   H         2 RES2   0.0000
    87 H31      5.6633   1.4625   7.5717   H         2 RES2   0.0000
    88 C45      6.0450   3.9734   5.4859   C.3       2 RES2   0.0000
    89 H32      6.6092   4.2772   4.7316   H         2 RES2   0.0000
    90 H33      5.6548   3.0995   5.2351   H         2 RES2   0.0000
    91 C46      4.9249   4.9622   5.6749   C.3       2 RES2   0.0000
    92 H34      4.3335   4.6530   6.3931   H         2 RES2   0.0000
    93 H35      4.4144   5.0412   4.8427   H         2 RES2   0.0000
    94 H36      5.2977   5.8370   5.9140   H         2 RES2   0.0000
    95 C47      7.8896   2.6251   6.4621   C.3       2 RES2   0.0000
    96 H37      8.2922   2.3652   7.3283   H         2 RES2   0.0000
    97 H38      7.3681   1.8499   6.1334   H         2 RES2   0.0000
    98 C48      9.0030   2.8947   5.4832   C.3       2 RES2   0.0000
    99 H39      8.6258   3.2306   4.6438   H         2 RES2   0.0000
   100 H40      9.4962   2.0659   5.3124   H         2 RES2   0.0000
   101 H41      9.6118   3.5655   5.8591   H         2 RES2   0.0000
   102 C49      7.7037   5.0677   6.9665   C.3       2 RES2   0.0000
   103 H42      8.1895   5.3142   6.1398   H         2 RES2   0.0000
   104 H43      7.0518   5.7893   7.1538   H         2 RES2   0.0000
   105 C50      8.6959   5.0143   8.1045   C.3       2 RES2   0.0000
   106 H44      8.2181   4.8700   8.9483   H         2 RES2   0.0000
   107 H45      9.1885   5.8604   8.1493   H         2 RES2   0.0000
   108 H46      9.3248   4.2777   7.9557   H         2 RES2   0.0000
   109 O1       9.5485   8.4197   6.1916   O.3       3 RES3   0.0000
   110 H47     10.0246   9.0412   6.6892   H         3 RES3   0.0000
   111 H48     10.0718   7.6342   6.1046   H         3 RES3   0.0000
   112 O2      10.8121  10.1472   7.8965   O.3       4 RES4   0.0000
   113 H49     11.6145  10.3179   7.6817   H         4 RES4   0.0000
   114 H50     10.8681   9.8749   8.7694   H         4 RES4   0.0000
   115 O3       7.3194   9.8085   8.1358   O.3       5 RES5   0.0000
   116 H51      6.5551  10.0323   8.4065   H         5 RES5   0.0000
   117 C51      7.2334   8.6047   7.4669   C.3       5 RES5   0.0000
   118 H52      7.9433   8.5552   6.7926   H         5 RES5   0.0000
   119 H53      6.3606   8.5344   7.0289   H         5 RES5   0.0000
   120 H54      7.3393   7.8680   8.1056   H         5 RES5   0.0000
   121 H55     15.7042  13.1318   7.5049   H         6 RES6   0.0000
   122 O4      15.5014  12.2642   7.1990   O.3       6 RES6   0.0000
   123 C52     16.4570  11.9841   6.2188   C.3       6 RES6   0.0000
   124 H56     16.5713  12.7679   5.6410   H         6 RES6   0.0000
   125 H57     16.1592  11.2220   5.6804   H         6 RES6   0.0000
   126 H58     17.3110  11.7680   6.6481   H         6 RES6   0.0000
   127 O5      13.3869  10.5042   7.0413   O.3       7 RES7   0.0000
   128 H59     14.1061  11.0995   7.2194   H         7 RES7   0.0000
   129 C53     13.9277   9.4672   6.2446   C.3       7 RES7   0.0000
   130 H60     14.1871   9.8275   5.3714   H         7 RES7   0.0000
   131 H61     13.2553   8.7649   6.1221   H         7 RES7   0.0000
   132 H62     14.7156   9.0906   6.6901   H         7 RES7   0.0000
@<TRIPOS>BOND
     1     1     2    1
     2     2     7    1
     3     3    21    1
     4     4    15    1
     5     5     1    1
     6     6    55    1
     7     7     8   ar
     8     8     9    1
     9    10     8   ar
    10    11    10    1
    11    12     1    1
    12    13    10   ar
    13    14    13    1
    14    15     1    1
    15    16    13   ar
    16    17    16    1
    17    18     1    1
    18    19     1    1
    19    20    19    1
    20    21     7   ar
    21    22     2    2
    22    23    12   ar
    23    24    23   ar
    24    25    24    1
    25    26    24   ar
    26    27    26    1
    27    28    26   ar
    28    29    28    1
    29    30    12   ar
    30    31    15    1
    31    32    31    2
    32    33    32    1
    33    34     4    2
    34    35    34    1
    35    36    35   ar
    36    37    36    1
    37    38    36   ar
    38    39    38    1
    39    40    38   ar
    40    41    40    1
    41    42    40   ar
    42    43    42    1
    43    44    35   ar
    44    45    44    1
    45    46     5    1
    46    47    46   ar
    47    48    47    1
    48    49    47   ar
    49    50    49    1
    50    51    49   ar
    51    52    51    1
    52    53    51   ar
    53    54    53    1
    54    55    46   ar
    55    56     5    2
    56    57    18   ar
    57    58    57   ar
    58    59    58    1
    59    60    58   ar
    60    61    60    1
    61    62    60   ar
    62    63    62    1
    63    64    18   ar
    64    65    19    1
    65    66    65    2
    66    67    66    1
    67    68    20    2
    68    69    68    1
    69    70    69   ar
    70    71    70    1
    71    72    70   ar
    72    73    72    1
    73    74    72   ar
    74    75    74    1
    75    76    74   ar
    76    77    76    1
    77    78    69   ar
    78    79    78    1
    79     3    22    1
    80     6    56    1
    81    16    21   ar
    82    22    23    1
    83    28    30   ar
    84    30    31    1
    85    32    34    1
    86    42    44   ar
    87    53    55   ar
    88    56    57    1
    89    62    64   ar
    90    64    65    1
    91    66    68    1
    92    76    78   ar
    93    80    81    1
    94    81    82    1
    95    83    81    1
    96    84    81    1
    97    85    84    1
    98    86    84    1
    99    87    84    1
   100    88    80    1
   101    89    88    1
   102    90    88    1
   103    91    88    1
   104    92    91    1
   105    93    91    1
   106    94    91    1
   107    95    80    1
   108    96    95    1
   109    97    95    1
   110    98    95    1
   111    99    98    1
   112   100    98    1
   113   101    98    1
   114   102    80    1
   115   103   102    1
   116   104   102    1
   117   105   102    1
   118   106   105    1
   119   107   105    1
   120   108   105    1
   121   109   110    1
   122   111   109    1
   123   112   113    1
   124   114   112    1
   125   115   116    1
   126   117   115    1
   127   118   117    1
   128   119   117    1
   129   120   117    1
   130   121   122    1
   131   122   123    1
   132   123   124    1
   133   125   123    1
   134   126   123    1
   135   127   128    1
   136   129   127    1
   137   130   129    1
   138   131   129    1
   139   132   129    1
@<TRIPOS>SUBSTRUCTURE
     1 RES1        1 GROUP             0 ****  ****    0  
     2 RES2       80 GROUP             0 ****  ****    0  
     3 RES3      109 GROUP             0 ****  ****    0  
     4 RES4      112 GROUP             0 ****  ****    0  
     5 RES5      115 GROUP             0 ****  ****    0  
     6 RES6      121 GROUP             0 ****  ****    0  
     7 RES7      127 GROUP             0 ****  ****    0  
@<TRIPOS>CRYSIN
   27.7460   13.0276   13.5959   90.0000   90.0000   90.0000    33     1
