@<TRIPOS>MOLECULE
HIXSEN
   116   122     4     0     0
SMALL
USER_CHARGES
****
Generated from the CSD

@<TRIPOS>ATOM
     1 Fe1     11.2770   4.2294   5.1872   Fe        1 RES1   2.0000
     2 P1       9.7761   2.5455   5.4878   P.3       1 RES1   0.0000
     3 P2       9.8626   5.9833   4.8921   P.3       1 RES1   0.0000
     4 N1      12.7361   2.8863   5.4947   N.2       1 RES1   0.0000
     5 N2      12.8354   5.4628   4.8876   N.2       1 RES1   0.0000
     6 N3      11.3646   4.5269   7.0651   N.1       1 RES1   0.0000
     7 N4      11.3252   3.9172   3.2984   N.1       1 RES1   0.0000
     8 C1      14.0345   3.3845   4.9560   C.3       1 RES1   0.0000
     9 H1      13.9703   3.3714   3.9573   H         1 RES1   0.0000
    10 C2      15.2862   2.6011   5.3434   C.3       1 RES1   0.0000
    11 H2      15.3403   2.5339   6.3296   H         1 RES1   0.0000
    12 H3      15.2293   1.6849   4.9767   H         1 RES1   0.0000
    13 C3      16.5292   3.2796   4.8171   C.3       1 RES1   0.0000
    14 H4      17.3295   2.7617   5.0823   H         1 RES1   0.0000
    15 H5      16.4970   3.3108   3.8268   H         1 RES1   0.0000
    16 C4      16.6299   4.6777   5.3621   C.3       1 RES1   0.0000
    17 H6      17.4639   5.0989   5.0347   H         1 RES1   0.0000
    18 H7      16.6767   4.6400   6.3503   H         1 RES1   0.0000
    19 C5      15.4191   5.5415   4.9394   C.3       1 RES1   0.0000
    20 H8      15.4922   6.4396   5.3475   H         1 RES1   0.0000
    21 H9      15.4133   5.6480   3.9552   H         1 RES1   0.0000
    22 C6      14.1090   4.8678   5.3973   C.3       1 RES1   0.0000
    23 H10     14.0827   4.8924   6.3959   H         1 RES1   0.0000
    24 C7      12.7828   1.8799   6.3089   C.2       1 RES1   0.0000
    25 H11     13.6387   1.4784   6.4084   H         1 RES1   0.0000
    26 C8      11.7239   1.2817   7.0838   C.ar      1 RES1   0.0000
    27 C9      12.1635   0.3934   8.0721   C.ar      1 RES1   0.0000
    28 H12     13.0910   0.2278   8.1881   H         1 RES1   0.0000
    29 C10     11.2273  -0.2491   8.8843   C.ar      1 RES1   0.0000
    30 H13     11.5194  -0.8326   9.5742   H         1 RES1   0.0000
    31 C11      9.8748  -0.0393   8.6874   C.ar      1 RES1   0.0000
    32 H14      9.2410  -0.4737   9.2448   H         1 RES1   0.0000
    33 C12      9.4469   0.8015   7.6826   C.ar      1 RES1   0.0000
    34 H15      8.5151   0.9244   7.5438   H         1 RES1   0.0000
    35 C13     10.3524   1.4718   6.8662   C.ar      1 RES1   0.0000
    36 C14     12.9522   6.4822   4.1334   C.2       1 RES1   0.0000
    37 H16     13.8373   6.8051   4.0133   H         1 RES1   0.0000
    38 C15     11.8992   7.2313   3.4228   C.ar      1 RES1   0.0000
    39 C16     12.3885   8.1721   2.4925   C.ar      1 RES1   0.0000
    40 H17     13.3261   8.2704   2.3723   H         1 RES1   0.0000
    41 C17     11.4990   8.9735   1.7404   C.ar      1 RES1   0.0000
    42 H18     11.8291   9.6078   1.1147   H         1 RES1   0.0000
    43 C18     10.1582   8.8145   1.9310   C.ar      1 RES1   0.0000
    44 H19      9.5477   9.3407   1.4255   H         1 RES1   0.0000
    45 C19      9.6718   7.9016   2.8426   C.ar      1 RES1   0.0000
    46 H20      8.7327   7.8148   2.9566   H         1 RES1   0.0000
    47 C20     10.5292   7.1001   3.6072   C.ar      1 RES1   0.0000
    48 C21     11.5574   4.6269   8.1777   C.1       1 RES1   0.0000
    49 C22     11.8013   4.7646   9.6301   C.3       1 RES1   0.0000
    50 H21     11.7648   5.7119   9.8788   H         1 RES1   0.0000
    51 H22     12.6864   4.4024   9.8477   H         1 RES1   0.0000
    52 H23     11.1163   4.2696  10.1233   H         1 RES1   0.0000
    53 C23     11.4815   3.7812   2.1734   C.1       1 RES1   0.0000
    54 C24     11.6523   3.5779   0.7334   C.3       1 RES1   0.0000
    55 H24     11.2580   2.7191   0.4745   H         1 RES1   0.0000
    56 H25     12.6090   3.5779   0.5138   H         1 RES1   0.0000
    57 H26     11.2069   4.3024   0.2445   H         1 RES1   0.0000
    58 C25      9.6704   1.3555   4.1189   C.ar      1 RES1   0.0000
    59 C26     10.3349   0.1311   4.1624   C.ar      1 RES1   0.0000
    60 H27     10.8301  -0.0934   4.9415   H         1 RES1   0.0000
    61 C27     10.2984  -0.7687   3.1141   C.ar      1 RES1   0.0000
    62 H28     10.7570  -1.5980   3.1804   H         1 RES1   0.0000
    63 C28      9.5769  -0.4491   1.9496   C.ar      1 RES1   0.0000
    64 H29      9.5141  -1.0686   1.2328   H         1 RES1   0.0000
    65 C29      8.9591   0.7900   1.8709   C.ar      1 RES1   0.0000
    66 H30      8.4961   1.0277   1.0774   H         1 RES1   0.0000
    67 C30      9.0044   1.6947   2.9317   C.ar      1 RES1   0.0000
    68 H31      8.5823   2.5421   2.8488   H         1 RES1   0.0000
    69 C31      8.0784   2.8961   6.0375   C.ar      1 RES1   0.0000
    70 C32      6.9318   2.5896   5.3248   C.ar      1 RES1   0.0000
    71 H32      6.9990   2.1340   4.4939   H         1 RES1   0.0000
    72 C33      5.6830   2.9420   5.8199   C.ar      1 RES1   0.0000
    73 H33      4.9104   2.7519   5.2999   H         1 RES1   0.0000
    74 C34      5.5355   3.5484   7.0196   C.ar      1 RES1   0.0000
    75 H34      4.6709   3.7910   7.3324   H         1 RES1   0.0000
    76 C35      6.6733   3.8189   7.7945   C.ar      1 RES1   0.0000
    77 H35      6.5886   4.2057   8.6564   H         1 RES1   0.0000
    78 C36      7.9133   3.5124   7.2868   C.ar      1 RES1   0.0000
    79 H36      8.6845   3.7254   7.7986   H         1 RES1   0.0000
    80 C37      9.7156   7.1313   6.3089   C.ar      1 RES1   0.0000
    81 C38     10.2867   8.4048   6.3213   C.ar      1 RES1   0.0000
    82 H37     10.7643   8.7146   5.5610   H         1 RES1   0.0000
    83 C39     10.1640   9.2259   7.4381   C.ar      1 RES1   0.0000
    84 H38     10.5452  10.0962   7.4174   H         1 RES1   0.0000
    85 C40      9.5155   8.8178   8.5528   C.ar      1 RES1   0.0000
    86 H39      9.4615   9.3915   9.3069   H         1 RES1   0.0000
    87 C41      8.9313   7.5705   8.5921   C.ar      1 RES1   0.0000
    88 H40      8.4581   7.2886   9.3670   H         1 RES1   0.0000
    89 C42      9.0423   6.7265   7.4899   C.ar      1 RES1   0.0000
    90 H41      8.6553   5.8594   7.5292   H         1 RES1   0.0000
    91 C43      8.1675   5.7037   4.2785   C.ar      1 RES1   0.0000
    92 C44      7.0078   6.1069   4.9435   C.ar      1 RES1   0.0000
    93 H42      7.0560   6.5412   5.7868   H         1 RES1   0.0000
    94 C45      5.7897   5.8594   4.3468   C.ar      1 RES1   0.0000
    95 H43      4.9966   6.1364   4.7902   H         1 RES1   0.0000
    96 C46      5.6874   5.2202   3.1265   C.ar      1 RES1   0.0000
    97 H44      4.8330   5.0252   2.7618   H         1 RES1   0.0000
    98 C47      6.8237   4.8711   2.4448   C.ar      1 RES1   0.0000
    99 H45      6.7580   4.4728   1.5850   H         1 RES1   0.0000
   100 C48      8.0681   5.0989   3.0084   C.ar      1 RES1   0.0000
   101 H46      8.8539   4.8465   2.5401   H         1 RES1   0.0000
   102 B1       8.4333   4.0893  11.2959   B         2 RES2  -1.0000
   103 F1       8.6129   4.7859  10.2144   F         2 RES2   0.0000
   104 F2       9.6046   3.8746  11.9776   F         2 RES2   0.0000
   105 F3       7.5160   4.5089  12.1123   F         2 RES2   0.0000
   106 F4       7.8826   2.8650  10.7966   F         2 RES2   0.0000
   107 B2       8.0243   3.0862  -1.0919   B         3 RES3  -1.0000
   108 F5       7.7147   1.8045  -1.2846   F         3 RES3   0.0000
   109 F6       9.3695   3.2124  -1.7984   F         3 RES3   0.0000
   110 F7       7.2020   3.9385  -1.7549   F         3 RES3   0.0000
   111 F8       8.3953   3.4681   0.1222   F         3 RES3   0.0000
   112 C49      7.3116   0.0721  11.9507   C.3       4 RES4   0.0000
   113 H47      7.6387   0.8916  11.4803   H         4 RES4   0.0000
   114 Cl1      8.6202  -0.5868  12.8486   Cl        4 RES4   0.0000
   115 Cl2      6.7317  -1.0457  10.7544   Cl        4 RES4   0.0000
   116 Cl3      6.0160   0.5376  13.0198   Cl        4 RES4   0.0000
@<TRIPOS>BOND
     1     1     2    1
     2     2    35    1
     3     3     1    1
     4     4     1    1
     5     5     1    1
     6     6     1    1
     7     7     1    1
     8     8     4    1
     9     9     8    1
    10    10     8    1
    11    11    10    1
    12    12    10    1
    13    13    10    1
    14    14    13    1
    15    15    13    1
    16    16    13    1
    17    17    16    1
    18    18    16    1
    19    19    16    1
    20    20    19    1
    21    21    19    1
    22    22     5    1
    23    23    22    1
    24    24     4    2
    25    25    24    1
    26    26    24    1
    27    27    26   ar
    28    28    27    1
    29    29    27   ar
    30    30    29    1
    31    31    29   ar
    32    32    31    1
    33    33    31   ar
    34    34    33    1
    35    35    26   ar
    36    36     5    2
    37    37    36    1
    38    38    36    1
    39    39    38   ar
    40    40    39    1
    41    41    39   ar
    42    42    41    1
    43    43    41   ar
    44    44    43    1
    45    45    43   ar
    46    46    45    1
    47    47     3    1
    48    48     6    3
    49    49    48    1
    50    50    49    1
    51    51    49    1
    52    52    49    1
    53    53     7    3
    54    54    53    1
    55    55    54    1
    56    56    54    1
    57    57    54    1
    58    58     2    1
    59    59    58   ar
    60    60    59    1
    61    61    59   ar
    62    62    61    1
    63    63    61   ar
    64    64    63    1
    65    65    63   ar
    66    66    65    1
    67    67    58   ar
    68    68    67    1
    69    69     2    1
    70    70    69   ar
    71    71    70    1
    72    72    70   ar
    73    73    72    1
    74    74    72   ar
    75    75    74    1
    76    76    74   ar
    77    77    76    1
    78    78    69   ar
    79    79    78    1
    80    80     3    1
    81    81    80   ar
    82    82    81    1
    83    83    81   ar
    84    84    83    1
    85    85    83   ar
    86    86    85    1
    87    87    85   ar
    88    88    87    1
    89    89    80   ar
    90    90    89    1
    91    91     3    1
    92    92    91   ar
    93    93    92    1
    94    94    92   ar
    95    95    94    1
    96    96    94   ar
    97    97    96    1
    98    98    96   ar
    99    99    98    1
   100   100    91   ar
   101   101   100    1
   102     8    22    1
   103    19    22    1
   104    33    35   ar
   105    38    47   ar
   106    45    47   ar
   107    65    67   ar
   108    76    78   ar
   109    87    89   ar
   110    98   100   ar
   111   102   103    1
   112   104   102    1
   113   105   102    1
   114   106   102    1
   115   107   108    1
   116   109   107    1
   117   110   107    1
   118   111   107    1
   119   112   113    1
   120   114   112    1
   121   115   112    1
   122   116   112    1
@<TRIPOS>SUBSTRUCTURE
     1 RES1        1 GROUP             0 ****  ****    0  
     2 RES2      102 GROUP             0 ****  ****    0  
     3 RES3      107 GROUP             0 ****  ****    0  
     4 RES4      112 GROUP             0 ****  ****    0  
@<TRIPOS>CRYSIN
   14.6056   16.3900   20.7189   90.0000   90.0000   90.0000    19     1
