@<TRIPOS>MOLECULE
HIYREO
    85    89     5     0     0
SMALL
USER_CHARGES
****
Generated from the CSD

@<TRIPOS>ATOM
     1 Fe1      7.7069  13.3487  22.0225   Fe        1 RES1   2.0000
     2 N1       8.3024  11.7849  23.0602   N.ar      1 RES1   0.0000
     3 N2       6.7638  11.9527  20.9966   N.ar      1 RES1   0.0000
     4 C1       7.8566  10.5904  22.6010   C.ar      1 RES1   0.0000
     5 C2       9.1200  11.7869  24.1279   C.ar      1 RES1   0.0000
     6 H1       9.4501  12.6171  24.4492   H         1 RES1   0.0000
     7 C3       9.4995  10.6229  24.7756   C.ar      1 RES1   0.0000
     8 H2      10.0582  10.6589  25.5428   H         1 RES1   0.0000
     9 C4       9.0594   9.4201  24.2954   C.ar      1 RES1   0.0000
    10 H3       9.3222   8.6099  24.7137   H         1 RES1   0.0000
    11 C5       8.2278   9.3975  23.1952   C.ar      1 RES1   0.0000
    12 H4       7.9126   8.5712  22.8483   H         1 RES1   0.0000
    13 C6       6.9354  10.6891  21.4572   C.ar      1 RES1   0.0000
    14 C7       5.9253  12.1389  19.9583   C.ar      1 RES1   0.0000
    15 H5       5.8009  13.0189  19.6248   H         1 RES1   0.0000
    16 C8       5.2387  11.0981  19.3594   C.ar      1 RES1   0.0000
    17 H6       4.6603  11.2623  18.6239   H         1 RES1   0.0000
    18 C9       5.4040   9.8219  19.8441   C.ar      1 RES1   0.0000
    19 H7       4.9308   9.0958  19.4557   H         1 RES1   0.0000
    20 C10      6.2680   9.6070  20.9027   C.ar      1 RES1   0.0000
    21 H8       6.4021   8.7314  21.2447   H         1 RES1   0.0000
    22 N1A      8.7634  14.6463  23.0602   N.ar      1 RES1   0.0000
    23 N2A      9.3873  13.2300  20.9966   N.ar      1 RES1   0.0000
    24 C1A     10.0207  14.8575  22.6010   C.ar      1 RES1   0.0000
    25 C2A      8.3528  15.3534  24.1279   C.ar      1 RES1   0.0000
    26 H1A      7.4687  15.2241  24.4492   H         1 RES1   0.0000
    27 C3A      9.1712  16.2640  24.7756   C.ar      1 RES1   0.0000
    28 H2A      8.8606  16.7299  25.5428   H         1 RES1   0.0000
    29 C4A     10.4328  16.4843  24.2954   C.ar      1 RES1   0.0000
    30 H3A     11.0031  17.1170  24.7137   H         1 RES1   0.0000
    31 C5A     10.8682  15.7754  23.1952   C.ar      1 RES1   0.0000
    32 H4A     11.7414  15.9156  22.8483   H         1 RES1   0.0000
    33 C6A     10.3958  14.0103  21.4572   C.ar      1 RES1   0.0000
    34 C7A      9.6454  12.4106  19.9583   C.ar      1 RES1   0.0000
    35 H5A      8.9453  11.8630  19.6248   H         1 RES1   0.0000
    36 C8A     10.8900  12.3364  19.3594   C.ar      1 RES1   0.0000
    37 H6A     11.0370  11.7535  18.6239   H         1 RES1   0.0000
    38 C9A     11.9125  13.1177  19.8441   C.ar      1 RES1   0.0000
    39 H7A     12.7780  13.0710  19.4557   H         1 RES1   0.0000
    40 C10A    11.6666  13.9734  20.9027   C.ar      1 RES1   0.0000
    41 H8A     12.3579  14.5273  21.2447   H         1 RES1   0.0000
    42 N1B      6.0548  13.6148  23.0602   N.ar      1 RES1   0.0000
    43 N2B      6.9694  14.8633  20.9966   N.ar      1 RES1   0.0000
    44 C1B      5.2433  14.5981  22.6010   C.ar      1 RES1   0.0000
    45 C2B      5.6477  12.9057  24.1279   C.ar      1 RES1   0.0000
    46 H1B      6.2017  12.2047  24.4492   H         1 RES1   0.0000
    47 C3B      4.4499  13.1591  24.7756   C.ar      1 RES1   0.0000
    48 H2B      4.2018  12.6572  25.5428   H         1 RES1   0.0000
    49 C4B      3.6284  14.1416  24.2954   C.ar      1 RES1   0.0000
    50 H3B      2.7953  14.3191  24.7137   H         1 RES1   0.0000
    51 C5B      4.0245  14.8731  23.1952   C.ar      1 RES1   0.0000
    52 H4B      3.4665  15.5592  22.8483   H         1 RES1   0.0000
    53 C6B      5.7893  15.3465  21.4572   C.ar      1 RES1   0.0000
    54 C7B      7.5499  15.4965  19.9583   C.ar      1 RES1   0.0000
    55 H5B      8.3743  15.1641  19.6248   H         1 RES1   0.0000
    56 C8B      6.9919  16.6115  19.3594   C.ar      1 RES1   0.0000
    57 H6B      7.4232  17.0302  18.6239   H         1 RES1   0.0000
    58 C9B      5.8040  17.1063  19.8441   C.ar      1 RES1   0.0000
    59 H7B      5.4118  17.8792  19.4557   H         1 RES1   0.0000
    60 C10B     5.1859  16.4656  20.9027   C.ar      1 RES1   0.0000
    61 H8B      4.3605  16.7873  21.2447   H         1 RES1   0.0000
    62 C11      7.7076   4.4491  26.0293   C.2       2 RES2  -1.0000
    63 C12      8.6841   5.4436  25.9557   C.1       2 RES2   0.0000
    64 N3       9.4933   6.2632  25.8957   N.1       2 RES2   0.0000
    65 C12A     6.3574   4.7988  25.9557   C.1       2 RES2   0.0000
    66 N3A      5.2430   5.0898  25.8957   N.1       2 RES2   0.0000
    67 C12B     8.0791   3.1062  25.9557   C.1       2 RES2   0.0000
    68 N3B      8.3843   1.9956  25.8957   N.1       2 RES2   0.0000
    69 C13      7.7076   4.4491  22.7256   C.2       3 RES3  -1.0000
    70 C14      7.0071   5.6625  22.7256   C.1       3 RES3   0.0000
    71 N4       6.4344   6.6543  22.7256   N.1       3 RES3   0.0000
    72 C14A     7.0063   3.2370  22.7256   C.1       3 RES3   0.0000
    73 N4A      6.4337   2.2452  22.7256   N.1       3 RES3   0.0000
    74 C14B     9.1072   4.4491  22.7256   C.1       3 RES3   0.0000
    75 N4B     10.2524   4.4491  22.7256   N.1       3 RES3   0.0000
    76 C15      7.7069  13.3487  27.2718   C.2       4 RES4  -1.0000
    77 C16      6.9994  12.1232  27.2718   C.1       4 RES4   0.0000
    78 N5       6.4252  11.1288  27.2718   N.1       4 RES4   0.0000
    79 C16A     9.1218  13.3487  27.2718   C.1       4 RES4   0.0000
    80 N5A     10.2701  13.3487  27.2718   N.1       4 RES4   0.0000
    81 C16B     6.9994  14.5741  27.2718   C.1       4 RES4   0.0000
    82 N5B      6.4252  15.5685  27.2718   N.1       4 RES4   0.0000
    83 O1      10.4613   8.5778  27.2718   O.3       5 RES5   0.0000
    84 H9      10.2116   7.6755  26.8436   H         5 RES5   0.0000
    85 H9D     11.3676   8.3429  27.7000   H         5 RES5   0.0000
@<TRIPOS>BOND
     1     1     2    1
     2     2     4   ar
     3     3     1    1
     4     4    11   ar
     5     5     2   ar
     6     6     5    1
     7     7     5   ar
     8     8     7    1
     9     9     7   ar
    10    10     9    1
    11    11     9   ar
    12    12    11    1
    13    13     3   ar
    14    14     3   ar
    15    15    14    1
    16    16    14   ar
    17    17    16    1
    18    18    16   ar
    19    19    18    1
    20    20    13   ar
    21    21    20    1
    22    22     1    1
    23    23     1    1
    24    24    22   ar
    25    25    22   ar
    26    26    25    1
    27    27    25   ar
    28    28    27    1
    29    29    27   ar
    30    30    29    1
    31    31    24   ar
    32    32    31    1
    33    33    23   ar
    34    34    23   ar
    35    35    34    1
    36    36    34   ar
    37    37    36    1
    38    38    36   ar
    39    39    38    1
    40    40    33   ar
    41    41    40    1
    42    42     1    1
    43    43     1    1
    44    44    42   ar
    45    45    42   ar
    46    46    45    1
    47    47    45   ar
    48    48    47    1
    49    49    47   ar
    50    50    49    1
    51    51    44   ar
    52    52    51    1
    53    53    43   ar
    54    54    43   ar
    55    55    54    1
    56    56    54   ar
    57    57    56    1
    58    58    56   ar
    59    59    58    1
    60    60    53   ar
    61    61    60    1
    62     4    13    1
    63    18    20   ar
    64    24    33    1
    65    29    31   ar
    66    38    40   ar
    67    44    53    1
    68    49    51   ar
    69    58    60   ar
    70    62    63    1
    71    63    64    3
    72    65    62    1
    73    66    65    3
    74    67    62    1
    75    68    67    3
    76    69    70    1
    77    70    71    3
    78    72    69    1
    79    73    72    3
    80    74    69    1
    81    75    74    3
    82    76    77    1
    83    77    78    3
    84    79    76    1
    85    80    79    3
    86    81    76    1
    87    82    81    3
    88    83    84    1
    89    85    83    1
@<TRIPOS>SUBSTRUCTURE
     1 RES1        1 GROUP             0 ****  ****    0  
     2 RES2       62 GROUP             0 ****  ****    0  
     3 RES3       69 GROUP             0 ****  ****    0  
     4 RES4       76 GROUP             0 ****  ****    0  
     5 RES5       83 GROUP             0 ****  ****    0  
@<TRIPOS>CRYSIN
   15.4137   15.4137   27.2718   90.0000   90.0000  120.0000   234     1
