@<TRIPOS>MOLECULE
HMPBFE01
    89    98     1     0     0
SMALL
USER_CHARGES
****
Generated from the CSD

@<TRIPOS>ATOM
     1 C1      -2.5485   1.3977   8.8458   C.3       1 RES1   0.0000
     2 H1      -1.8691   1.3966   9.5247   H         1 RES1   0.0000
     3 H2      -3.1730   0.6892   9.0169   H         1 RES1   0.0000
     4 H3      -3.0089   2.2393   8.8551   H         1 RES1   0.0000
     5 C2      -1.9154   1.1913   7.5096   C.2       1 RES1   0.0000
     6 C3      -2.0093   0.1167   6.6624   C.2       1 RES1   0.0000
     7 H4      -2.5160  -0.6524   6.7914   H         1 RES1   0.0000
     8 C4      -1.1984   0.4058   5.5758   C.2       1 RES1   0.0000
     9 C5      -0.9377  -0.4511   4.3649   C.3       1 RES1   0.0000
    10 H5      -1.7335  -0.4992   3.8301   H         1 RES1   0.0000
    11 H6      -0.6871  -1.3345   4.6464   H         1 RES1   0.0000
    12 H7      -0.2265  -0.0660   3.8478   H         1 RES1   0.0000
    13 C6      -2.5671   6.0240   7.6106   C.3       1 RES1   0.0000
    14 H8      -3.2401   5.3662   7.7985   H         1 RES1   0.0000
    15 H9      -2.9840   6.8775   7.4731   H         1 RES1   0.0000
    16 H10     -1.9593   6.0810   8.3511   H         1 RES1   0.0000
    17 C7      -1.8168   5.6317   6.3781   C.2       1 RES1   0.0000
    18 C8      -1.7981   6.2434   5.1532   C.2       1 RES1   0.0000
    19 H11     -2.2623   7.0119   4.9073   H         1 RES1   0.0000
    20 C9      -0.9533   5.4924   4.3528   C.2       1 RES1   0.0000
    21 C10     -0.5927   5.7266   2.9174   C.3       1 RES1   0.0000
    22 H12      0.0423   5.0633   2.6350   H         1 RES1   0.0000
    23 H13     -0.2065   6.5997   2.8230   H         1 RES1   0.0000
    24 H14     -1.3822   5.6649   2.3751   H         1 RES1   0.0000
    25 C11      0.9606   3.9723  10.0735   C.3       1 RES1   0.0000
    26 H15      0.5628   4.8455  10.0287   H         1 RES1   0.0000
    27 H16      1.6347   3.9633  10.7561   H         1 RES1   0.0000
    28 H17      0.2840   3.3232  10.2830   H         1 RES1   0.0000
    29 C12      1.5808   3.6388   8.7542   C.2       1 RES1   0.0000
    30 C13      2.9071   3.4581   8.4344   C.2       1 RES1   0.0000
    31 H18      3.6321   3.4995   9.0160   H         1 RES1   0.0000
    32 C14      2.9476   3.1995   7.0720   C.2       1 RES1   0.0000
    33 C15      4.1391   2.9581   6.2014   C.3       1 RES1   0.0000
    34 H19      4.4475   2.0581   6.3239   H         1 RES1   0.0000
    35 H20      4.8388   3.5713   6.4389   H         1 RES1   0.0000
    36 H21      3.8962   3.0911   5.2822   H         1 RES1   0.0000
    37 B1      -0.6547   3.4995   7.3908   B         1 RES1  -1.0000
    38 H22     -1.1102   3.7264   8.2286   H         1 RES1   0.0000
    39 N1      -0.6386   1.6076   5.7292   N.2       1 RES1   0.0000
    40 N2      -0.4675   4.4637   5.0494   N.2       1 RES1   0.0000
    41 N3       1.7089   3.2111   6.5708   N.2       1 RES1   0.0000
    42 N4      -1.0979   2.0988   6.9298   N.pl3     1 RES1   0.0000
    43 N5      -1.0112   4.5539   6.3117   N.pl3     1 RES1   0.0000
    44 N6       0.8689   3.4876   7.6227   N.pl3     1 RES1   0.0000
    45 Fe1      0.8055   2.7908   4.6754   Fe        1 RES1   2.0000
    46 C1A      4.1595   4.1839   0.5049   C.3       1 RES1   0.0000
    47 H1A      3.4800   4.1850  -0.1739   H         1 RES1   0.0000
    48 H2A      4.7839   4.8924   0.3338   H         1 RES1   0.0000
    49 H3A      4.6198   3.3423   0.4956   H         1 RES1   0.0000
    50 C2A      3.5263   4.3903   1.8412   C.2       1 RES1   0.0000
    51 C3A      3.6203   5.4649   2.6883   C.2       1 RES1   0.0000
    52 H4A      4.1269   6.2340   2.5593   H         1 RES1   0.0000
    53 C4A      2.8093   5.1759   3.7749   C.2       1 RES1   0.0000
    54 C5A      2.5486   6.0328   4.9858   C.3       1 RES1   0.0000
    55 H5A      3.3444   6.0808   5.5207   H         1 RES1   0.0000
    56 H6A      2.2980   6.9161   4.7044   H         1 RES1   0.0000
    57 H7A      1.8375   5.6476   5.5029   H         1 RES1   0.0000
    58 C6A      4.1781  -0.4423   1.7402   C.3       1 RES1   0.0000
    59 H8A      4.8510   0.2155   1.5522   H         1 RES1   0.0000
    60 H9A      4.5949  -1.2959   1.8776   H         1 RES1   0.0000
    61 H10A     3.5702  -0.4994   0.9996   H         1 RES1   0.0000
    62 C7A      3.4277  -0.0500   2.9726   C.2       1 RES1   0.0000
    63 C8A      3.4090  -0.6618   4.1975   C.2       1 RES1   0.0000
    64 H11A     3.8732  -1.4302   4.4435   H         1 RES1   0.0000
    65 C9A      2.5643   0.0893   4.9980   C.2       1 RES1   0.0000
    66 C10A     2.2037  -0.1449   6.4333   C.3       1 RES1   0.0000
    67 H12A     1.5686   0.5183   6.7157   H         1 RES1   0.0000
    68 H13A     1.8175  -1.0181   6.5277   H         1 RES1   0.0000
    69 H14A     2.9931  -0.0833   6.9756   H         1 RES1   0.0000
    70 C11A     0.6503   1.6093  -0.7228   C.3       1 RES1   0.0000
    71 H15A     1.0481   0.7361  -0.6779   H         1 RES1   0.0000
    72 H16A    -0.0238   1.6184  -1.4054   H         1 RES1   0.0000
    73 H17A     1.3269   2.2584  -0.9323   H         1 RES1   0.0000
    74 C12A     0.0301   1.9428   0.5966   C.2       1 RES1   0.0000
    75 C13A    -1.2962   2.1236   0.9164   C.2       1 RES1   0.0000
    76 H18A    -2.0211   2.0822   0.3348   H         1 RES1   0.0000
    77 C14A    -1.3367   2.3822   2.2788   C.2       1 RES1   0.0000
    78 C15A    -2.5281   2.6235   3.1493   C.3       1 RES1   0.0000
    79 H19A    -2.8365   3.5235   3.0268   H         1 RES1   0.0000
    80 H20A    -3.2278   2.0104   2.9118   H         1 RES1   0.0000
    81 H21A    -2.2853   2.4905   4.0685   H         1 RES1   0.0000
    82 B1A      2.2656   2.0821   1.9599   B         1 RES1  -1.0000
    83 H22A     2.7211   1.8553   1.1221   H         1 RES1   0.0000
    84 N1A      2.2495   3.9740   3.6215   N.2       1 RES1   0.0000
    85 N2A      2.0785   1.1180   4.3013   N.2       1 RES1   0.0000
    86 N3A     -0.0980   2.3705   2.7800   N.2       1 RES1   0.0000
    87 N4A      2.7088   3.4828   2.4209   N.pl3     1 RES1   0.0000
    88 N5A      2.6221   1.0278   3.0390   N.pl3     1 RES1   0.0000
    89 N6A      0.7420   2.0940   1.7280   N.pl3     1 RES1   0.0000
@<TRIPOS>BOND
     1     1     2    1
     2     3     1    1
     3     4     1    1
     4     5     1    1
     5     6     5    2
     6     7     6    1
     7     8     6    1
     8     9     8    1
     9    10     9    1
    10    11     9    1
    11    12     9    1
    12    13    14    1
    13    15    13    1
    14    16    13    1
    15    17    13    1
    16    18    17    2
    17    19    18    1
    18    20    18    1
    19    21    20    1
    20    22    21    1
    21    23    21    1
    22    24    21    1
    23    25    26    1
    24    27    25    1
    25    28    25    1
    26    29    25    1
    27    30    29    2
    28    31    30    1
    29    32    30    1
    30    33    32    1
    31    34    33    1
    32    35    33    1
    33    36    33    1
    34    37    38    1
    35    39     8    2
    36    40    20    2
    37    41    32    2
    38    42     5    1
    39    43    17    1
    40    44    29    1
    41    45    39    1
    42    46    47    1
    43    48    46    1
    44    49    46    1
    45    50    46    1
    46    51    50    2
    47    52    51    1
    48    53    51    1
    49    54    53    1
    50    55    54    1
    51    56    54    1
    52    57    54    1
    53    58    59    1
    54    60    58    1
    55    61    58    1
    56    62    58    1
    57    63    62    2
    58    64    63    1
    59    65    63    1
    60    66    65    1
    61    67    66    1
    62    68    66    1
    63    69    66    1
    64    70    71    1
    65    72    70    1
    66    73    70    1
    67    74    70    1
    68    75    74    2
    69    76    75    1
    70    77    75    1
    71    78    77    1
    72    79    78    1
    73    80    78    1
    74    81    78    1
    75    82    83    1
    76    84    45    1
    77    85    45    1
    78    86    45    1
    79    87    50    1
    80    88    62    1
    81    89    74    1
    82    37    42    1
    83    37    43    1
    84    37    44    1
    85    39    42    1
    86    40    43    1
    87    40    45    1
    88    41    44    1
    89    41    45    1
    90    53    84    2
    91    65    85    2
    92    77    86    2
    93    82    87    1
    94    82    88    1
    95    82    89    1
    96    84    87    1
    97    85    88    1
    98    86    89    1
@<TRIPOS>SUBSTRUCTURE
     1 RES1        1 GROUP             0 ****  ****    0  
@<TRIPOS>CRYSIN
    8.7770   10.7908   10.9916  106.4850  108.7110  109.7140     2     1
