@<TRIPOS>MOLECULE
HMPBFE
    89    98     1     0     0
SMALL
NO_CHARGES
****
Generated from the CSD

@<TRIPOS>ATOM
     1 Fe1      3.9647   2.6763   4.8326   Fe        1 RES1   0.0000
     2 N1       2.4820   3.9173   3.8062   N.ar      1 RES1   0.0000
     3 N2       2.1384   3.5097   2.5381   N.ar      1 RES1   0.0000
     4 N3       4.9276   2.4163   2.8957   N.ar      1 RES1   0.0000
     5 N4       4.1132   2.1470   1.8229   N.ar      1 RES1   0.0000
     6 N5       2.7344   1.0031   4.2904   N.ar      1 RES1   0.0000
     7 N6       2.1901   1.0139   3.0223   N.ar      1 RES1   0.0000
     8 C1       1.9388   5.1306   3.9666   C.ar      1 RES1   0.0000
     9 C2       1.2677   5.5114   2.8145   C.ar      1 RES1   0.0000
    10 C3       1.4188   4.4837   1.9321   C.ar      1 RES1   0.0000
    11 C4       2.0812   5.8859   5.2414   C.3       1 RES1   0.0000
    12 C5       0.9373   4.3558   0.5316   C.3       1 RES1   0.0000
    13 C6       6.1821   2.4367   2.4221   C.ar      1 RES1   0.0000
    14 C7       6.1724   2.1971   1.0506   C.ar      1 RES1   0.0000
    15 C8       4.8624   2.0293   0.6949   C.ar      1 RES1   0.0000
    16 C9       7.3552   2.6676   3.3113   C.3       1 RES1   0.0000
    17 C10      4.2703   1.7514  -0.6534   C.3       1 RES1   0.0000
    18 C11      2.2092  -0.0870   4.8829   C.ar      1 RES1   0.0000
    19 C12      1.3553  -0.7470   4.0217   C.ar      1 RES1   0.0000
    20 C13      1.3546  -0.0286   2.8580   C.ar      1 RES1   0.0000
    21 C14      2.5512  -0.4437   6.3056   C.3       1 RES1   0.0000
    22 C15      0.5787  -0.2768   1.6160   C.3       1 RES1   0.0000
    23 B1       2.5857   2.1341   2.0229   B         1 RES1   0.0000
    24 H1       1.3018   5.8225   5.8281   H         1 RES1   0.0000
    25 H2       2.8246   5.5450   5.7991   H         1 RES1   0.0000
    26 H3       2.2557   6.8359   5.1516   H         1 RES1   0.0000
    27 H4       0.7892   6.3655   2.6676   H         1 RES1   0.0000
    28 H5       0.8571   5.2013   0.0387   H         1 RES1   0.0000
    29 H6       1.5215   3.7959  -0.0290   H         1 RES1   0.0000
    30 H7       0.0520   3.9375   0.4446   H         1 RES1   0.0000
    31 H8       7.0941   2.8218   4.2237   H         1 RES1   0.0000
    32 H9       7.9848   1.9513   3.3055   H         1 RES1   0.0000
    33 H10      7.8636   3.4663   3.0445   H         1 RES1   0.0000
    34 H11      6.9621   2.1478   0.4639   H         1 RES1   0.0000
    35 H12      4.9239   1.6900  -1.3435   H         1 RES1   0.0000
    36 H13      3.7690   0.9134  -0.6572   H         1 RES1   0.0000
    37 H14      3.6373   2.4385  -0.9182   H         1 RES1   0.0000
    38 H15      2.1066  -1.2525   6.6013   H         1 RES1   0.0000
    39 H16      3.5000  -0.6093   6.4370   H         1 RES1   0.0000
    40 H17      2.3103   0.2423   6.9396   H         1 RES1   0.0000
    41 H18      0.8426  -1.5695   4.1947   H         1 RES1   0.0000
    42 H19      0.0311  -1.0608   1.6624   H         1 RES1   0.0000
    43 H20     -0.0292   0.4590   1.3918   H         1 RES1   0.0000
    44 H21      1.1429  -0.3946   0.8312   H         1 RES1   0.0000
    45 H22      2.0866   1.9460   1.0438   H         1 RES1   0.0000
    46 N1A      5.4473   1.4353   5.8591   N.ar      1 RES1   0.0000
    47 N3A      3.0017   2.9362   6.7695   N.ar      1 RES1   0.0000
    48 N5A      5.1950   4.3494   5.3748   N.ar      1 RES1   0.0000
    49 N2A      5.7909   1.8428   7.1271   N.ar      1 RES1   0.0000
    50 C1A      5.9905   0.2219   5.6986   C.ar      1 RES1   0.0000
    51 N4A      3.8161   3.2055   7.8424   N.ar      1 RES1   0.0000
    52 C6A      1.7472   2.9159   7.2431   C.ar      1 RES1   0.0000
    53 N6A      5.7392   4.3386   6.6429   N.ar      1 RES1   0.0000
    54 C11A     5.7201   5.4395   4.7824   C.ar      1 RES1   0.0000
    55 C3A      6.5105   0.8689   7.7331   C.ar      1 RES1   0.0000
    56 B1A      5.3436   3.2184   7.6423   B         1 RES1   0.0000
    57 C2A      6.6617  -0.1589   6.8507   C.ar      1 RES1   0.0000
    58 C4A      5.8481  -0.5334   4.4238   C.3       1 RES1   0.0000
    59 C8A      3.0669   3.3232   8.9703   C.ar      1 RES1   0.0000
    60 C7A      1.7569   3.1554   8.6146   C.ar      1 RES1   0.0000
    61 C9A      0.5741   2.6849   6.3539   C.3       1 RES1   0.0000
    62 C13A     6.5747   5.3811   6.8072   C.ar      1 RES1   0.0000
    63 C12A     6.5741   6.0995   5.6435   C.ar      1 RES1   0.0000
    64 C14A     5.3781   5.7962   3.3596   C.3       1 RES1   0.0000
    65 C5A      6.9921   0.9967   9.1336   C.3       1 RES1   0.0000
    66 H22A     5.8428   3.4066   8.6214   H         1 RES1   0.0000
    67 H4A      7.1401  -1.0130   6.9976   H         1 RES1   0.0000
    68 H1A      6.6275  -0.4700   3.8371   H         1 RES1   0.0000
    69 H2A      5.1047  -0.1925   3.8661   H         1 RES1   0.0000
    70 H3A      5.6736  -1.4833   4.5137   H         1 RES1   0.0000
    71 C10A     3.6591   3.6012  10.3186   C.3       1 RES1   0.0000
    72 H11A     0.9672   3.2047   9.2013   H         1 RES1   0.0000
    73 H8A      0.8352   2.5307   5.4415   H         1 RES1   0.0000
    74 H9A     -0.0554   3.4013   6.3597   H         1 RES1   0.0000
    75 H10A     0.0657   1.8862   6.6207   H         1 RES1   0.0000
    76 C15A     7.3507   5.6293   8.0492   C.3       1 RES1   0.0000
    77 H18A     7.0867   6.9220   5.4705   H         1 RES1   0.0000
    78 H15A     5.8228   6.6050   3.0639   H         1 RES1   0.0000
    79 H16A     4.4293   5.9618   3.2282   H         1 RES1   0.0000
    80 H17A     5.6191   5.1102   2.7256   H         1 RES1   0.0000
    81 H5A      7.0722   0.1512   9.6266   H         1 RES1   0.0000
    82 H6A      6.4078   1.5566   9.6942   H         1 RES1   0.0000
    83 H7A      7.8773   1.4150   9.2206   H         1 RES1   0.0000
    84 H12A     3.0055   3.6625  11.0087   H         1 RES1   0.0000
    85 H13A     4.1603   4.4391  10.3225   H         1 RES1   0.0000
    86 H14A     4.2921   2.9140  10.5834   H         1 RES1   0.0000
    87 H19A     7.8983   6.4133   8.0028   H         1 RES1   0.0000
    88 H20A     7.9586   4.8935   8.2734   H         1 RES1   0.0000
    89 H21A     6.7864   5.7471   8.8340   H         1 RES1   0.0000
@<TRIPOS>BOND
     1     1     2    1
     2     2     3   ar
     3     3    10   ar
     4     4     1    1
     5     5     4   ar
     6     6     1    1
     7     7     6   ar
     8     8     2   ar
     9     9     8   ar
    10    10     9   ar
    11    11     8    1
    12    12    10    1
    13    13     4   ar
    14    14    13   ar
    15    15     5   ar
    16    16    13    1
    17    17    15    1
    18    18     6   ar
    19    19    18   ar
    20    20     7   ar
    21    21    18    1
    22    22    20    1
    23    23     3    1
    24    24    11    1
    25    25    11    1
    26    26    11    1
    27    27     9    1
    28    28    12    1
    29    29    12    1
    30    30    12    1
    31    31    16    1
    32    32    16    1
    33    33    16    1
    34    34    14    1
    35    35    17    1
    36    36    17    1
    37    37    17    1
    38    38    21    1
    39    39    21    1
    40    40    21    1
    41    41    19    1
    42    42    22    1
    43    43    22    1
    44    44    22    1
    45    45    23    1
    46    46     1    1
    47    47     1    1
    48    48     1    1
    49    49    46   ar
    50    50    46   ar
    51    51    47   ar
    52    52    47   ar
    53    53    48   ar
    54    54    48   ar
    55    55    49   ar
    56    56    49    1
    57    57    50   ar
    58    58    50    1
    59    59    51   ar
    60    60    52   ar
    61    61    52    1
    62    62    53   ar
    63    63    54   ar
    64    64    54    1
    65    65    55    1
    66    66    56    1
    67    67    57    1
    68    68    58    1
    69    69    58    1
    70    70    58    1
    71    71    59    1
    72    72    60    1
    73    73    61    1
    74    74    61    1
    75    75    61    1
    76    76    62    1
    77    77    63    1
    78    78    64    1
    79    79    64    1
    80    80    64    1
    81    81    65    1
    82    82    65    1
    83    83    65    1
    84    84    71    1
    85    85    71    1
    86    86    71    1
    87    87    76    1
    88    88    76    1
    89    89    76    1
    90     5    23    1
    91     7    23    1
    92    14    15   ar
    93    19    20   ar
    94    51    56    1
    95    53    56    1
    96    55    57   ar
    97    59    60   ar
    98    62    63   ar
@<TRIPOS>SUBSTRUCTURE
     1 RES1        1 GROUP             0 ****  ****    0  
@<TRIPOS>CRYSIN
    8.8240   10.2160   10.7870  116.3600   85.2400  100.0900     2     1
