@<TRIPOS>MOLECULE
HMPBFE02
    89    98     1     0     0
SMALL
USER_CHARGES
****
Generated from the CSD

@<TRIPOS>ATOM
     1 C1       5.8502  -0.5376   4.4059   C.3       1 RES1   0.0000
     2 H1       4.9372  -0.5119   4.1097   H         1 RES1   0.0000
     3 H2       6.1136  -1.4487   4.5526   H         1 RES1   0.0000
     4 H3       6.4151  -0.1441   3.7372   H         1 RES1   0.0000
     5 C2       5.9812   0.2275   5.6777   C.2       1 RES1   0.0000
     6 C3       6.6452  -0.1528   6.8453   C.2       1 RES1   0.0000
     7 H4       7.1006  -0.9501   6.9910   H         1 RES1   0.0000
     8 C4       6.4959   0.8717   7.7302   C.2       1 RES1   0.0000
     9 C5       6.9729   0.9927   9.1399   C.3       1 RES1   0.0000
    10 H5       7.6364   1.6844   9.1949   H         1 RES1   0.0000
    11 H6       7.3563   0.1584   9.4217   H         1 RES1   0.0000
    12 H7       6.2325   1.2130   9.7102   H         1 RES1   0.0000
    13 C6       0.5613   2.6778   6.3397   C.3       1 RES1   0.0000
    14 H8      -0.0904   3.3697   6.4767   H         1 RES1   0.0000
    15 H9       0.1722   1.8249   6.5481   H         1 RES1   0.0000
    16 H10      0.8468   2.6842   5.4230   H         1 RES1   0.0000
    17 C7       1.7392   2.9189   7.2303   C.2       1 RES1   0.0000
    18 C8       1.7500   3.1519   8.5996   C.2       1 RES1   0.0000
    19 H11      1.0112   3.1858   9.1631   H         1 RES1   0.0000
    20 C9       3.0576   3.3213   8.9547   C.2       1 RES1   0.0000
    21 C10      3.6469   3.5910  10.3104   C.3       1 RES1   0.0000
    22 H12      4.1274   2.8160  10.6105   H         1 RES1   0.0000
    23 H13      2.9429   3.7919  10.9309   H         1 RES1   0.0000
    24 H14      4.2478   4.3387  10.2544   H         1 RES1   0.0000
    25 C11      5.3633   5.7826   3.3599   C.3       1 RES1   0.0000
    26 H15      4.9984   5.0156   2.9132   H         1 RES1   0.0000
    27 H16      6.1578   6.0709   2.9054   H         1 RES1   0.0000
    28 H17      4.7163   6.4928   3.3561   H         1 RES1   0.0000
    29 C12      5.6988   5.4236   4.7726   C.2       1 RES1   0.0000
    30 C13      6.5586   6.0822   5.6382   C.2       1 RES1   0.0000
    31 H18      7.0381   6.8595   5.4635   H         1 RES1   0.0000
    32 C14      6.5596   5.3636   6.7980   C.2       1 RES1   0.0000
    33 C15      7.3396   5.6131   8.0467   C.3       1 RES1   0.0000
    34 H19      6.7441   5.6203   8.7993   H         1 RES1   0.0000
    35 H20      7.7841   6.4613   7.9820   H         1 RES1   0.0000
    36 H21      7.9915   4.9186   8.1605   H         1 RES1   0.0000
    37 B1       5.3298   3.2151   7.6423   B         1 RES1  -1.0000
    38 H22      5.7622   3.3910   8.5040   H         1 RES1   0.0000
    39 N1       5.4408   1.4308   5.8498   N.2       1 RES1   0.0000
    40 N2       2.9828   2.9397   6.7632   N.2       1 RES1   0.0000
    41 N3       5.1935   4.3538   5.3689   N.2       1 RES1   0.0000
    42 N4       5.7818   1.8368   7.1177   N.pl3     1 RES1   0.0000
    43 N5       3.8039   3.1925   7.8348   N.pl3     1 RES1   0.0000
    44 N6       5.7285   4.3243   6.6366   N.pl3     1 RES1   0.0000
    45 Fe1      3.9551   2.6701   4.8247   Fe        1 RES1   2.0000
    46 C1A      2.0599   5.8778   5.2435   C.3       1 RES1   0.0000
    47 H1A      2.9729   5.8522   5.5397   H         1 RES1   0.0000
    48 H2A      1.7965   6.7890   5.0968   H         1 RES1   0.0000
    49 H3A      1.4951   5.4844   5.9122   H         1 RES1   0.0000
    50 C2A      1.9289   5.1128   3.9717   C.2       1 RES1   0.0000
    51 C3A      1.2649   5.4930   2.8041   C.2       1 RES1   0.0000
    52 H4A      0.8095   6.2903   2.6584   H         1 RES1   0.0000
    53 C4A      1.4142   4.4686   1.9193   C.2       1 RES1   0.0000
    54 C5A      0.9373   4.3475   0.5095   C.3       1 RES1   0.0000
    55 H5A      0.2738   3.6559   0.4545   H         1 RES1   0.0000
    56 H6A      0.5538   5.1819   0.2277   H         1 RES1   0.0000
    57 H7A      1.6777   4.1272  -0.0608   H         1 RES1   0.0000
    58 C6A      7.3488   2.6625   3.3098   C.3       1 RES1   0.0000
    59 H8A      8.0006   1.9706   3.1727   H         1 RES1   0.0000
    60 H9A      7.7379   3.5154   3.1013   H         1 RES1   0.0000
    61 H10A     7.0633   2.6561   4.2265   H         1 RES1   0.0000
    62 C7A      6.1709   2.4214   2.4191   C.2       1 RES1   0.0000
    63 C8A      6.1601   2.1884   1.0499   C.2       1 RES1   0.0000
    64 H11A     6.8989   2.1544   0.4863   H         1 RES1   0.0000
    65 C9A      4.8525   2.0190   0.6948   C.2       1 RES1   0.0000
    66 C10A     4.2632   1.7493  -0.6610   C.3       1 RES1   0.0000
    67 H12A     3.7828   2.5243  -0.9611   H         1 RES1   0.0000
    68 H13A     4.9673   1.5483  -1.2814   H         1 RES1   0.0000
    69 H14A     3.6623   1.0016  -0.6050   H         1 RES1   0.0000
    70 C11A     2.5469  -0.4423   6.2895   C.3       1 RES1   0.0000
    71 H15A     2.9118   0.3247   6.7363   H         1 RES1   0.0000
    72 H16A     1.7523  -0.7306   6.7440   H         1 RES1   0.0000
    73 H17A     3.1939  -1.1525   6.2934   H         1 RES1   0.0000
    74 C12A     2.2114  -0.0833   4.8768   C.2       1 RES1   0.0000
    75 C13A     1.3515  -0.7419   4.0113   C.2       1 RES1   0.0000
    76 H18A     0.8720  -1.5192   4.1859   H         1 RES1   0.0000
    77 C14A     1.3505  -0.0233   2.8514   C.2       1 RES1   0.0000
    78 C15A     0.5705  -0.2729   1.6028   C.3       1 RES1   0.0000
    79 H19A     1.1660  -0.2800   0.8501   H         1 RES1   0.0000
    80 H20A     0.1260  -1.1210   1.6674   H         1 RES1   0.0000
    81 H21A    -0.0813   0.4217   1.4889   H         1 RES1   0.0000
    82 B1A      2.5804   2.1252   2.0071   B         1 RES1  -1.0000
    83 H22A     2.1480   1.9493   1.1454   H         1 RES1   0.0000
    84 N1A      2.4693   3.9095   3.7997   N.2       1 RES1   0.0000
    85 N2A      4.9273   2.4006   2.8862   N.2       1 RES1   0.0000
    86 N3A      2.7167   0.9865   4.2805   N.2       1 RES1   0.0000
    87 N4A      2.1283   3.5035   2.5317   N.pl3     1 RES1   0.0000
    88 N5A      4.1062   2.1478   1.8147   N.pl3     1 RES1   0.0000
    89 N6A      2.1816   1.0160   3.0128   N.pl3     1 RES1   0.0000
@<TRIPOS>BOND
     1     1     2    1
     2     3     1    1
     3     4     1    1
     4     5     1    1
     5     6     5    1
     6     7     6    1
     7     8     6    2
     8     9     8    1
     9    10     9    1
    10    11     9    1
    11    12     9    1
    12    13    14    1
    13    15    13    1
    14    16    13    1
    15    17    13    1
    16    18    17    1
    17    19    18    1
    18    20    18    2
    19    21    20    1
    20    22    21    1
    21    23    21    1
    22    24    21    1
    23    25    26    1
    24    27    25    1
    25    28    25    1
    26    29    25    1
    27    30    29    1
    28    31    30    1
    29    32    30    2
    30    33    32    1
    31    34    33    1
    32    35    33    1
    33    36    33    1
    34    37    38    1
    35    39     5    2
    36    40    17    2
    37    41    29    2
    38    42     8    1
    39    43    20    1
    40    44    32    1
    41    45    39    1
    42    46    47    1
    43    48    46    1
    44    49    46    1
    45    50    46    1
    46    51    50    1
    47    52    51    1
    48    53    51    2
    49    54    53    1
    50    55    54    1
    51    56    54    1
    52    57    54    1
    53    58    59    1
    54    60    58    1
    55    61    58    1
    56    62    58    1
    57    63    62    1
    58    64    63    1
    59    65    63    2
    60    66    65    1
    61    67    66    1
    62    68    66    1
    63    69    66    1
    64    70    71    1
    65    72    70    1
    66    73    70    1
    67    74    70    1
    68    75    74    1
    69    76    75    1
    70    77    75    2
    71    78    77    1
    72    79    78    1
    73    80    78    1
    74    81    78    1
    75    82    83    1
    76    84    45    1
    77    85    45    1
    78    86    45    1
    79    87    53    1
    80    88    65    1
    81    89    77    1
    82    37    42    1
    83    37    43    1
    84    37    44    1
    85    39    42    1
    86    40    43    1
    87    40    45    1
    88    41    44    1
    89    41    45    1
    90    50    84    2
    91    62    85    2
    92    74    86    2
    93    82    87    1
    94    82    88    1
    95    82    89    1
    96    84    87    1
    97    85    88    1
    98    86    89    1
@<TRIPOS>SUBSTRUCTURE
     1 RES1        1 GROUP             0 ****  ****    0  
@<TRIPOS>CRYSIN
    8.8124   10.1928   10.7673  116.3380   85.2440  100.1430     2     1
