@<TRIPOS>MOLECULE
HMPBFE03
    89    98     1     0     0
SMALL
NO_CHARGES
****
Generated from the CSD

@<TRIPOS>ATOM
     1 C1       3.1145  -0.6220   2.7395   C.3       1 RES1   0.0000
     2 H1       2.3835  -0.0509   2.4930   H         1 RES1   0.0000
     3 H2       2.8551  -1.5395   2.6291   H         1 RES1   0.0000
     4 H3       3.8715  -0.4340   2.1794   H         1 RES1   0.0000
     5 C2       3.4797  -0.3751   4.1722   C.ar      1 RES1   0.0000
     6 C3       4.3434  -1.1602   4.9511   C.ar      1 RES1   0.0000
     7 H4       4.7883  -1.9318   4.6853   H         1 RES1   0.0000
     8 C4       4.3986  -0.5570   6.1907   C.ar      1 RES1   0.0000
     9 C5       5.1656  -0.9648   7.4073   C.3       1 RES1   0.0000
    10 H5       5.8192  -0.2926   7.6124   H         1 RES1   0.0000
    11 H6       5.6061  -1.8009   7.2418   H         1 RES1   0.0000
    12 H7       4.5626  -1.0612   8.1476   H         1 RES1   0.0000
    13 C6      -1.5229   2.0842   5.9378   C.3       1 RES1   0.0000
    14 H8      -1.8308   2.9847   6.0601   H         1 RES1   0.0000
    15 H9      -2.2223   1.4716   6.1760   H         1 RES1   0.0000
    16 H10     -1.2807   1.9502   5.0182   H         1 RES1   0.0000
    17 C7      -0.3323   1.8430   6.8050   C.ar      1 RES1   0.0000
    18 C8      -0.3302   1.5813   8.1816   C.ar      1 RES1   0.0000
    19 H11     -1.0724   1.5239   8.7398   H         1 RES1   0.0000
    20 C9       0.9931   1.4243   8.5467   C.ar      1 RES1   0.0000
    21 C10      1.5853   1.0986   9.8746   C.3       1 RES1   0.0000
    22 H12      1.9392   0.2059   9.8571   H         1 RES1   0.0000
    23 H13      0.9071   1.1605  10.5514   H         1 RES1   0.0000
    24 H14      2.2913   1.7189  10.0705   H         1 RES1   0.0000
    25 C11      3.3766   5.4222   4.0361   C.3       1 RES1   0.0000
    26 H15      4.1074   5.3380   3.4200   H         1 RES1   0.0000
    27 H16      3.2690   6.3439   4.2807   H         1 RES1   0.0000
    28 H17      2.5705   5.1048   3.6223   H         1 RES1   0.0000
    29 C12      3.6601   4.6103   5.2619   C.ar      1 RES1   0.0000
    30 C13      4.5202   4.9691   6.3075   C.ar      1 RES1   0.0000
    31 H18      5.0104   5.7552   6.3811   H         1 RES1   0.0000
    32 C14      4.4951   3.9222   7.2087   C.ar      1 RES1   0.0000
    33 C15      5.2170   3.7696   8.5099   C.3       1 RES1   0.0000
    34 H19      4.5802   3.6316   9.2153   H         1 RES1   0.0000
    35 H20      5.7261   4.5636   8.6883   H         1 RES1   0.0000
    36 H21      5.8082   3.0143   8.4612   H         1 RES1   0.0000
    37 B1       3.2610   1.5847   7.2271   B         1 RES1   0.0000
    38 H22      3.7254   1.3802   8.0658   H         1 RES1   0.0000
    39 N1       3.0306   0.6619   4.8993   N.ar      1 RES1   0.0000
    40 N2       0.9307   1.8538   6.3532   N.ar      1 RES1   0.0000
    41 N3       3.1294   3.4032   5.5085   N.ar      1 RES1   0.0000
    42 N4       3.6014   0.5407   6.1446   N.ar      1 RES1   0.0000
    43 N5       1.7384   1.5857   7.4332   N.ar      1 RES1   0.0000
    44 N6       3.6600   2.9826   6.7050   N.ar      1 RES1   0.0000
    45 Fe1      1.8134   2.2083   4.5980   Fe        1 RES1   0.0000
    46 C1A      0.5123   5.0386   6.4565   C.3       1 RES1   0.0000
    47 H1A      1.2433   4.4676   6.7029   H         1 RES1   0.0000
    48 H2A      0.7718   5.9562   6.5668   H         1 RES1   0.0000
    49 H3A     -0.2446   4.8506   7.0165   H         1 RES1   0.0000
    50 C2A      0.1472   4.7917   5.0237   C.ar      1 RES1   0.0000
    51 C3A     -0.7166   5.5769   4.2448   C.ar      1 RES1   0.0000
    52 H4A     -1.1614   6.3484   4.5106   H         1 RES1   0.0000
    53 C4A     -0.7717   4.9736   3.0052   C.ar      1 RES1   0.0000
    54 C5A     -1.5387   5.3814   1.7886   C.3       1 RES1   0.0000
    55 H5A     -2.1923   4.7092   1.5835   H         1 RES1   0.0000
    56 H6A     -1.9792   6.2176   1.9541   H         1 RES1   0.0000
    57 H7A     -0.9358   5.4779   1.0483   H         1 RES1   0.0000
    58 C6A      5.1498   2.3324   3.2581   C.3       1 RES1   0.0000
    59 H8A      5.4577   1.4319   3.1358   H         1 RES1   0.0000
    60 H9A      5.8491   2.9450   3.0199   H         1 RES1   0.0000
    61 H10A     4.9076   2.4664   4.1777   H         1 RES1   0.0000
    62 C7A      3.9592   2.5737   2.3909   C.ar      1 RES1   0.0000
    63 C8A      3.9571   2.8354   1.0143   C.ar      1 RES1   0.0000
    64 H11A     4.6993   2.8927   0.4561   H         1 RES1   0.0000
    65 C9A      2.6338   2.9924   0.6492   C.ar      1 RES1   0.0000
    66 C10A     2.0415   3.3180  -0.6787   C.3       1 RES1   0.0000
    67 H12A     1.6877   4.2107  -0.6612   H         1 RES1   0.0000
    68 H13A     2.7197   3.2561  -1.3555   H         1 RES1   0.0000
    69 H14A     1.3355   2.6978  -0.8745   H         1 RES1   0.0000
    70 C11A     0.2502  -1.0056   5.1598   C.3       1 RES1   0.0000
    71 H15A    -0.4806  -0.9213   5.7760   H         1 RES1   0.0000
    72 H16A     0.3579  -1.9272   4.9152   H         1 RES1   0.0000
    73 H17A     1.0563  -0.6881   5.5737   H         1 RES1   0.0000
    74 C12A    -0.0333  -0.1937   3.9340   C.ar      1 RES1   0.0000
    75 C13A    -0.8933  -0.5524   2.8884   C.ar      1 RES1   0.0000
    76 H18A    -1.3836  -1.3385   2.8149   H         1 RES1   0.0000
    77 C14A    -0.8682   0.4945   1.9872   C.ar      1 RES1   0.0000
    78 C15A    -1.5901   0.6470   0.6860   C.3       1 RES1   0.0000
    79 H19A    -0.9533   0.7850  -0.0193   H         1 RES1   0.0000
    80 H20A    -2.0992  -0.1469   0.5076   H         1 RES1   0.0000
    81 H21A    -2.1813   1.4024   0.7348   H         1 RES1   0.0000
    82 B1A      0.3659   2.8319   1.9689   B         1 RES1   0.0000
    83 H22A    -0.0985   3.0364   1.1302   H         1 RES1   0.0000
    84 N1A      0.5963   3.7547   4.2966   N.ar      1 RES1   0.0000
    85 N2A      2.6961   2.5629   2.8427   N.ar      1 RES1   0.0000
    86 N3A      0.4974   1.0134   3.6875   N.ar      1 RES1   0.0000
    87 N4A      0.0254   3.8759   3.0513   N.ar      1 RES1   0.0000
    88 N5A      1.8885   2.8309   1.7628   N.ar      1 RES1   0.0000
    89 N6A     -0.0332   1.4340   2.4909   N.ar      1 RES1   0.0000
@<TRIPOS>BOND
     1     1     2    1
     2     3     1    1
     3     4     1    1
     4     5     1    1
     5     6     5   ar
     6     7     6    1
     7     8     6   ar
     8     9     8    1
     9    10     9    1
    10    11     9    1
    11    12     9    1
    12    13    14    1
    13    15    13    1
    14    16    13    1
    15    17    13    1
    16    18    17   ar
    17    19    18    1
    18    20    18   ar
    19    21    20    1
    20    22    21    1
    21    23    21    1
    22    24    21    1
    23    25    26    1
    24    27    25    1
    25    28    25    1
    26    29    25    1
    27    30    29   ar
    28    31    30    1
    29    32    30   ar
    30    33    32    1
    31    34    33    1
    32    35    33    1
    33    36    33    1
    34    37    38    1
    35    39     5   ar
    36    40    17   ar
    37    41    29   ar
    38    42     8   ar
    39    43    20   ar
    40    44    32   ar
    41    45    39    1
    42    46    47    1
    43    48    46    1
    44    49    46    1
    45    50    46    1
    46    51    50   ar
    47    52    51    1
    48    53    51   ar
    49    54    53    1
    50    55    54    1
    51    56    54    1
    52    57    54    1
    53    58    59    1
    54    60    58    1
    55    61    58    1
    56    62    58    1
    57    63    62   ar
    58    64    63    1
    59    65    63   ar
    60    66    65    1
    61    67    66    1
    62    68    66    1
    63    69    66    1
    64    70    71    1
    65    72    70    1
    66    73    70    1
    67    74    70    1
    68    75    74   ar
    69    76    75    1
    70    77    75   ar
    71    78    77    1
    72    79    78    1
    73    80    78    1
    74    81    78    1
    75    82    83    1
    76    84    45    1
    77    85    45    1
    78    86    45    1
    79    87    53   ar
    80    88    65   ar
    81    89    77   ar
    82    37    42    1
    83    37    43    1
    84    37    44    1
    85    39    42   ar
    86    40    43   ar
    87    40    45    1
    88    41    44   ar
    89    41    45    1
    90    50    84   ar
    91    62    85   ar
    92    74    86   ar
    93    82    87    1
    94    82    88    1
    95    82    89    1
    96    84    87   ar
    97    85    88   ar
    98    86    89   ar
@<TRIPOS>SUBSTRUCTURE
     1 RES1        1 GROUP             0 ****  ****    0  
@<TRIPOS>CRYSIN
    8.7244   10.4918   10.8211  115.3220   98.4990  109.4770     2     1
