@<TRIPOS>MOLECULE
HOBRAS
    81    85     3     0     0
SMALL
NO_CHARGES
****
Generated from the CSD

@<TRIPOS>ATOM
     1 Fe1     -3.2756  11.5043  18.1202   Fe        1 RES1   0.0000
     2 Cl1     -1.7191   9.9364  17.8945   Cl        1 RES1   0.0000
     3 Cl2     -4.7424  10.2399  16.7437   Cl        1 RES1   0.0000
     4 Cl3     -2.1423  12.6098  19.8149   Cl        1 RES1   0.0000
     5 N1      -2.6809  13.0002  16.6301   N.2       1 RES1   0.0000
     6 N2      -4.7963  12.9917  18.1432   N.ar      1 RES1   0.0000
     7 N3      -4.7576  10.9801  19.6087   N.2       1 RES1   0.0000
     8 N4      -3.2228   5.0894  22.4484   N.1       1 RES1   0.0000
     9 C1      -3.4398  14.0069  16.4601   C.2       1 RES1   0.0000
    10 C2      -4.6684  14.0256  17.3203   C.ar      1 RES1   0.0000
    11 C3      -5.5973  15.0679  17.2913   C.ar      1 RES1   0.0000
    12 H1      -5.4711  15.8081  16.7441   H         1 RES1   0.0000
    13 C4      -6.6828  14.9626  18.0873   C.ar      1 RES1   0.0000
    14 H2      -7.3812  15.6094  18.0271   H         1 RES1   0.0000
    15 C5      -6.7939  13.8253  18.9247   C.ar      1 RES1   0.0000
    16 H3      -7.5343  13.7285  19.4781   H         1 RES1   0.0000
    17 C6      -5.8413  12.8899  18.9205   C.ar      1 RES1   0.0000
    18 C7      -5.7791  11.6829  19.7683   C.2       1 RES1   0.0000
    19 C8      -3.2059  15.1002  15.4942   C.3       1 RES1   0.0000
    20 H4      -2.4469  14.8880  14.9449   H         1 RES1   0.0000
    21 H5      -3.0393  15.9167  15.9689   H         1 RES1   0.0000
    22 H6      -3.9817  15.2071  14.9387   H         1 RES1   0.0000
    23 C9      -6.8932  11.4350  20.7259   C.3       1 RES1   0.0000
    24 H7      -7.0278  10.4895  20.8233   H         1 RES1   0.0000
    25 H8      -7.6976  11.8408  20.3943   H         1 RES1   0.0000
    26 H9      -6.6710  11.8153  21.5799   H         1 RES1   0.0000
    27 C10     -1.4389  12.8848  15.8258   C.ar      1 RES1   0.0000
    28 C11     -1.4709  12.0275  14.7418   C.ar      1 RES1   0.0000
    29 C12     -0.2844  11.8900  14.0411   C.ar      1 RES1   0.0000
    30 H10     -0.2642  11.3264  13.3012   H         1 RES1   0.0000
    31 C13      0.8633  12.5521  14.3956   C.ar      1 RES1   0.0000
    32 C14      0.8415  13.3652  15.5025   C.ar      1 RES1   0.0000
    33 H11      1.6189  13.7879  15.7864   H         1 RES1   0.0000
    34 C15     -0.3955  13.5570  16.2197   C.ar      1 RES1   0.0000
    35 C16     -2.7145  11.2907  14.2733   C.3       1 RES1   0.0000
    36 H12     -2.5563  10.9190  13.4027   H         1 RES1   0.0000
    37 H13     -3.4516  11.9036  14.2298   H         1 RES1   0.0000
    38 H14     -2.9198  10.5862  14.8889   H         1 RES1   0.0000
    39 C17      2.1507  12.3670  13.6307   C.3       1 RES1   0.0000
    40 H15      2.7616  13.0732  13.8546   H         1 RES1   0.0000
    41 H16      1.9690  12.3908  12.6876   H         1 RES1   0.0000
    42 H17      2.5412  11.5199  13.8587   H         1 RES1   0.0000
    43 C18     -0.3467  14.5230  17.3701   C.3       1 RES1   0.0000
    44 H18     -0.7523  14.1223  18.1432   H         1 RES1   0.0000
    45 H19     -0.8229  15.3225  17.1358   H         1 RES1   0.0000
    46 H20      0.5671  14.7403  17.5670   H         1 RES1   0.0000
    47 C19     -4.5304   9.7222  20.3259   C.ar      1 RES1   0.0000
    48 C20     -5.0689   8.5729  19.8388   C.ar      1 RES1   0.0000
    49 H21     -5.6579   8.5966  19.1195   H         1 RES1   0.0000
    50 C21     -4.7340   7.3947  20.4150   C.ar      1 RES1   0.0000
    51 H22     -5.0807   6.6020  20.0751   H         1 RES1   0.0000
    52 C22     -3.9060   7.3608  21.4763   C.ar      1 RES1   0.0000
    53 C23     -3.3944   8.5067  22.0256   C.ar      1 RES1   0.0000
    54 H23     -2.8357   8.4744  22.7697   H         1 RES1   0.0000
    55 C24     -3.7360   9.7239  21.4390   C.ar      1 RES1   0.0000
    56 H24     -3.4298  10.5251  21.7976   H         1 RES1   0.0000
    57 C25     -3.5240   6.1198  22.0504   C.1       1 RES1   0.0000
    58 C26      0.0000   8.4880  12.0160   C.ar      2 RES2   0.0000
    59 H25      0.0000   8.4880  11.0874   H         2 RES2   0.0000
    60 C28      0.0000   8.4880  14.7438   C.ar      2 RES2   0.0000
    61 H27      0.0000   8.4880  15.6745   H         2 RES2   0.0000
    62 C30      1.0737   8.6713  12.7063   C.ar      2 RES2   0.0000
    63 H29      1.8663   8.8241  12.2420   H         2 RES2   0.0000
    64 C31      1.1292   8.6561  14.0577   C.ar      2 RES2   0.0000
    65 H30      1.9421   8.7613  14.4992   H         2 RES2   0.0000
    66 C30A    -1.0737   8.3047  12.7063   C.ar      2 RES2   0.0000
    67 H29A    -1.8663   8.1519  12.2420   H         2 RES2   0.0000
    68 C31A    -1.1292   8.3199  14.0577   C.ar      2 RES2   0.0000
    69 H30A    -1.9421   8.2147  14.4992   H         2 RES2   0.0000
    70 C27      8.4145   8.4880  10.9755   C.ar      3 RES3   0.0000
    71 H26      8.4145   8.4880  10.0448   H         3 RES3   0.0000
    72 C29      8.4145   8.4880  13.4939   C.ar      3 RES3   0.0000
    73 H28      8.4145   8.4880  14.4143   H         3 RES3   0.0000
    74 C32      8.4599   9.5575  11.6077   C.ar      3 RES3   0.0000
    75 H31      8.4869  10.3622  11.1496   H         3 RES3   0.0000
    76 C33      8.4650   9.5575  12.9198   C.ar      3 RES3   0.0000
    77 H32      8.5155  10.3503  13.3986   H         3 RES3   0.0000
    78 C32A     8.3691   7.4185  11.6077   C.ar      3 RES3   0.0000
    79 H31A     8.3421   6.6138  11.1496   H         3 RES3   0.0000
    80 C33A     8.3640   7.4185  12.9198   C.ar      3 RES3   0.0000
    81 H32A     8.3135   6.6257  13.3986   H         3 RES3   0.0000
@<TRIPOS>BOND
     1     1     2    1
     2     3     1    1
     3     4     1    1
     4     5     1    1
     5     6     1    1
     6     7     1    1
     7     8    57    3
     8     9     5    2
     9    10     6   ar
    10    11    10   ar
    11    12    11    1
    12    13    11   ar
    13    14    13    1
    14    15    13   ar
    15    16    15    1
    16    17     6   ar
    17    18     7    2
    18    19     9    1
    19    20    19    1
    20    21    19    1
    21    22    19    1
    22    23    18    1
    23    24    23    1
    24    25    23    1
    25    26    23    1
    26    27     5    1
    27    28    27   ar
    28    29    28   ar
    29    30    29    1
    30    31    29   ar
    31    32    31   ar
    32    33    32    1
    33    34    27   ar
    34    35    28    1
    35    36    35    1
    36    37    35    1
    37    38    35    1
    38    39    31    1
    39    40    39    1
    40    41    39    1
    41    42    39    1
    42    43    34    1
    43    44    43    1
    44    45    43    1
    45    46    43    1
    46    47     7    1
    47    48    47   ar
    48    49    48    1
    49    50    48   ar
    50    51    50    1
    51    52    50   ar
    52    53    52   ar
    53    54    53    1
    54    55    47   ar
    55    56    55    1
    56    57    52    1
    57     9    10    1
    58    15    17   ar
    59    17    18    1
    60    32    34   ar
    61    53    55   ar
    62    58    59    1
    63    60    61    1
    64    62    58   ar
    65    63    62    1
    66    64    60   ar
    67    65    64    1
    68    66    58   ar
    69    67    66    1
    70    68    60   ar
    71    69    68    1
    72    62    64   ar
    73    66    68   ar
    74    70    71    1
    75    72    73    1
    76    74    70   ar
    77    75    74    1
    78    76    72   ar
    79    77    76    1
    80    78    70   ar
    81    79    78    1
    82    80    72   ar
    83    81    80    1
    84    74    76   ar
    85    78    80   ar
@<TRIPOS>SUBSTRUCTURE
     1 RES1        1 GROUP             0 ****  ****    0  
     2 RES2       58 GROUP             0 ****  ****    0  
     3 RES3       70 GROUP             0 ****  ****    0  
@<TRIPOS>CRYSIN
   16.8290   16.9760   20.7280   90.0000   90.0000   90.0000    41     1
