@<TRIPOS>MOLECULE
HOCCUB
    76    84     4     0     0
SMALL
NO_CHARGES
****
Generated from the CSD

@<TRIPOS>ATOM
     1 Fe1      7.2746  11.3225  12.4487   Fe        1 RES1   0.0000
     2 N1       7.7994   9.8408  11.2646   N.2       1 RES1   0.0000
     3 N2       9.0253  11.0131  13.0694   N.ar      1 RES1   0.0000
     4 N3       7.3550  12.7483  13.9169   N.ar      1 RES1   0.0000
     5 N4       7.8348  12.6818  11.1182   N.2       1 RES1   0.0000
     6 N5       5.6394  11.6116  11.5630   N.ar      1 RES1   0.0000
     7 N6       6.0825  10.0867  13.5691   N.ar      1 RES1   0.0000
     8 N7       7.1846  14.0443   9.4177   N.2       1 RES1   0.0000
     9 N8       9.4002   8.3081  10.7374   N.2       1 RES1   0.0000
    10 C1       9.0543   9.3428  11.5209   C.2       1 RES1   0.0000
    11 C2       8.6364  12.8349  14.4441   C.ar      1 RES1   0.0000
    12 C3       4.7960  10.0697  13.0621   C.ar      1 RES1   0.0000
    13 C4       2.4630   9.3722  12.8992   C.ar      1 RES1   0.0000
    14 H1       1.7434   8.8510  13.2378   H         1 RES1   0.0000
    15 C5       9.8017  10.0573  12.5368   C.ar      1 RES1   0.0000
    16 C6       5.5649  12.4390  10.4885   C.ar      1 RES1   0.0000
    17 C7       6.8374  13.0684  10.2908   C.2       1 RES1   0.0000
    18 C8       9.5504  11.8637  13.9682   C.ar      1 RES1   0.0000
    19 C9       6.4536  13.6144  14.3910   C.ar      1 RES1   0.0000
    20 C10      3.2584  11.8018  10.1517   C.ar      1 RES1   0.0000
    21 H2       2.4529  11.8698   9.6520   H         1 RES1   0.0000
    22 C11      3.7394   9.3227  13.5673   C.ar      1 RES1   0.0000
    23 C12      8.3271   8.1612   9.9302   C.2       1 RES1   0.0000
    24 H3       8.2602   7.5039   9.2474   H         1 RES1   0.0000
    25 C13      7.6605   9.3273  15.2678   C.3       1 RES1   0.0000
    26 H4       8.3170   9.0427  14.5978   H         1 RES1   0.0000
    27 H5       7.6782   8.7087  16.0274   H         1 RES1   0.0000
    28 H6       7.8790  10.2305  15.5771   H         1 RES1   0.0000
    29 C14      8.9129  13.4164  10.7594   C.2       1 RES1   0.0000
    30 H7       9.7827  13.3731  11.1401   H         1 RES1   0.0000
    31 C15     10.8697  11.8095  14.3910   C.ar      1 RES1   0.0000
    32 C16      3.3202  10.9373  11.2737   C.ar      1 RES1   0.0000
    33 C17      4.5739  10.8785  11.9181   C.ar      1 RES1   0.0000
    34 C18      9.0606  13.7768  15.3904   C.ar      1 RES1   0.0000
    35 C19      8.5013  14.2454   9.7288   C.2       1 RES1   0.0000
    36 H8       9.0631  14.8748   9.2932   H         1 RES1   0.0000
    37 C20      2.2585  10.1439  11.7991   C.ar      1 RES1   0.0000
    38 H9       1.4064  10.1547  11.3799   H         1 RES1   0.0000
    39 C21     11.2863  12.8055  15.3227   C.ar      1 RES1   0.0000
    40 H10     12.1890  12.8117  15.6174   H         1 RES1   0.0000
    41 C22      6.3009   9.3273  14.6601   C.ar      1 RES1   0.0000
    42 C23     11.6802  10.7641  13.8657   C.ar      1 RES1   0.0000
    43 H11     12.5803  10.6635  14.1530   H         1 RES1   0.0000
    44 C24      7.3386   9.0845  10.2194   C.2       1 RES1   0.0000
    45 H12      6.5029   9.1757   9.7783   H         1 RES1   0.0000
    46 C25     10.4329  13.7381  15.7986   C.ar      1 RES1   0.0000
    47 H13     10.7510  14.3846  16.4191   H         1 RES1   0.0000
    48 C26      4.3491  12.5380   9.7819   C.ar      1 RES1   0.0000
    49 H14      4.2860  13.1257   9.0388   H         1 RES1   0.0000
    50 C27      5.0511  13.5757  13.8748   C.3       1 RES1   0.0000
    51 H15      5.0511  13.7706  12.9157   H         1 RES1   0.0000
    52 H16      4.5133  14.2469  14.3452   H         1 RES1   0.0000
    53 H17      4.6711  12.6864  14.0286   H         1 RES1   0.0000
    54 C28      4.0032   8.5355  14.7186   C.ar      1 RES1   0.0000
    55 H18      3.3278   8.0019  15.1213   H         1 RES1   0.0000
    56 C29      8.0759  14.6707  15.8517   C.ar      1 RES1   0.0000
    57 H19      8.2905  15.3310  16.4997   H         1 RES1   0.0000
    58 C30      5.2808   8.5788  15.2275   C.ar      1 RES1   0.0000
    59 H20      5.4740   8.0715  16.0073   H         1 RES1   0.0000
    60 C31      6.8122  14.5763  15.3575   C.ar      1 RES1   0.0000
    61 H21      6.1494  15.1795  15.6741   H         1 RES1   0.0000
    62 C32     11.1462   9.8933  12.9303   C.ar      1 RES1   0.0000
    63 H22     11.6764   9.1974  12.5605   H         1 RES1   0.0000
    64 Cl1      6.2150  10.3929   7.0483   Cl        2 RES2   0.0000
    65 Cl2      6.2542   7.5070   6.9348   Cl        2 RES2   0.0000
    66 Cl3      7.8184   9.0551   5.0661   Cl        2 RES2   0.0000
    67 C33      7.1972   8.9778   6.6940   C.3       2 RES2   0.0000
    68 H23      7.9711   8.9639   7.3273   H         2 RES2   0.0000
    69 Cl4      9.6855  10.9744  18.0087   Cl        3 RES3   0.0000
    70 Cl5      8.6453  11.6889  20.6013   Cl        3 RES3   0.0000
    71 Cl6      7.0722  12.1498  18.2452   Cl        3 RES3   0.0000
    72 C34      8.2539  11.0826  19.0019   C.3       3 RES3   0.0000
    73 H24      7.8537  10.1717  19.0916   H         3 RES3   0.0000
    74 O1       5.6368  16.0332   7.9881   O.3       4 RES4   0.0000
    75 H25      4.8630  15.6837   7.9350   H         4 RES4   0.0000
    76 H26      6.0875  15.4811   8.4512   H         4 RES4   0.0000
@<TRIPOS>BOND
     1     1     2    1
     2     2    10    1
     3     3     1    1
     4     4     1    1
     5     5     1    1
     6     6     1    1
     7     7     1    1
     8     8    17    2
     9     9    10    2
    10    10    15    1
    11    11     4   ar
    12    12     7   ar
    13    13    14    1
    14    15     3   ar
    15    16     6   ar
    16    17     5    1
    17    18     3   ar
    18    19     4   ar
    19    20    21    1
    20    22    12   ar
    21    23     9    1
    22    24    23    1
    23    25    26    1
    24    27    25    1
    25    28    25    1
    26    29     5    1
    27    30    29    1
    28    31    18   ar
    29    32    20   ar
    30    33     6   ar
    31    34    11   ar
    32    35     8    1
    33    36    35    1
    34    37    13   ar
    35    38    37    1
    36    39    31   ar
    37    40    39    1
    38    41     7   ar
    39    42    31   ar
    40    43    42    1
    41    44     2    1
    42    45    44    1
    43    46    34   ar
    44    47    46    1
    45    48    16   ar
    46    49    48    1
    47    50    19    1
    48    51    50    1
    49    52    50    1
    50    53    50    1
    51    54    22   ar
    52    55    54    1
    53    56    34   ar
    54    57    56    1
    55    58    41   ar
    56    59    58    1
    57    60    19   ar
    58    61    60    1
    59    62    15   ar
    60    63    62    1
    61    11    18   ar
    62    12    33   ar
    63    13    22   ar
    64    16    17    1
    65    20    48   ar
    66    23    44    2
    67    25    41    1
    68    29    35    2
    69    32    33   ar
    70    32    37   ar
    71    39    46   ar
    72    42    62   ar
    73    54    58   ar
    74    56    60   ar
    75    64    67    1
    76    65    67    1
    77    66    67    1
    78    67    68    1
    79    69    72    1
    80    70    72    1
    81    71    72    1
    82    72    73    1
    83    74    75    1
    84    76    74    1
@<TRIPOS>SUBSTRUCTURE
     1 RES1        1 GROUP             0 ****  ****    0  
     2 RES2       64 GROUP             0 ****  ****    0  
     3 RES3       69 GROUP             0 ****  ****    0  
     4 RES4       74 GROUP             0 ****  ****    0  
@<TRIPOS>CRYSIN
   12.6245   15.4656   18.3045   90.0000   90.0000   90.0000    19     1
