@<TRIPOS>MOLECULE
HODSUR
    80    86     3     0     0
SMALL
USER_CHARGES
****
Generated from the CSD

@<TRIPOS>ATOM
     1 C1       9.0711   2.0209  13.2435   C.3       1 RES1   0.0000
     2 H1       9.4823   1.1459  12.9863   H         1 RES1   0.0000
     3 C2       8.3598   1.8693  14.5796   C.3       1 RES1   0.0000
     4 H2       8.9857   1.4722  15.2354   H         1 RES1   0.0000
     5 H3       7.5977   1.2473  14.4717   H         1 RES1   0.0000
     6 C3       7.8445   3.2008  15.1242   C.3       1 RES1   0.0000
     7 H4       7.4876   3.0567  16.0466   H         1 RES1   0.0000
     8 C4       8.9577   4.2291  15.1844   C.3       1 RES1   0.0000
     9 H5       9.6239   3.9449  15.8586   H         1 RES1   0.0000
    10 H6       8.5803   5.0965  15.4787   H         1 RES1   0.0000
    11 C5       9.6635   4.4236  13.8318   C.3       1 RES1   0.0000
    12 H7      10.4350   5.0496  13.9382   H         1 RES1   0.0000
    13 C6      10.1522   3.0849  13.3067   C.3       1 RES1   0.0000
    14 H8      10.8843   2.7621  13.8901   H         1 RES1   0.0000
    15 H9      10.5260   3.2158  12.3997   H         1 RES1   0.0000
    16 C7       8.3962   2.0380  10.9715   C.2       1 RES1   0.0000
    17 H10      8.8813   1.2410  10.7947   H         1 RES1   0.0000
    18 C8       7.8683   2.8790   9.9183   C.ar      1 RES1   0.0000
    19 C9       7.9033   2.5443   8.5642   C.ar      1 RES1   0.0000
    20 C10      7.4902   3.5169   7.6644   C.ar      1 RES1   0.0000
    21 H11      7.4862   3.3320   6.7322   H         1 RES1   0.0000
    22 C11      7.0827   4.7554   8.1263   C.ar      1 RES1   0.0000
    23 H12      6.8281   5.4365   7.5139   H         1 RES1   0.0000
    24 C12      7.0505   4.9914   9.4775   C.ar      1 RES1   0.0000
    25 H13      6.7570   5.8422   9.7837   H         1 RES1   0.0000
    26 C13      8.3556   1.1856   8.1233   C.3       1 RES1   0.0000
    27 H14      8.2988   1.1230   7.1474   H         1 RES1   0.0000
    28 H15      7.7808   0.5026   8.5287   H         1 RES1   0.0000
    29 H16      9.2826   1.0419   8.4070   H         1 RES1   0.0000
    30 C14      5.5214   2.9605  14.4667   C.3       1 RES1   0.0000
    31 H17      4.9734   3.4414  15.1368   H         1 RES1   0.0000
    32 H18      5.7385   2.0684  14.8375   H         1 RES1   0.0000
    33 C15      4.7358   2.7918  13.2345   C.ar      1 RES1   0.0000
    34 C16      3.4671   2.2283  13.2661   C.ar      1 RES1   0.0000
    35 C17      2.8188   2.0552  12.0804   C.ar      1 RES1   0.0000
    36 H19      1.9557   1.6574  12.0623   H         1 RES1   0.0000
    37 C18      3.4223   2.4614  10.9053   C.ar      1 RES1   0.0000
    38 H20      2.9676   2.3603  10.0770   H         1 RES1   0.0000
    39 C19      4.6630   3.0020  10.9384   C.ar      1 RES1   0.0000
    40 H21      5.0769   3.2571  10.1222   H         1 RES1   0.0000
    41 C20      2.8370   1.8235  14.5886   C.3       1 RES1   0.0000
    42 H22      2.6985   2.6205  15.1420   H         1 RES1   0.0000
    43 H23      3.4322   1.2008  15.0567   H         1 RES1   0.0000
    44 H24      1.9755   1.3882  14.4210   H         1 RES1   0.0000
    45 C21      8.5908   6.3015  12.9004   C.2       1 RES1   0.0000
    46 H25      9.3162   6.8525  13.1726   H         1 RES1   0.0000
    47 C22      7.3530   6.8549  12.3934   C.ar      1 RES1   0.0000
    48 C23      7.1555   8.2036  12.0955   C.ar      1 RES1   0.0000
    49 C24      5.8939   8.5755  11.6907   C.ar      1 RES1   0.0000
    50 H26      5.7077   9.4845  11.4881   H         1 RES1   0.0000
    51 C25      4.9067   7.6315  11.5824   C.ar      1 RES1   0.0000
    52 H27      4.0338   7.8886  11.3118   H         1 RES1   0.0000
    53 C26      5.1741   6.3201  11.8608   C.ar      1 RES1   0.0000
    54 H28      4.4806   5.6780  11.7655   H         1 RES1   0.0000
    55 C27      8.2744   9.2048  12.1888   C.3       1 RES1   0.0000
    56 H29      8.9042   9.0601  11.4518   H         1 RES1   0.0000
    57 H30      8.7406   9.0958  13.0434   H         1 RES1   0.0000
    58 H31      7.9066  10.1116  12.1303   H         1 RES1   0.0000
    59 N1       8.1567   2.4585  12.1797   N.2       1 RES1   0.0000
    60 N2       6.7396   3.6871  14.2516   N.3       1 RES1   0.0000
    61 H32      6.5354   4.5915  14.6243   H         1 RES1   0.0000
    62 N3       8.6469   5.0257  12.9591   N.2       1 RES1   0.0000
    63 N4       7.4118   4.0775  10.3802   N.ar      1 RES1   0.0000
    64 N5       5.3351   3.1908  12.1060   N.ar      1 RES1   0.0000
    65 N6       6.3952   5.9096  12.2655   N.ar      1 RES1   0.0000
    66 Fe1      7.1201   4.0595  12.3502   Fe        1 RES1   2.0000
    67 F1       6.9147  -0.2703  12.1346   F         2 RES2   0.0000
    68 F2       7.1275  -1.5203  10.2719   F         2 RES2   0.0000
    69 F3       4.9039  -1.8879  10.2704   F         2 RES2   0.0000
    70 F4       6.1081  -2.3598  12.0955   F         2 RES2   0.0000
    71 F5       5.7216   0.2231  10.2749   F         2 RES2   0.0000
    72 F6       4.6882  -0.6064  12.1045   F         2 RES2   0.0000
    73 P1       5.8995  -1.0579  11.1789   P.3       2 RES2  -1.0000
    74 F7       4.5720   7.2554  17.2051   F         3 RES3   0.0000
    75 F8       2.7446   6.9207  15.8871   F         3 RES3   0.0000
    76 F9       3.9474   5.5163  14.5901   F         3 RES3   0.0000
    77 F10      5.7538   5.8953  15.8946   F         3 RES3   0.0000
    78 F11      4.6672   7.6087  14.9843   F         3 RES3   0.0000
    79 F12      3.8144   5.1773  16.8094   F         3 RES3   0.0000
    80 P2       4.2475   6.3923  15.8999   P.3       3 RES3  -1.0000
@<TRIPOS>BOND
     1     1     2    1
     2     3     1    1
     3     4     3    1
     4     5     3    1
     5     6     3    1
     6     7     6    1
     7     8     6    1
     8     9     8    1
     9    10     8    1
    10    11     8    1
    11    12    11    1
    12    13     1    1
    13    14    13    1
    14    15    13    1
    15    16    17    1
    16    18    16    1
    17    19    18   ar
    18    20    19   ar
    19    21    20    1
    20    22    20   ar
    21    23    22    1
    22    24    22   ar
    23    25    24    1
    24    26    19    1
    25    27    26    1
    26    28    26    1
    27    29    26    1
    28    30    31    1
    29    32    30    1
    30    33    30    1
    31    34    33   ar
    32    35    34   ar
    33    36    35    1
    34    37    35   ar
    35    38    37    1
    36    39    37   ar
    37    40    39    1
    38    41    34    1
    39    42    41    1
    40    43    41    1
    41    44    41    1
    42    45    46    1
    43    47    45    1
    44    48    47   ar
    45    49    48   ar
    46    50    49    1
    47    51    49   ar
    48    52    51    1
    49    53    51   ar
    50    54    53    1
    51    55    48    1
    52    56    55    1
    53    57    55    1
    54    58    55    1
    55    59     1    1
    56    60     6    1
    57    61    60    1
    58    62    11    1
    59    63    18   ar
    60    64    33   ar
    61    65    47   ar
    62    66    59    1
    63    11    13    1
    64    16    59    2
    65    24    63   ar
    66    30    60    1
    67    39    64   ar
    68    45    62    2
    69    53    65   ar
    70    60    66    1
    71    62    66    1
    72    63    66    1
    73    64    66    1
    74    65    66    1
    75    67    73    1
    76    68    73    1
    77    69    73    1
    78    70    73    1
    79    71    73    1
    80    72    73    1
    81    74    80    1
    82    75    80    1
    83    76    80    1
    84    77    80    1
    85    78    80    1
    86    79    80    1
@<TRIPOS>SUBSTRUCTURE
     1 RES1        1 GROUP             0 ****  ****    0  
     2 RES2       67 GROUP             0 ****  ****    0  
     3 RES3       74 GROUP             0 ****  ****    0  
@<TRIPOS>CRYSIN
   14.0030   14.3020   15.0460   90.0000   90.0000   90.0000    29     1
