@<TRIPOS>MOLECULE
HOGFER
    90    96     3     0     0
SMALL
USER_CHARGES
****
Generated from the CSD

@<TRIPOS>ATOM
     1 Fe1     -0.3632  14.4860   6.8615   Fe        1 RES1   1.0000
     2 C1      -4.2867   9.8516   6.2730   C.ar      1 RES1   0.0000
     3 H1      -4.1734   9.2080   6.9347   H         1 RES1   0.0000
     4 C2      -3.2366  10.7205   5.9668   C.ar      1 RES1   0.0000
     5 C3      -0.9575   9.7167   5.7216   C.ar      1 RES1   0.0000
     6 C4      -1.8747  10.5063   6.6673   C.3       1 RES1   0.0000
     7 C5      -1.3102  11.8943   7.0785   C.2       1 RES1   0.0000
     8 C6      -0.7213  10.1510   4.4149   C.ar      1 RES1   0.0000
     9 H2      -1.0694  10.9657   4.1311   H         1 RES1   0.0000
    10 C7       0.0295   9.3800   3.5341   C.ar      1 RES1   0.0000
    11 H3       0.1835   9.6852   2.6685   H         1 RES1   0.0000
    12 C8      -3.4440  11.7001   4.9990   C.ar      1 RES1   0.0000
    13 H4      -2.7664  12.3040   4.8006   H         1 RES1   0.0000
    14 C9      -0.4234   8.4969   6.1212   C.ar      1 RES1   0.0000
    15 H5      -0.5661   8.1938   6.9879   H         1 RES1   0.0000
    16 C10      0.3248   7.7224   5.2360   C.ar      1 RES1   0.0000
    17 H6       0.6760   6.9088   5.5177   H         1 RES1   0.0000
    18 C11     -4.6640  11.7782   4.3269   C.ar      1 RES1   0.0000
    19 H7      -4.7894  12.4305   3.6766   H         1 RES1   0.0000
    20 C12     -5.5019   9.9397   5.5993   C.ar      1 RES1   0.0000
    21 H8      -6.1925   9.3523   5.8087   H         1 RES1   0.0000
    22 C13     -5.6845  10.8976   4.6184   C.ar      1 RES1   0.0000
    23 H9      -6.4911  10.9480   4.1578   H         1 RES1   0.0000
    24 C14      0.5495   8.1580   3.9381   C.ar      1 RES1   0.0000
    25 H10      1.0423   7.6367   3.3456   H         1 RES1   0.0000
    26 O1      -2.0479   9.7464   7.8486   O.3       1 RES1   0.0000
    27 H11     -2.1974  10.2511   8.4791   H         1 RES1   0.0000
    28 O2      -0.8012  12.6227   6.1686   O.co2     1 RES1   0.0000
    29 O3      -1.4368  12.2387   8.2665   O.co2     1 RES1   0.0000
    30 N1      -0.5836  15.4448   8.8871   N.3       1 RES1   0.0000
    31 N2       0.3110  16.5056   6.4919   N.ar      1 RES1   0.0000
    32 N3      -2.4098  15.2555   6.8394   N.ar      1 RES1   0.0000
    33 N4       1.4928  13.9698   7.8587   N.ar      1 RES1   0.0000
    34 C15      1.2953  19.0849   6.1762   C.ar      1 RES1   0.0000
    35 H12      1.6202  19.9496   6.0674   H         1 RES1   0.0000
    36 C16      0.7460  16.9328   5.2923   C.ar      1 RES1   0.0000
    37 C17      0.3530  17.3549   7.5348   C.ar      1 RES1   0.0000
    38 C18     -2.0181  15.3276   9.2209   C.3       1 RES1   0.0000
    39 H13     -2.2296  15.9193   9.9608   H         1 RES1   0.0000
    40 H14     -2.2143  14.4190   9.4967   H         1 RES1   0.0000
    41 C19      0.2404  14.6471   9.8206   C.3       1 RES1   0.0000
    42 H15     -0.2709  13.8797  10.1186   H         1 RES1   0.0000
    43 H16      0.4501  15.1869  10.5998   H         1 RES1   0.0000
    44 C20      0.8519  18.6470   7.4142   C.ar      1 RES1   0.0000
    45 H17      0.8865  19.2105   8.1539   H         1 RES1   0.0000
    46 C21      1.2454  18.2069   5.1000   C.ar      1 RES1   0.0000
    47 H18      1.5454  18.4737   4.2605   H         1 RES1   0.0000
    48 C22      1.5232  14.1713   9.1899   C.ar      1 RES1   0.0000
    49 C23     -4.3959  16.1037   5.8072   C.ar      1 RES1   0.0000
    50 H19     -4.9107  16.2122   5.0403   H         1 RES1   0.0000
    51 C24      2.5746  13.4110   7.2763   C.ar      1 RES1   0.0000
    52 H20      2.5684  13.2849   6.3546   H         1 RES1   0.0000
    53 C25      3.7097  13.2323   9.3588   C.ar      1 RES1   0.0000
    54 H21      4.4453  12.9698   9.8638   H         1 RES1   0.0000
    55 C26     -2.8684  15.6876   8.0262   C.ar      1 RES1   0.0000
    56 C27      2.6234  13.8400   9.9630   C.ar      1 RES1   0.0000
    57 H22      2.6315  14.0239  10.8756   H         1 RES1   0.0000
    58 C28     -3.1702  15.4594   5.7503   C.ar      1 RES1   0.0000
    59 H23     -2.8619  15.1558   4.9262   H         1 RES1   0.0000
    60 C29      0.6509  15.9563   4.1562   C.3       1 RES1   0.0000
    61 H24     -0.0693  16.2144   3.5586   H         1 RES1   0.0000
    62 H25      1.4796  15.9525   3.6518   H         1 RES1   0.0000
    63 C30      3.6850  13.0204   7.9863   C.ar      1 RES1   0.0000
    64 H26      4.4068  12.6213   7.5547   H         1 RES1   0.0000
    65 C31     -4.8386  16.5815   7.0246   C.ar      1 RES1   0.0000
    66 H27     -5.6469  17.0378   7.0830   H         1 RES1   0.0000
    67 C32     -4.0685  16.3753   8.1571   C.ar      1 RES1   0.0000
    68 H28     -4.3488  16.6894   8.9869   H         1 RES1   0.0000
    69 C33     -0.1724  16.8665   8.8490   C.3       1 RES1   0.0000
    70 H29      0.5122  17.0045   9.5214   H         1 RES1   0.0000
    71 H30     -0.9359  17.4129   9.0954   H         1 RES1   0.0000
    72 O4       0.4017  14.6613   4.6854   O.3       1 RES1   0.0000
    73 C34      0.7615  13.5992   3.7625   C.3       1 RES1   0.0000
    74 H31      1.7026  13.6822   3.5434   H         1 RES1   0.0000
    75 H32      0.6378  12.7456   4.2072   H         1 RES1   0.0000
    76 C35     -0.0027  13.5998   2.5361   C.2       1 RES1   0.0000
    77 H33     -0.9294  13.6711   2.5848   H         1 RES1   0.0000
    78 C36      0.5762  13.5028   1.3323   C.2       1 RES1   0.0000
    79 H34      1.5010  13.4314   1.2667   H         1 RES1   0.0000
    80 H35      0.0539  13.5068   0.5630   H         1 RES1   0.0000
    81 Cl1      2.0995   4.6011   7.5268   Cl        2 RES2   0.0000
    82 O5       2.3444   4.2962   8.9084   O.2       2 RES2   0.0000
    83 O6       3.0033   5.5801   7.0191   O.2       2 RES2   0.0000
    84 O7       2.1223   3.4355   6.7449   O.2       2 RES2   0.0000
    85 O8       0.7719   5.1422   7.4332   O.3       2 RES2  -1.0000
    86 Cl2      0.4044  -0.0672   8.3136   Cl        3 RES3   0.0000
    87 Cl3      0.9726   1.3991  10.7558   Cl        3 RES3   0.0000
    88 C37      1.1875   1.3336   9.0275   C.3       3 RES3   0.0000
    89 H36      2.1358   1.3050   8.8253   H         3 RES3   0.0000
    90 H37      0.8229   2.1394   8.6294   H         3 RES3   0.0000
@<TRIPOS>BOND
     1     1    28    1
     2     2     3    1
     3     4     2   ar
     4     5     6    1
     5     6     4    1
     6     7     6    1
     7     8     5   ar
     8     9     8    1
     9    10     8   ar
    10    11    10    1
    11    12     4   ar
    12    13    12    1
    13    14     5   ar
    14    15    14    1
    15    16    14   ar
    16    17    16    1
    17    18    12   ar
    18    19    18    1
    19    20     2   ar
    20    21    20    1
    21    22    18   ar
    22    23    22    1
    23    24    10   ar
    24    25    24    1
    25    26     6    1
    26    27    26    1
    27    28     7    1
    28    29     7    2
    29    30     1    1
    30    31     1    1
    31    32     1    1
    32    33     1    1
    33    34    35    1
    34    36    31   ar
    35    37    31   ar
    36    38    30    1
    37    39    38    1
    38    40    38    1
    39    41    30    1
    40    42    41    1
    41    43    41    1
    42    44    34   ar
    43    45    44    1
    44    46    34   ar
    45    47    46    1
    46    48    33   ar
    47    49    50    1
    48    51    33   ar
    49    52    51    1
    50    53    54    1
    51    55    32   ar
    52    56    48   ar
    53    57    56    1
    54    58    32   ar
    55    59    58    1
    56    60    36    1
    57    61    60    1
    58    62    60    1
    59    63    51   ar
    60    64    63    1
    61    65    49   ar
    62    66    65    1
    63    67    55   ar
    64    68    67    1
    65    69    30    1
    66    70    69    1
    67    71    69    1
    68    72     1    1
    69    73    72    1
    70    74    73    1
    71    75    73    1
    72    76    73    1
    73    77    76    1
    74    78    76    2
    75    79    78    1
    76    80    78    1
    77    16    24   ar
    78    20    22   ar
    79    36    46   ar
    80    37    44   ar
    81    37    69    1
    82    38    55    1
    83    41    48    1
    84    49    58   ar
    85    53    56   ar
    86    53    63   ar
    87    60    72    1
    88    65    67   ar
    89    81    82    2
    90    83    81    2
    91    84    81    2
    92    85    81    1
    93    86    88    1
    94    87    88    1
    95    88    89    1
    96    90    88    1
@<TRIPOS>SUBSTRUCTURE
     1 RES1        1 GROUP             0 ****  ****    0  
     2 RES2       81 GROUP             0 ****  ****    0  
     3 RES3       86 GROUP             0 ****  ****    0  
@<TRIPOS>CRYSIN
    8.8486   22.1933   19.4135   90.0000  101.5560   90.0000    14     1
