@<TRIPOS>MOLECULE
HOLBOB
   150   163     3     0     0
SMALL
USER_CHARGES
****
Generated from the CSD

@<TRIPOS>ATOM
     1 C1       4.1662   0.8804   0.6775   C.3       1 RES1   0.0000
     2 H1       3.6915   0.2019   0.1349   H         1 RES1   0.0000
     3 H2       3.5106   1.5656   0.9627   H         1 RES1   0.0000
     4 C2       4.7843   0.2342   1.8753   C.2       1 RES1   0.0000
     5 C3       4.2745  -0.3079   3.0281   C.2       1 RES1   0.0000
     6 H3       3.3671  -0.3236   3.3099   H         1 RES1   0.0000
     7 C4       5.4037  -1.6253   4.9088   C.3       1 RES1   0.0000
     8 H4       4.5066  -1.9863   5.1207   H         1 RES1   0.0000
     9 H5       5.6999  -1.0633   5.6680   H         1 RES1   0.0000
    10 C5       6.3748  -2.7523   4.6947   C.ar      1 RES1   0.0000
    11 C6       7.5966  -2.7659   5.3421   C.ar      1 RES1   0.0000
    12 H6       7.8067  -2.0911   5.9765   H         1 RES1   0.0000
    13 C7       8.5142  -3.7662   5.0633   C.ar      1 RES1   0.0000
    14 H7       9.3521  -3.7800   5.5114   H         1 RES1   0.0000
    15 C8       8.2115  -4.7447   4.1285   C.ar      1 RES1   0.0000
    16 H8       8.8486  -5.4212   3.9316   H         1 RES1   0.0000
    17 C9       6.9833  -4.7465   3.4794   C.ar      1 RES1   0.0000
    18 H9       6.7727  -5.4227   2.8464   H         1 RES1   0.0000
    19 C10      6.0675  -3.7484   3.7691   C.ar      1 RES1   0.0000
    20 H10      5.2240  -3.7430   3.3332   H         1 RES1   0.0000
    21 C11      5.7179   2.7580   0.5452   C.3       1 RES1   0.0000
    22 H11      5.1963   3.5319   0.2155   H         1 RES1   0.0000
    23 H12      5.5686   2.6813   1.5209   H         1 RES1   0.0000
    24 C12      7.1611   2.9850   0.2825   C.2       1 RES1   0.0000
    25 C13      7.9204   4.1175   0.1347   C.2       1 RES1   0.0000
    26 H13      7.6221   5.0190   0.1085   H         1 RES1   0.0000
    27 C14     10.4387   4.4325  -0.0981   C.3       1 RES1   0.0000
    28 H14     11.1321   4.0281   0.4821   H         1 RES1   0.0000
    29 H15     10.2843   5.3595   0.2124   H         1 RES1   0.0000
    30 C15     10.9416   4.4641  -1.5263   C.ar      1 RES1   0.0000
    31 C16     11.6131   3.3635  -2.0542   C.ar      1 RES1   0.0000
    32 H16     11.7582   2.5935  -1.5162   H         1 RES1   0.0000
    33 C17     12.0692   3.3886  -3.3656   C.ar      1 RES1   0.0000
    34 H17     12.5260   2.6366  -3.7239   H         1 RES1   0.0000
    35 C18     11.8614   4.5104  -4.1522   C.ar      1 RES1   0.0000
    36 H18     12.1734   4.5259  -5.0494   H         1 RES1   0.0000
    37 C19     11.1970   5.6092  -3.6302   C.ar      1 RES1   0.0000
    38 H19     11.0532   6.3750  -4.1719   H         1 RES1   0.0000
    39 C20     10.7409   5.5938  -2.3187   C.ar      1 RES1   0.0000
    40 H20     10.2934   6.3519  -1.9627   H         1 RES1   0.0000
    41 C21      4.7544   1.8404  -1.5119   C.3       1 RES1   0.0000
    42 H21      4.6006   0.9939  -2.0015   H         1 RES1   0.0000
    43 H22      5.4625   2.3392  -1.9906   H         1 RES1   0.0000
    44 C22      3.4870   2.6530  -1.5410   C.2       1 RES1   0.0000
    45 C23      3.2655   4.0102  -1.4771   C.2       1 RES1   0.0000
    46 H23      3.9142   4.7015  -1.4201   H         1 RES1   0.0000
    47 C24      1.1055   5.3598  -1.4020   C.3       1 RES1   0.0000
    48 H24      0.2975   5.2578  -1.9643   H         1 RES1   0.0000
    49 H25      1.6216   6.1316  -1.7488   H         1 RES1   0.0000
    50 C25      0.6824   5.6472   0.0291   C.ar      1 RES1   0.0000
    51 C26      1.1603   6.7647   0.7069   C.ar      1 RES1   0.0000
    52 H26      1.7699   7.3520   0.2775   H         1 RES1   0.0000
    53 C27      0.7480   7.0284   2.0139   C.ar      1 RES1   0.0000
    54 H27      1.0812   7.7943   2.4681   H         1 RES1   0.0000
    55 C28     -0.1336   6.1886   2.6464   C.ar      1 RES1   0.0000
    56 H28     -0.4079   6.3704   3.5363   H         1 RES1   0.0000
    57 C29     -0.6238   5.0714   1.9798   C.ar      1 RES1   0.0000
    58 H29     -1.2350   4.4858   2.4138   H         1 RES1   0.0000
    59 C30     -0.2134   4.8145   0.6704   C.ar      1 RES1   0.0000
    60 H30     -0.5544   4.0543   0.2139   H         1 RES1   0.0000
    61 N1       5.2453   1.5151  -0.1308   N.3       1 RES1   0.0000
    62 N2       6.1255   0.0251   1.9001   N.2       1 RES1   0.0000
    63 N3       6.4755  -0.6169   2.9996   N.2       1 RES1   0.0000
    64 N4       5.3442  -0.8139   3.6716   N.pl3     1 RES1   0.0000
    65 N5       8.0069   1.9174   0.2553   N.2       1 RES1   0.0000
    66 N6       9.2496   2.3273   0.0981   N.2       1 RES1   0.0000
    67 N7       9.1896   3.6638   0.0341   N.pl3     1 RES1   0.0000
    68 N8       2.2771   2.0392  -1.6179   N.2       1 RES1   0.0000
    69 N9       1.3309   2.9451  -1.6074   N.2       1 RES1   0.0000
    70 N10      1.9282   4.1417  -1.5125   N.pl3     1 RES1   0.0000
    71 Fe1      7.0377   0.0000   0.0000   Fe        1 RES1   2.0000
    72 C1B      9.9093  -0.8804  -0.6775   C.3       1 RES1   0.0000
    73 H1B     10.3840  -0.2019  -0.1349   H         1 RES1   0.0000
    74 H2B     10.5649  -1.5656  -0.9627   H         1 RES1   0.0000
    75 C2B      9.2912  -0.2342  -1.8753   C.2       1 RES1   0.0000
    76 C3B      9.8010   0.3079  -3.0281   C.2       1 RES1   0.0000
    77 H3B     10.7084   0.3236  -3.3099   H         1 RES1   0.0000
    78 C4B      8.6718   1.6253  -4.9088   C.3       1 RES1   0.0000
    79 H4B      9.5689   1.9863  -5.1207   H         1 RES1   0.0000
    80 H5B      8.3756   1.0633  -5.6680   H         1 RES1   0.0000
    81 C5B      7.7007   2.7523  -4.6947   C.ar      1 RES1   0.0000
    82 C6B      6.4789   2.7659  -5.3421   C.ar      1 RES1   0.0000
    83 H6B      6.2688   2.0911  -5.9765   H         1 RES1   0.0000
    84 C7B      5.5613   3.7662  -5.0633   C.ar      1 RES1   0.0000
    85 H7B      4.7234   3.7800  -5.5114   H         1 RES1   0.0000
    86 C8B      5.8640   4.7447  -4.1285   C.ar      1 RES1   0.0000
    87 H8B      5.2269   5.4212  -3.9316   H         1 RES1   0.0000
    88 C9B      7.0922   4.7465  -3.4794   C.ar      1 RES1   0.0000
    89 H9B      7.3028   5.4227  -2.8464   H         1 RES1   0.0000
    90 C10B     8.0080   3.7484  -3.7691   C.ar      1 RES1   0.0000
    91 H10B     8.8515   3.7430  -3.3332   H         1 RES1   0.0000
    92 C11B     8.3576  -2.7580  -0.5452   C.3       1 RES1   0.0000
    93 H11B     8.8792  -3.5319  -0.2155   H         1 RES1   0.0000
    94 H12B     8.5069  -2.6813  -1.5209   H         1 RES1   0.0000
    95 C12B     6.9144  -2.9850  -0.2825   C.2       1 RES1   0.0000
    96 C13B     6.1551  -4.1175  -0.1347   C.2       1 RES1   0.0000
    97 H13B     6.4534  -5.0190  -0.1085   H         1 RES1   0.0000
    98 C14B     3.6368  -4.4325   0.0981   C.3       1 RES1   0.0000
    99 H14B     2.9434  -4.0281  -0.4821   H         1 RES1   0.0000
   100 H15B     3.7912  -5.3595  -0.2124   H         1 RES1   0.0000
   101 C15B     3.1339  -4.4641   1.5263   C.ar      1 RES1   0.0000
   102 C16B     2.4624  -3.3635   2.0542   C.ar      1 RES1   0.0000
   103 H16B     2.3173  -2.5935   1.5162   H         1 RES1   0.0000
   104 C17B     2.0063  -3.3886   3.3656   C.ar      1 RES1   0.0000
   105 H17B     1.5495  -2.6366   3.7239   H         1 RES1   0.0000
   106 C18B     2.2141  -4.5104   4.1522   C.ar      1 RES1   0.0000
   107 H18B     1.9021  -4.5259   5.0494   H         1 RES1   0.0000
   108 C19B     2.8785  -5.6092   3.6302   C.ar      1 RES1   0.0000
   109 H19B     3.0223  -6.3750   4.1719   H         1 RES1   0.0000
   110 C20B     3.3346  -5.5938   2.3187   C.ar      1 RES1   0.0000
   111 H20B     3.7821  -6.3519   1.9627   H         1 RES1   0.0000
   112 C21B     9.3211  -1.8404   1.5119   C.3       1 RES1   0.0000
   113 H21B     9.4749  -0.9939   2.0015   H         1 RES1   0.0000
   114 H22B     8.6130  -2.3392   1.9906   H         1 RES1   0.0000
   115 C22B    10.5885  -2.6530   1.5410   C.2       1 RES1   0.0000
   116 C23B    10.8100  -4.0102   1.4771   C.2       1 RES1   0.0000
   117 H23B    10.1613  -4.7015   1.4201   H         1 RES1   0.0000
   118 C24B    12.9700  -5.3598   1.4020   C.3       1 RES1   0.0000
   119 H24B    13.7780  -5.2578   1.9643   H         1 RES1   0.0000
   120 H25B    12.4539  -6.1316   1.7488   H         1 RES1   0.0000
   121 C25B    13.3931  -5.6472  -0.0291   C.ar      1 RES1   0.0000
   122 C26B    12.9152  -6.7647  -0.7069   C.ar      1 RES1   0.0000
   123 H26B    12.3056  -7.3520  -0.2775   H         1 RES1   0.0000
   124 C27B    13.3275  -7.0284  -2.0139   C.ar      1 RES1   0.0000
   125 H27B    12.9943  -7.7943  -2.4681   H         1 RES1   0.0000
   126 C28B    14.2091  -6.1886  -2.6464   C.ar      1 RES1   0.0000
   127 H28B    14.4834  -6.3704  -3.5363   H         1 RES1   0.0000
   128 C29B    14.6993  -5.0714  -1.9798   C.ar      1 RES1   0.0000
   129 H29B    15.3105  -4.4858  -2.4138   H         1 RES1   0.0000
   130 C30B    14.2889  -4.8145  -0.6704   C.ar      1 RES1   0.0000
   131 H30B    14.6299  -4.0543  -0.2139   H         1 RES1   0.0000
   132 N1B      8.8302  -1.5151   0.1308   N.3       1 RES1   0.0000
   133 N2B      7.9500  -0.0251  -1.9001   N.2       1 RES1   0.0000
   134 N3B      7.6000   0.6169  -2.9996   N.2       1 RES1   0.0000
   135 N4B      8.7313   0.8139  -3.6716   N.pl3     1 RES1   0.0000
   136 N5B      6.0686  -1.9174  -0.2553   N.2       1 RES1   0.0000
   137 N6B      4.8259  -2.3273  -0.0981   N.2       1 RES1   0.0000
   138 N7B      4.8859  -3.6638  -0.0341   N.pl3     1 RES1   0.0000
   139 N8B     11.7984  -2.0392   1.6179   N.2       1 RES1   0.0000
   140 N9B     12.7446  -2.9451   1.6074   N.2       1 RES1   0.0000
   141 N10B    12.1473  -4.1417   1.5125   N.pl3     1 RES1   0.0000
   142 C31     11.9519   8.2319   5.5191   C.3       2 RES2   0.0000
   143 Cl1     11.0366   7.9646   4.0362   Cl        2 RES2   0.0000
   144 Cl2     13.4032   9.1861   5.1557   Cl        2 RES2   0.0000
   145 Cl3     10.9553   9.0542   6.7096   Cl        2 RES2   0.0000
   146 B1       8.9518   8.0378   0.8666   B         3 RES3  -1.0000
   147 F1       8.4931   9.3282   0.5728   F         3 RES3   0.0000
   148 F2       8.6268   7.2016  -0.1912   F         3 RES3   0.0000
   149 F3      10.3239   8.0958   1.0009   F         3 RES3   0.0000
   150 F4       8.4022   7.5750   2.0180   F         3 RES3   0.0000
@<TRIPOS>BOND
     1     1     2    1
     2     3     1    1
     3     4     1    1
     4     5     4    2
     5     6     5    1
     6     7     8    1
     7     9     7    1
     8    10     7    1
     9    11    10   ar
    10    12    11    1
    11    13    11   ar
    12    14    13    1
    13    15    13   ar
    14    16    15    1
    15    17    15   ar
    16    18    17    1
    17    19    10   ar
    18    20    19    1
    19    21    22    1
    20    23    21    1
    21    24    21    1
    22    25    24    2
    23    26    25    1
    24    27    28    1
    25    29    27    1
    26    30    27    1
    27    31    30   ar
    28    32    31    1
    29    33    31   ar
    30    34    33    1
    31    35    33   ar
    32    36    35    1
    33    37    35   ar
    34    38    37    1
    35    39    30   ar
    36    40    39    1
    37    41    42    1
    38    43    41    1
    39    44    41    1
    40    45    44    2
    41    46    45    1
    42    47    48    1
    43    49    47    1
    44    50    47    1
    45    51    50   ar
    46    52    51    1
    47    53    51   ar
    48    54    53    1
    49    55    53   ar
    50    56    55    1
    51    57    55   ar
    52    58    57    1
    53    59    50   ar
    54    60    59    1
    55    61     1    1
    56    62     4    1
    57    63    62    2
    58    64     5    1
    59    65    24    1
    60    66    65    2
    61    67    25    1
    62    68    44    1
    63    69    68    2
    64    70    45    1
    65    71    61    1
    66    72    73    1
    67    74    72    1
    68    75    72    1
    69    76    75    2
    70    77    76    1
    71    78    79    1
    72    80    78    1
    73    81    78    1
    74    82    81   ar
    75    83    82    1
    76    84    82   ar
    77    85    84    1
    78    86    84   ar
    79    87    86    1
    80    88    86   ar
    81    89    88    1
    82    90    81   ar
    83    91    90    1
    84    92    93    1
    85    94    92    1
    86    95    92    1
    87    96    95    2
    88    97    96    1
    89    98    99    1
    90   100    98    1
    91   101    98    1
    92   102   101   ar
    93   103   102    1
    94   104   102   ar
    95   105   104    1
    96   106   104   ar
    97   107   106    1
    98   108   106   ar
    99   109   108    1
   100   110   101   ar
   101   111   110    1
   102   112   113    1
   103   114   112    1
   104   115   112    1
   105   116   115    2
   106   117   116    1
   107   118   119    1
   108   120   118    1
   109   121   118    1
   110   122   121   ar
   111   123   122    1
   112   124   122   ar
   113   125   124    1
   114   126   124   ar
   115   127   126    1
   116   128   126   ar
   117   129   128    1
   118   130   121   ar
   119   131   130    1
   120   132    71    1
   121   133    71    1
   122   134   133    2
   123   135    76    1
   124   136    71    1
   125   137   136    2
   126   138    96    1
   127   139   115    1
   128   140   139    2
   129   141   116    1
   130     7    64    1
   131    17    19   ar
   132    21    61    1
   133    27    67    1
   134    37    39   ar
   135    41    61    1
   136    47    70    1
   137    57    59   ar
   138    62    71    1
   139    63    64    1
   140    65    71    1
   141    66    67    1
   142    69    70    1
   143    72   132    1
   144    75   133    1
   145    78   135    1
   146    88    90   ar
   147    92   132    1
   148    95   136    1
   149    98   138    1
   150   108   110   ar
   151   112   132    1
   152   118   141    1
   153   128   130   ar
   154   134   135    1
   155   137   138    1
   156   140   141    1
   157   142   143    1
   158   144   142    1
   159   145   142    1
   160   146   147    1
   161   148   146    1
   162   149   146    1
   163   150   146    1
@<TRIPOS>SUBSTRUCTURE
     1 RES1        1 GROUP             0 ****  ****    0  
     2 RES2      142 GROUP             0 ****  ****    0  
     3 RES3      146 GROUP             0 ****  ****    0  
@<TRIPOS>CRYSIN
   14.0755   15.4098   16.4140   90.0000  109.1770   90.0000    14     1
