@<TRIPOS>MOLECULE
HOLSOT
    75    81     1     0     0
SMALL
USER_CHARGES
****
Generated from the CSD

@<TRIPOS>ATOM
     1 Fe1      3.3884   6.5434  13.1047   Fe        1 RES1   2.0000
     2 N1       4.3301   6.5522  11.3466   N.ar      1 RES1   0.0000
     3 N2       2.3137   8.0426  12.1828   N.3       1 RES1   0.0000
     4 N3       2.1289   5.2476  12.3773   N.1       1 RES1   0.0000
     5 C1       5.5093   5.9723  11.0324   C.ar      1 RES1   0.0000
     6 H1       6.0301   5.5950  11.7313   H         1 RES1   0.0000
     7 C2       5.9940   5.9033   9.7384   C.ar      1 RES1   0.0000
     8 H2       6.8331   5.4963   9.5612   H         1 RES1   0.0000
     9 C3       5.2384   6.4360   8.7022   C.ar      1 RES1   0.0000
    10 H3       5.5411   6.3807   7.8034   H         1 RES1   0.0000
    11 C4       4.0315   7.0508   9.0101   C.ar      1 RES1   0.0000
    12 H4       3.4994   7.4341   8.3224   H         1 RES1   0.0000
    13 C5       3.6106   7.0989  10.3323   C.ar      1 RES1   0.0000
    14 C6       2.2933   7.7029  10.7301   C.3       1 RES1   0.0000
    15 H5       2.1262   8.5211  10.1972   H         1 RES1   0.0000
    16 H6       1.5623   7.0607  10.5467   H         1 RES1   0.0000
    17 C7       3.1366   9.2759  12.3932   C.3       1 RES1   0.0000
    18 H7       2.5871  10.0819  12.2276   H         1 RES1   0.0000
    19 H8       3.9003   9.2856  11.7628   H         1 RES1   0.0000
    20 C8       0.9017   8.2431  12.6785   C.3       1 RES1   0.0000
    21 H9       0.9395   8.6021  13.6009   H         1 RES1   0.0000
    22 H10      0.4535   7.3619  12.7185   H         1 RES1   0.0000
    23 C9       0.0570   9.1739  11.8344   C.ar      1 RES1   0.0000
    24 C10     -0.8090   8.6516  10.8724   C.ar      1 RES1   0.0000
    25 H11     -0.8699   7.7107  10.7598   H         1 RES1   0.0000
    26 C11     -1.5830   9.4864  10.0775   C.ar      1 RES1   0.0000
    27 H12     -2.1791   9.1147   9.4371   H         1 RES1   0.0000
    28 C12     -1.4873  10.8642  10.2182   C.ar      1 RES1   0.0000
    29 H13     -1.9934  11.4401   9.6573   H         1 RES1   0.0000
    30 C13     -0.6434  11.3952  11.1876   C.ar      1 RES1   0.0000
    31 H14     -0.5808  12.3368  11.2910   H         1 RES1   0.0000
    32 C14      0.1078  10.5628  12.0044   C.ar      1 RES1   0.0000
    33 H15      0.6589  10.9363  12.6819   H         1 RES1   0.0000
    34 C15      1.2730   4.6574  11.8833   C.1       1 RES1   0.0000
    35 B1       0.0625   3.9334  11.1535   B         1 RES1  -1.0000
    36 H16      0.0809   4.1504  10.1972   H         1 RES1   0.0000
    37 H17     -0.7833   4.2403  11.5426   H         1 RES1   0.0000
    38 H18      0.1439   2.9631  11.2700   H         1 RES1   0.0000
    39 N1A      2.4466   6.5522  14.8628   N.ar      1 RES1   0.0000
    40 N2A      4.4630   8.0426  14.0266   N.3       1 RES1   0.0000
    41 C1A      1.2674   5.9723  15.1770   C.ar      1 RES1   0.0000
    42 H1A      0.7467   5.5950  14.4781   H         1 RES1   0.0000
    43 C2A      0.7827   5.9033  16.4710   C.ar      1 RES1   0.0000
    44 H2A     -0.0564   5.4963  16.6482   H         1 RES1   0.0000
    45 C3A      1.5383   6.4360  17.5072   C.ar      1 RES1   0.0000
    46 H3A      1.2356   6.3807  18.4060   H         1 RES1   0.0000
    47 C4A      2.7452   7.0508  17.1993   C.ar      1 RES1   0.0000
    48 H4A      3.2774   7.4341  17.8870   H         1 RES1   0.0000
    49 C5A      3.1661   7.0989  15.8771   C.ar      1 RES1   0.0000
    50 C6A      4.4834   7.7029  15.4793   C.3       1 RES1   0.0000
    51 H5A      4.6505   8.5211  16.0122   H         1 RES1   0.0000
    52 H6A      5.2144   7.0607  15.6627   H         1 RES1   0.0000
    53 C7A      3.6401   9.2759  13.8162   C.3       1 RES1   0.0000
    54 H7A      4.1896  10.0819  13.9818   H         1 RES1   0.0000
    55 H8A      2.8764   9.2856  14.4466   H         1 RES1   0.0000
    56 C8A      5.8750   8.2431  13.5309   C.3       1 RES1   0.0000
    57 H9A      5.8372   8.6021  12.6085   H         1 RES1   0.0000
    58 H10A     6.3232   7.3619  13.4908   H         1 RES1   0.0000
    59 C9A      6.7197   9.1739  14.3750   C.ar      1 RES1   0.0000
    60 C10A     7.5857   8.6516  15.3370   C.ar      1 RES1   0.0000
    61 H11A     7.6466   7.7107  15.4496   H         1 RES1   0.0000
    62 C11A     8.3597   9.4864  16.1319   C.ar      1 RES1   0.0000
    63 H12A     8.9558   9.1147  16.7723   H         1 RES1   0.0000
    64 C12A     8.2641  10.8642  15.9912   C.ar      1 RES1   0.0000
    65 H13A     8.7701  11.4401  16.5521   H         1 RES1   0.0000
    66 C13A     7.4201  11.3952  15.0218   C.ar      1 RES1   0.0000
    67 H14A     7.3575  12.3368  14.9184   H         1 RES1   0.0000
    68 C14A     6.6689  10.5628  14.2050   C.ar      1 RES1   0.0000
    69 H15A     6.1178  10.9363  13.5275   H         1 RES1   0.0000
    70 N3A      4.6478   5.2476  13.8321   N.1       1 RES1   0.0000
    71 C15A     5.5037   4.6574  14.3261   C.1       1 RES1   0.0000
    72 B1A      6.7142   3.9334  15.0559   B         1 RES1  -1.0000
    73 H16A     6.6958   4.1504  16.0122   H         1 RES1   0.0000
    74 H17A     7.5600   4.2403  14.6668   H         1 RES1   0.0000
    75 H18A     6.6328   2.9631  14.9394   H         1 RES1   0.0000
@<TRIPOS>BOND
     1     1     2    1
     2     2     5   ar
     3     3     1    1
     4     4     1    1
     5     5     6    1
     6     7     5   ar
     7     8     7    1
     8     9     7   ar
     9    10     9    1
    10    11     9   ar
    11    12    11    1
    12    13     2   ar
    13    14     3    1
    14    15    14    1
    15    16    14    1
    16    17     3    1
    17    18    17    1
    18    19    17    1
    19    20     3    1
    20    21    20    1
    21    22    20    1
    22    23    20    1
    23    24    23   ar
    24    25    24    1
    25    26    24   ar
    26    27    26    1
    27    28    26   ar
    28    29    28    1
    29    30    28   ar
    30    31    30    1
    31    32    23   ar
    32    33    32    1
    33    34     4    3
    34    35    34    1
    35    36    35    1
    36    37    35    1
    37    38    35    1
    38    39     1    1
    39    40     1    1
    40    41    39   ar
    41    42    41    1
    42    43    41   ar
    43    44    43    1
    44    45    43   ar
    45    46    45    1
    46    47    45   ar
    47    48    47    1
    48    49    39   ar
    49    50    40    1
    50    51    50    1
    51    52    50    1
    52    53    17    1
    53    54    53    1
    54    55    53    1
    55    56    40    1
    56    57    56    1
    57    58    56    1
    58    59    56    1
    59    60    59   ar
    60    61    60    1
    61    62    60   ar
    62    63    62    1
    63    64    62   ar
    64    65    64    1
    65    66    64   ar
    66    67    66    1
    67    68    59   ar
    68    69    68    1
    69    70     1    1
    70    71    70    3
    71    72    71    1
    72    73    72    1
    73    74    72    1
    74    75    72    1
    75    11    13   ar
    76    13    14    1
    77    30    32   ar
    78    40    53    1
    79    47    49   ar
    80    49    50    1
    81    66    68   ar
@<TRIPOS>SUBSTRUCTURE
     1 RES1        1 GROUP             0 ****  ****    0  
@<TRIPOS>CRYSIN
    9.0702   17.6164   17.5397   90.0000   95.0010   90.0000    15     1
