@<TRIPOS>MOLECULE
HOLTEK
    75    81     1     0     0
SMALL
USER_CHARGES
****
Generated from the CSD

@<TRIPOS>ATOM
     1 Fe1      3.6172   6.4577  13.5252   Fe        1 RES1   2.0000
     2 N1       4.5877   6.6256  11.5785   N.ar      1 RES1   0.0000
     3 N2       2.5338   8.1724  12.5202   N.3       1 RES1   0.0000
     4 N3       2.1442   5.1445  12.8098   N.1       1 RES1   0.0000
     5 C1       5.7520   6.0603  11.2048   C.ar      1 RES1   0.0000
     6 H1       6.2756   5.6474  11.8535   H         1 RES1   0.0000
     7 C2       6.1973   6.0687   9.9096   C.ar      1 RES1   0.0000
     8 H2       7.0118   5.6763   9.6877   H         1 RES1   0.0000
     9 C3       5.4251   6.6636   8.9429   C.ar      1 RES1   0.0000
    10 H3       5.6964   6.6612   8.0538   H         1 RES1   0.0000
    11 C4       4.2385   7.2645   9.3140   C.ar      1 RES1   0.0000
    12 H4       3.7040   7.6823   8.6778   H         1 RES1   0.0000
    13 C5       3.8548   7.2374  10.6405   C.ar      1 RES1   0.0000
    14 C6       2.5387   7.8422  11.0784   C.3       1 RES1   0.0000
    15 H5       2.3720   8.6491  10.5659   H         1 RES1   0.0000
    16 H6       1.8217   7.2160  10.8923   H         1 RES1   0.0000
    17 C7       3.3876   9.3543  12.8024   C.3       1 RES1   0.0000
    18 H7       2.8863  10.1653  12.6217   H         1 RES1   0.0000
    19 H8       4.1608   9.3431  12.2178   H         1 RES1   0.0000
    20 C8       1.1251   8.3717  12.9995   C.3       1 RES1   0.0000
    21 H9       1.1562   8.6871  13.9165   H         1 RES1   0.0000
    22 H10      0.6792   7.5106  13.0040   H         1 RES1   0.0000
    23 C9       0.2898   9.3329  12.1947   C.ar      1 RES1   0.0000
    24 C10     -0.5720   8.8571  11.2203   C.ar      1 RES1   0.0000
    25 H11     -0.6304   7.9425  11.0636   H         1 RES1   0.0000
    26 C11     -1.3444   9.7302  10.4802   C.ar      1 RES1   0.0000
    27 H12     -1.9305   9.3973   9.8391   H         1 RES1   0.0000
    28 C12     -1.2527  11.0841  10.6824   C.ar      1 RES1   0.0000
    29 H13     -1.7601  11.6689  10.1673   H         1 RES1   0.0000
    30 C13     -0.4069  11.5681  11.6508   C.ar      1 RES1   0.0000
    31 H14     -0.3428  12.4857  11.7904   H         1 RES1   0.0000
    32 C14      0.3482  10.7073  12.4161   C.ar      1 RES1   0.0000
    33 H15      0.8995  11.0454  13.0852   H         1 RES1   0.0000
    34 C15      1.2853   4.6354  12.2661   C.1       1 RES1   0.0000
    35 B1       0.1082   3.9667  11.4622   B         1 RES1  -1.0000
    36 H16      0.0911   4.3173  10.5677   H         1 RES1   0.0000
    37 H17     -0.7256   4.1583  11.8968   H         1 RES1   0.0000
    38 H18      0.2417   3.0162  11.4297   H         1 RES1   0.0000
    39 N1A      2.6468   6.6256  15.4719   N.ar      1 RES1   0.0000
    40 N2A      4.7006   8.1724  14.5302   N.3       1 RES1   0.0000
    41 C1A      1.4824   6.0603  15.8456   C.ar      1 RES1   0.0000
    42 H1A      0.9589   5.6474  15.1969   H         1 RES1   0.0000
    43 C2A      1.0371   6.0687  17.1408   C.ar      1 RES1   0.0000
    44 H2A      0.2226   5.6763  17.3628   H         1 RES1   0.0000
    45 C3A      1.8093   6.6636  18.1075   C.ar      1 RES1   0.0000
    46 H3A      1.5380   6.6612  18.9966   H         1 RES1   0.0000
    47 C4A      2.9959   7.2645  17.7364   C.ar      1 RES1   0.0000
    48 H4A      3.5304   7.6823  18.3726   H         1 RES1   0.0000
    49 C5A      3.3796   7.2374  16.4099   C.ar      1 RES1   0.0000
    50 C6A      4.6957   7.8422  15.9720   C.3       1 RES1   0.0000
    51 H5A      4.8624   8.6491  16.4845   H         1 RES1   0.0000
    52 H6A      5.4127   7.2160  16.1581   H         1 RES1   0.0000
    53 C7A      3.8468   9.3543  14.2480   C.3       1 RES1   0.0000
    54 H7A      4.3482  10.1653  14.4287   H         1 RES1   0.0000
    55 H8A      3.0736   9.3431  14.8326   H         1 RES1   0.0000
    56 C8A      6.1093   8.3717  14.0509   C.3       1 RES1   0.0000
    57 H9A      6.0782   8.6871  13.1339   H         1 RES1   0.0000
    58 H10A     6.5552   7.5106  14.0464   H         1 RES1   0.0000
    59 C9A      6.9447   9.3329  14.8557   C.ar      1 RES1   0.0000
    60 C10A     7.8065   8.8571  15.8301   C.ar      1 RES1   0.0000
    61 H11A     7.8648   7.9425  15.9868   H         1 RES1   0.0000
    62 C11A     8.5788   9.7302  16.5702   C.ar      1 RES1   0.0000
    63 H12A     9.1649   9.3973  17.2113   H         1 RES1   0.0000
    64 C12A     8.4872  11.0841  16.3680   C.ar      1 RES1   0.0000
    65 H13A     8.9945  11.6689  16.8831   H         1 RES1   0.0000
    66 C13A     7.6413  11.5681  15.3996   C.ar      1 RES1   0.0000
    67 H14A     7.5772  12.4857  15.2600   H         1 RES1   0.0000
    68 C14A     6.8862  10.7073  14.6343   C.ar      1 RES1   0.0000
    69 H15A     6.3349  11.0454  13.9652   H         1 RES1   0.0000
    70 N3A      5.0902   5.1445  14.2406   N.1       1 RES1   0.0000
    71 C15A     5.9491   4.6354  14.7843   C.1       1 RES1   0.0000
    72 B1A      7.1262   3.9667  15.5882   B         1 RES1  -1.0000
    73 H16A     7.1433   4.3173  16.4827   H         1 RES1   0.0000
    74 H17A     7.9600   4.1583  15.1536   H         1 RES1   0.0000
    75 H18A     6.9927   3.0162  15.6207   H         1 RES1   0.0000
@<TRIPOS>BOND
     1     1     2    1
     2     2     5   ar
     3     3     1    1
     4     4     1    1
     5     5     6    1
     6     7     5   ar
     7     8     7    1
     8     9     7   ar
     9    10     9    1
    10    11     9   ar
    11    12    11    1
    12    13     2   ar
    13    14     3    1
    14    15    14    1
    15    16    14    1
    16    17     3    1
    17    18    17    1
    18    19    17    1
    19    20     3    1
    20    21    20    1
    21    22    20    1
    22    23    20    1
    23    24    23   ar
    24    25    24    1
    25    26    24   ar
    26    27    26    1
    27    28    26   ar
    28    29    28    1
    29    30    28   ar
    30    31    30    1
    31    32    23   ar
    32    33    32    1
    33    34     4    3
    34    35    34    1
    35    36    35    1
    36    37    35    1
    37    38    35    1
    38    39     1    1
    39    40     1    1
    40    41    39   ar
    41    42    41    1
    42    43    41   ar
    43    44    43    1
    44    45    43   ar
    45    46    45    1
    46    47    45   ar
    47    48    47    1
    48    49    39   ar
    49    50    40    1
    50    51    50    1
    51    52    50    1
    52    53    17    1
    53    54    53    1
    54    55    53    1
    55    56    40    1
    56    57    56    1
    57    58    56    1
    58    59    56    1
    59    60    59   ar
    60    61    60    1
    61    62    60   ar
    62    63    62    1
    63    64    62   ar
    64    65    64    1
    65    66    64   ar
    66    67    66    1
    67    68    59   ar
    68    69    68    1
    69    70     1    1
    70    71    70    3
    71    72    71    1
    72    73    72    1
    73    74    72    1
    74    75    72    1
    75    11    13   ar
    76    13    14    1
    77    30    32   ar
    78    40    53    1
    79    47    49   ar
    80    49    50    1
    81    66    68   ar
@<TRIPOS>SUBSTRUCTURE
     1 RES1        1 GROUP             0 ****  ****    0  
@<TRIPOS>CRYSIN
    9.1122   18.0717   18.0770   90.0000   93.9710   90.0000    15     1
