@<TRIPOS>MOLECULE
HONZOA
    98   104     3     0     0
SMALL
USER_CHARGES
****
Generated from the CSD

@<TRIPOS>ATOM
     1 Fe1      2.7144   5.3954   8.4962   Fe        1 RES1   2.0000
     2 P1       2.1988   7.3994   7.5379   P.3       1 RES1   0.0000
     3 P2       4.9585   5.4964   8.9432   P.3       1 RES1   0.0000
     4 N1       0.7324   5.0102   8.3338   N.2       1 RES1   0.0000
     5 N2       2.8446   3.5313   9.3095   N.2       1 RES1   0.0000
     6 N3       2.9846   4.6761   6.7459   N.1       1 RES1   0.0000
     7 N4       2.4263   6.1244  10.2423   N.1       1 RES1   0.0000
     8 C1       1.1361   7.0405   6.0872   C.ar      1 RES1   0.0000
     9 C2       1.2640   7.7520   4.8956   C.ar      1 RES1   0.0000
    10 H1       1.8743   8.4783   4.8472   H         1 RES1   0.0000
    11 C3       0.5088   7.4136   3.7707   C.ar      1 RES1   0.0000
    12 H2       0.6229   7.8943   2.9588   H         1 RES1   0.0000
    13 C4      -0.4025   6.3785   3.8399   C.ar      1 RES1   0.0000
    14 H3      -0.9104   6.1392   3.0727   H         1 RES1   0.0000
    15 C5      -0.5763   5.6922   5.0201   C.ar      1 RES1   0.0000
    16 H4      -1.2302   5.0050   5.0730   H         1 RES1   0.0000
    17 C6       0.1970   5.9958   6.1434   C.ar      1 RES1   0.0000
    18 C7      -0.0857   5.2253   7.3674   C.2       1 RES1   0.0000
    19 H5      -0.9557   4.8521   7.4498   H         1 RES1   0.0000
    20 C8       0.1550   4.2344   9.4709   C.3       1 RES1   0.0000
    21 H6      -0.8292   4.3366   9.4786   H         1 RES1   0.0000
    22 H7       0.5081   4.5844  10.3272   H         1 RES1   0.0000
    23 C9       0.5175   2.7639   9.3280   C.3       1 RES1   0.0000
    24 H8       0.4864   2.3370  10.2214   H         1 RES1   0.0000
    25 H9      -0.1601   2.3201   8.7583   H         1 RES1   0.0000
    26 C10      1.8932   2.5478   8.7235   C.3       1 RES1   0.0000
    27 H10      2.2024   1.6265   8.9129   H         1 RES1   0.0000
    28 H11      1.8501   2.6659   7.7408   H         1 RES1   0.0000
    29 C11      3.4792   3.1118  10.3349   C.2       1 RES1   0.0000
    30 H12      3.3361   2.2073  10.5877   H         1 RES1   0.0000
    31 C12      4.3995   3.8823  11.1558   C.ar      1 RES1   0.0000
    32 C13      4.5685   3.4501  12.4702   C.ar      1 RES1   0.0000
    33 H13      4.1377   2.6564  12.7650   H         1 RES1   0.0000
    34 C14      5.3658   4.1722  13.3568   C.ar      1 RES1   0.0000
    35 H14      5.4734   3.8739  14.2525   H         1 RES1   0.0000
    36 C15      5.9973   5.3138  12.9325   C.ar      1 RES1   0.0000
    37 H15      6.5045   5.8314  13.5485   H         1 RES1   0.0000
    38 C16      5.8986   5.7154  11.6025   C.ar      1 RES1   0.0000
    39 H16      6.3789   6.4807  11.3080   H         1 RES1   0.0000
    40 C17      5.1096   5.0166  10.7002   C.ar      1 RES1   0.0000
    41 C18      3.0769   4.2924   5.6693   C.1       1 RES1   0.0000
    42 C19      3.2152   3.8296   4.2713   C.3       1 RES1   0.0000
    43 C20      2.3003   6.5197  11.3107   C.1       1 RES1   0.0000
    44 C21      2.2004   7.0278  12.6854   C.3       1 RES1   0.0000
    45 C22      3.4330   8.5510   6.8558   C.ar      1 RES1   0.0000
    46 C23      3.3075   9.9372   6.9716   C.ar      1 RES1   0.0000
    47 H17      2.5345  10.3167   7.3766   H         1 RES1   0.0000
    48 C24      4.3168  10.7531   6.4934   C.ar      1 RES1   0.0000
    49 H18      4.2428  11.6944   6.5931   H         1 RES1   0.0000
    50 C25      5.4164  10.2229   5.8829   C.ar      1 RES1   0.0000
    51 H19      6.1074  10.7974   5.5777   H         1 RES1   0.0000
    52 C26      5.5280   8.8514   5.7037   C.ar      1 RES1   0.0000
    53 H20      6.2766   8.4846   5.2480   H         1 RES1   0.0000
    54 C27      4.5329   8.0240   6.2006   C.ar      1 RES1   0.0000
    55 H21      4.6072   7.0826   6.0905   H         1 RES1   0.0000
    56 C28      1.1582   8.4108   8.6441   C.ar      1 RES1   0.0000
    57 C29      1.7644   9.1656   9.6583   C.ar      1 RES1   0.0000
    58 H22      2.7107   9.2488   9.6780   H         1 RES1   0.0000
    59 C30      1.0009   9.7907  10.6345   C.ar      1 RES1   0.0000
    60 H23      1.4235  10.2914  11.3223   H         1 RES1   0.0000
    61 C31     -0.3795   9.6789  10.5958   C.ar      1 RES1   0.0000
    62 H24     -0.9072  10.1027  11.2632   H         1 RES1   0.0000
    63 C32     -0.9878   8.9590   9.5987   C.ar      1 RES1   0.0000
    64 H25     -1.9336   8.8820   9.5865   H         1 RES1   0.0000
    65 C33     -0.2301   8.3370   8.6036   C.ar      1 RES1   0.0000
    66 H26     -0.6626   7.8648   7.9016   H         1 RES1   0.0000
    67 C34      5.9831   7.0110   8.8504   C.ar      1 RES1   0.0000
    68 C35      7.2351   7.0457   8.2579   C.ar      1 RES1   0.0000
    69 H27      7.5949   6.2562   7.8690   H         1 RES1   0.0000
    70 C36      7.9650   8.2148   8.2257   C.ar      1 RES1   0.0000
    71 H28      8.8176   8.2264   7.8059   H         1 RES1   0.0000
    72 C37      7.4750   9.3564   8.7931   C.ar      1 RES1   0.0000
    73 H29      7.9833  10.1586   8.7623   H         1 RES1   0.0000
    74 C38      6.2344   9.3427   9.4127   C.ar      1 RES1   0.0000
    75 H30      5.8942  10.1343   9.8124   H         1 RES1   0.0000
    76 C39      5.4870   8.1747   9.4497   C.ar      1 RES1   0.0000
    77 H31      4.6400   8.1652   9.8815   H         1 RES1   0.0000
    78 C40      6.0159   4.2618   8.0994   C.ar      1 RES1   0.0000
    79 C41      6.7636   3.3163   8.8008   C.ar      1 RES1   0.0000
    80 H32      6.6662   3.2414   9.7432   H         1 RES1   0.0000
    81 C42      7.6459   2.4877   8.1315   C.ar      1 RES1   0.0000
    82 H33      8.1524   1.8500   8.6199   H         1 RES1   0.0000
    83 C43      7.8001   2.5742   6.7647   C.ar      1 RES1   0.0000
    84 H34      8.4063   1.9976   6.3164   H         1 RES1   0.0000
    85 C44      7.0638   3.5081   6.0469   C.ar      1 RES1   0.0000
    86 H35      7.1699   3.5756   5.1056   H         1 RES1   0.0000
    87 C45      6.1775   4.3377   6.7036   C.ar      1 RES1   0.0000
    88 H36      5.6700   4.9691   6.2065   H         1 RES1   0.0000
    89 B1       4.6578  10.0447  12.8912   B         2 RES2  -1.0000
    90 F1       3.9940  10.5264  11.7657   F         2 RES2   0.0000
    91 F2       5.7496  10.8111  13.1297   F         2 RES2   0.0000
    92 F3       5.0102   8.7439  12.6576   F         2 RES2   0.0000
    93 F4       3.7777  10.0921  13.9695   F         2 RES2   0.0000
    94 B2       1.8022  11.4962   2.9425   B         3 RES3  -1.0000
    95 F5       0.9909  12.5050   2.5451   F         3 RES3   0.0000
    96 F6       1.7893  11.3634   4.2880   F         3 RES3   0.0000
    97 F7       3.0882  11.7682   2.5178   F         3 RES3   0.0000
    98 F8       1.3610  10.3040   2.3572   F         3 RES3   0.0000
@<TRIPOS>BOND
     1     1     2    1
     2     2     8    1
     3     3     1    1
     4     4     1    1
     5     5     1    1
     6     6     1    1
     7     7     1    1
     8     8     9   ar
     9     9    10    1
    10    11     9   ar
    11    12    11    1
    12    13    11   ar
    13    14    13    1
    14    15    13   ar
    15    16    15    1
    16    17     8   ar
    17    18     4    2
    18    19    18    1
    19    20     4    1
    20    21    20    1
    21    22    20    1
    22    23    20    1
    23    24    23    1
    24    25    23    1
    25    26     5    1
    26    27    26    1
    27    28    26    1
    28    29     5    2
    29    30    29    1
    30    31    29    1
    31    32    31   ar
    32    33    32    1
    33    34    32   ar
    34    35    34    1
    35    36    34   ar
    36    37    36    1
    37    38    36   ar
    38    39    38    1
    39    40     3    1
    40    41     6    3
    41    42    41    1
    42    43     7    3
    43    44    43    1
    44    45     2    1
    45    46    45   ar
    46    47    46    1
    47    48    46   ar
    48    49    48    1
    49    50    48   ar
    50    51    50    1
    51    52    50   ar
    52    53    52    1
    53    54    45   ar
    54    55    54    1
    55    56     2    1
    56    57    56   ar
    57    58    57    1
    58    59    57   ar
    59    60    59    1
    60    61    59   ar
    61    62    61    1
    62    63    61   ar
    63    64    63    1
    64    65    56   ar
    65    66    65    1
    66    67     3    1
    67    68    67   ar
    68    69    68    1
    69    70    68   ar
    70    71    70    1
    71    72    70   ar
    72    73    72    1
    73    74    72   ar
    74    75    74    1
    75    76    67   ar
    76    77    76    1
    77    78     3    1
    78    79    78   ar
    79    80    79    1
    80    81    79   ar
    81    82    81    1
    82    83    81   ar
    83    84    83    1
    84    85    83   ar
    85    86    85    1
    86    87    78   ar
    87    88    87    1
    88    15    17   ar
    89    17    18    1
    90    23    26    1
    91    31    40   ar
    92    38    40   ar
    93    52    54   ar
    94    63    65   ar
    95    74    76   ar
    96    85    87   ar
    97    89    90    1
    98    91    89    1
    99    92    89    1
   100    93    89    1
   101    94    95    1
   102    96    94    1
   103    97    94    1
   104    98    94    1
@<TRIPOS>SUBSTRUCTURE
     1 RES1        1 GROUP             0 ****  ****    0  
     2 RES2       89 GROUP             0 ****  ****    0  
     3 RES3       94 GROUP             0 ****  ****    0  
@<TRIPOS>CRYSIN
   20.1739   10.5412   20.7331   90.0000  101.0440   90.0000    14     1
