@<TRIPOS>MOLECULE
HOPBAQ
   121   129     3     0     0
SMALL
USER_CHARGES
****
Generated from the CSD

@<TRIPOS>ATOM
     1 Fe1      3.4863   6.1725  14.9669   Fe        1 RES1   2.0000
     2 P1       4.0123   7.2821  16.8812   P.3       1 RES1   0.0000
     3 P2       2.7755   4.1588  15.7306   P.3       1 RES1   0.0000
     4 N1       4.1960   7.7752  13.9815   N.2       1 RES1   0.0000
     5 N2       3.0109   5.5979  13.0885   N.2       1 RES1   0.0000
     6 N3       5.2699   5.4983  14.8620   N.1       1 RES1   0.0000
     7 N4       1.6773   6.8060  15.0824   N.1       1 RES1   0.0000
     8 C1       3.6080   7.8635  12.5948   C.3       1 RES1   0.0000
     9 H1       4.2222   8.4104  12.0442   H         1 RES1   0.0000
    10 C2       3.6352   6.4595  12.0497   C.3       1 RES1   0.0000
    11 H2       3.0587   6.4335  11.2447   H         1 RES1   0.0000
    12 C3       5.0482   5.9659  11.6397   C.ar      1 RES1   0.0000
    13 C4       5.3220   4.6038  11.6681   C.ar      1 RES1   0.0000
    14 H3       4.6746   4.0048  11.9928   H         1 RES1   0.0000
    15 C5       6.5466   4.1192  11.2159   C.ar      1 RES1   0.0000
    16 H4       6.7115   3.1941  11.2282   H         1 RES1   0.0000
    17 C6       7.5256   4.9831  10.7514   C.ar      1 RES1   0.0000
    18 H5       8.3569   4.6547  10.4637   H         1 RES1   0.0000
    19 C7       7.2519   6.3282  10.7206   C.ar      1 RES1   0.0000
    20 H6       7.8992   6.9294  10.3979   H         1 RES1   0.0000
    21 C8       6.0143   6.8105  11.1645   C.ar      1 RES1   0.0000
    22 H7       5.8434   7.7345  11.1378   H         1 RES1   0.0000
    23 C9       2.2648   8.5667  12.6238   C.ar      1 RES1   0.0000
    24 C10      2.2073   9.7952  13.2568   C.ar      1 RES1   0.0000
    25 H8       2.9663  10.1360  13.6926   H         1 RES1   0.0000
    26 C11      1.0107  10.5334  13.2466   C.ar      1 RES1   0.0000
    27 H9       0.9751  11.3634  13.6843   H         1 RES1   0.0000
    28 C12     -0.0875  10.0658  12.6156   C.ar      1 RES1   0.0000
    29 H10     -0.8790  10.5753  12.6032   H         1 RES1   0.0000
    30 C13     -0.0426   8.8452  11.9928   C.ar      1 RES1   0.0000
    31 H11     -0.8135   8.5078  11.5735   H         1 RES1   0.0000
    32 C14      1.1307   8.0991  11.9784   C.ar      1 RES1   0.0000
    33 H12      1.1557   7.2748  11.5283   H         1 RES1   0.0000
    34 C15      5.2548   8.4602  14.1823   C.2       1 RES1   0.0000
    35 H13      5.5653   8.9584  13.4500   H         1 RES1   0.0000
    36 C16      6.0381   8.5655  15.3985   C.ar      1 RES1   0.0000
    37 C17      7.2333   9.2596  15.2916   C.ar      1 RES1   0.0000
    38 H14      7.5404   9.5144  14.4407   H         1 RES1   0.0000
    39 C18      7.9851   9.5857  16.3994   C.ar      1 RES1   0.0000
    40 H15      8.8249   9.9979  16.2987   H         1 RES1   0.0000
    41 C19      7.5021   9.3083  17.6306   C.ar      1 RES1   0.0000
    42 H16      7.9559   9.6185  18.3931   H         1 RES1   0.0000
    43 C20      6.3383   8.5655  17.7683   C.ar      1 RES1   0.0000
    44 H17      6.0462   8.3346  18.6315   H         1 RES1   0.0000
    45 C21      5.5879   8.1523  16.6769   C.ar      1 RES1   0.0000
    46 C22      2.0711   4.8257  12.6546   C.2       1 RES1   0.0000
    47 H18      1.9492   4.8200  11.7236   H         1 RES1   0.0000
    48 C23      1.1827   3.9697  13.4069   C.ar      1 RES1   0.0000
    49 C24      0.1120   3.4443  12.6526   C.ar      1 RES1   0.0000
    50 H19      0.0305   3.6640  11.7421   H         1 RES1   0.0000
    51 C25     -0.8224   2.5997  13.2527   C.ar      1 RES1   0.0000
    52 H20     -1.5422   2.2623  12.7512   H         1 RES1   0.0000
    53 C26     -0.6863   2.2589  14.5887   C.ar      1 RES1   0.0000
    54 H21     -1.3177   1.6905  14.9936   H         1 RES1   0.0000
    55 C27      0.3734   2.7548  15.3348   C.ar      1 RES1   0.0000
    56 H22      0.4542   2.5136  16.2412   H         1 RES1   0.0000
    57 C28      1.3162   3.5995  14.7675   C.ar      1 RES1   0.0000
    58 C29      3.9743   2.8216  15.3841   C.ar      1 RES1   0.0000
    59 C30      3.8858   2.1060  14.1817   C.ar      1 RES1   0.0000
    60 H23      3.1279   2.2192  13.6371   H         1 RES1   0.0000
    61 C31      4.8888   1.2353  13.7748   C.ar      1 RES1   0.0000
    62 H24      4.8273   0.7790  12.9547   H         1 RES1   0.0000
    63 C32      5.9830   1.0553  14.6154   C.ar      1 RES1   0.0000
    64 H25      6.6813   0.4857  14.3482   H         1 RES1   0.0000
    65 C33      6.0598   1.7041  15.8404   C.ar      1 RES1   0.0000
    66 H26      6.7755   1.5331  16.4241   H         1 RES1   0.0000
    67 C34      5.0662   2.6110  16.1959   C.ar      1 RES1   0.0000
    68 H27      5.1396   3.0865  17.0016   H         1 RES1   0.0000
    69 C35      0.5877   7.1197  15.1046   C.1       1 RES1   0.0000
    70 C36     -0.8195   7.5148  15.1868   C.3       1 RES1   0.0000
    71 H28     -1.3469   6.9532  14.5990   H         1 RES1   0.0000
    72 H29     -0.9110   8.4421  14.9175   H         1 RES1   0.0000
    73 H30     -1.1297   7.4129  16.0993   H         1 RES1   0.0000
    74 C37      6.3400   5.1314  14.7696   C.1       1 RES1   0.0000
    75 C38      7.7049   4.6241  14.6380   C.3       1 RES1   0.0000
    76 H31      7.9189   4.0739  15.4067   H         1 RES1   0.0000
    77 H32      8.3228   5.3692  14.5887   H         1 RES1   0.0000
    78 H33      7.7749   4.0920  13.8303   H         1 RES1   0.0000
    79 C39      2.1640   3.8938  17.4312   C.ar      1 RES1   0.0000
    80 C40      1.1024   4.7261  17.8484   C.ar      1 RES1   0.0000
    81 H34      0.8275   5.4462  17.3099   H         1 RES1   0.0000
    82 C41      0.4737   4.4781  19.0405   C.ar      1 RES1   0.0000
    83 H35     -0.2337   5.0363  19.3118   H         1 RES1   0.0000
    84 C42      0.8452   3.4545  19.8380   C.ar      1 RES1   0.0000
    85 H36      0.3731   3.2756  20.6313   H         1 RES1   0.0000
    86 C43      1.9243   2.6710  19.4721   C.ar      1 RES1   0.0000
    87 H37      2.2175   1.9871  20.0476   H         1 RES1   0.0000
    88 C44      2.5807   2.8827  18.2636   C.ar      1 RES1   0.0000
    89 H38      3.3069   2.3381  18.0190   H         1 RES1   0.0000
    90 C45      2.8744   8.6607  17.1907   C.ar      1 RES1   0.0000
    91 C46      3.1884   9.9571  16.7344   C.ar      1 RES1   0.0000
    92 H39      4.0329  10.1258  16.3624   H         1 RES1   0.0000
    93 C47      2.2752  10.9727  16.8269   C.ar      1 RES1   0.0000
    94 H40      2.4853  11.8197  16.4775   H         1 RES1   0.0000
    95 C48      1.0797  10.7723  17.4127   C.ar      1 RES1   0.0000
    96 H41      0.4709  11.4834  17.5031   H         1 RES1   0.0000
    97 C49      0.7585   9.5234  17.8793   C.ar      1 RES1   0.0000
    98 H42     -0.0809   9.3864  18.2821   H         1 RES1   0.0000
    99 C50      1.6366   8.4648  17.7724   C.ar      1 RES1   0.0000
   100 H43      1.3943   7.6156  18.0951   H         1 RES1   0.0000
   101 C51      4.3467   6.3769  18.4753   C.ar      1 RES1   0.0000
   102 C52      3.6564   6.6396  19.6489   C.ar      1 RES1   0.0000
   103 H44      2.9802   7.2895  19.7003   H         1 RES1   0.0000
   104 C53      4.0647   5.8187  20.8225   C.ar      1 RES1   0.0000
   105 H45      3.6422   5.9274  21.6549   H         1 RES1   0.0000
   106 C54      5.0573   4.9151  20.6642   C.ar      1 RES1   0.0000
   107 H46      5.2967   4.4022  21.4165   H         1 RES1   0.0000
   108 C55      5.7114   4.6955  19.5441   C.ar      1 RES1   0.0000
   109 H47      6.4003   4.0558  19.5071   H         1 RES1   0.0000
   110 C56      5.3670   5.4213  18.4342   C.ar      1 RES1   0.0000
   111 H48      5.8262   5.2729  17.6285   H         1 RES1   0.0000
   112 F1       1.3215   5.4745   7.4458   F         2 RES2   0.0000
   113 F2       1.0915   4.9933   9.6121   F         2 RES2   0.0000
   114 F3       3.0274   4.6898   8.5892   F         2 RES2   0.0000
   115 F4       2.2680   6.6690   9.0475   F         2 RES2   0.0000
   116 B1       1.9417   5.3930   8.6858   B         2 RES2  -1.0000
   117 F5       7.3757   1.2455  18.5822   F         3 RES3   0.0000
   118 F6       8.7527   2.4944  19.8051   F         3 RES3   0.0000
   119 F7       9.5345   1.1923  18.1958   F         3 RES3   0.0000
   120 F8       8.4237   3.0073  17.7703   F         3 RES3   0.0000
   121 B2       8.5709   1.9486  18.6212   B         3 RES3  -1.0000
@<TRIPOS>BOND
     1     1     2    1
     2     2    45    1
     3     3     1    1
     4     4     1    1
     5     5     1    1
     6     6     1    1
     7     7     1    1
     8     8     4    1
     9     9     8    1
    10    10     5    1
    11    11    10    1
    12    12    10    1
    13    13    12   ar
    14    14    13    1
    15    15    13   ar
    16    16    15    1
    17    17    15   ar
    18    18    17    1
    19    19    17   ar
    20    20    19    1
    21    21    12   ar
    22    22    21    1
    23    23     8    1
    24    24    23   ar
    25    25    24    1
    26    26    24   ar
    27    27    26    1
    28    28    26   ar
    29    29    28    1
    30    30    28   ar
    31    31    30    1
    32    32    23   ar
    33    33    32    1
    34    34     4    2
    35    35    34    1
    36    36    34    1
    37    37    36   ar
    38    38    37    1
    39    39    37   ar
    40    40    39    1
    41    41    39   ar
    42    42    41    1
    43    43    41   ar
    44    44    43    1
    45    45    36   ar
    46    46     5    2
    47    47    46    1
    48    48    46    1
    49    49    48   ar
    50    50    49    1
    51    51    49   ar
    52    52    51    1
    53    53    51   ar
    54    54    53    1
    55    55    53   ar
    56    56    55    1
    57    57     3    1
    58    58     3    1
    59    59    58   ar
    60    60    59    1
    61    61    59   ar
    62    62    61    1
    63    63    61   ar
    64    64    63    1
    65    65    63   ar
    66    66    65    1
    67    67    58   ar
    68    68    67    1
    69    69     7    3
    70    70    69    1
    71    71    70    1
    72    72    70    1
    73    73    70    1
    74    74     6    3
    75    75    74    1
    76    76    75    1
    77    77    75    1
    78    78    75    1
    79    79     3    1
    80    80    79   ar
    81    81    80    1
    82    82    80   ar
    83    83    82    1
    84    84    82   ar
    85    85    84    1
    86    86    84   ar
    87    87    86    1
    88    88    79   ar
    89    89    88    1
    90    90     2    1
    91    91    90   ar
    92    92    91    1
    93    93    91   ar
    94    94    93    1
    95    95    93   ar
    96    96    95    1
    97    97    95   ar
    98    98    97    1
    99    99    90   ar
   100   100    99    1
   101   101     2    1
   102   102   101   ar
   103   103   102    1
   104   104   102   ar
   105   105   104    1
   106   106   104   ar
   107   107   106    1
   108   108   106   ar
   109   109   108    1
   110   110   101   ar
   111   111   110    1
   112     8    10    1
   113    19    21   ar
   114    30    32   ar
   115    43    45   ar
   116    48    57   ar
   117    55    57   ar
   118    65    67   ar
   119    86    88   ar
   120    97    99   ar
   121   108   110   ar
   122   112   116    1
   123   113   116    1
   124   114   116    1
   125   115   116    1
   126   117   121    1
   127   118   121    1
   128   119   121    1
   129   120   121    1
@<TRIPOS>SUBSTRUCTURE
     1 RES1        1 GROUP             0 ****  ****    0  
     2 RES2      112 GROUP             0 ****  ****    0  
     3 RES3      117 GROUP             0 ****  ****    0  
@<TRIPOS>CRYSIN
   22.3773   11.3226   20.5795   90.0000   92.8950   90.0000     5     1
