@<TRIPOS>MOLECULE
HOQFEZ
    77    86     1     0     0
SMALL
NO_CHARGES
****
Generated from the CSD

@<TRIPOS>ATOM
     1 Fe1      0.0000   0.0000   0.0000   Fe        1 RES1   0.0000
     2 N1       1.4440  -0.0366   2.5393   N.ar      1 RES1   0.0000
     3 N2       1.5628   0.0129   1.1755   N.ar      1 RES1   0.0000
     4 C1       2.6861  -0.0798   3.0733   C.ar      1 RES1   0.0000
     5 H1       2.8777  -0.1206   3.9824   H         1 RES1   0.0000
     6 C2       3.6168  -0.0532   2.0714   C.ar      1 RES1   0.0000
     7 H2       4.5427  -0.0728   2.1544   H         1 RES1   0.0000
     8 C3       2.8659   0.0095   0.8995   C.ar      1 RES1   0.0000
     9 H3       3.2252   0.0446   0.0419   H         1 RES1   0.0000
    10 C4       0.0000   0.0000   4.8163   C.3       1 RES1   0.0000
    11 C5       0.7528   1.2279   5.3949   C.3       1 RES1   0.0000
    12 H4       1.6625   1.2192   5.0887   H         1 RES1   0.0000
    13 H5       0.7378   1.1888   6.3538   H         1 RES1   0.0000
    14 H6       0.3237   2.0341   5.1007   H         1 RES1   0.0000
    15 B1       0.0000   0.0000   3.1709   B         1 RES1   0.0000
    16 N1A     -0.6903   1.2688   2.5393   N.ar      1 RES1   0.0000
    17 N1B     -0.7537  -1.2322   2.5393   N.ar      1 RES1   0.0000
    18 N1I     -1.4440   0.0366  -2.5393   N.ar      1 RES1   0.0000
    19 N1J      0.6903  -1.2688  -2.5393   N.ar      1 RES1   0.0000
    20 N1K      0.7537   1.2322  -2.5393   N.ar      1 RES1   0.0000
    21 N2A     -0.7926   1.3470   1.1755   N.ar      1 RES1   0.0000
    22 N2B     -0.7702  -1.3599   1.1755   N.ar      1 RES1   0.0000
    23 N2I     -1.5628  -0.0129  -1.1755   N.ar      1 RES1   0.0000
    24 N2J      0.7926  -1.3470  -1.1755   N.ar      1 RES1   0.0000
    25 N2K      0.7702   1.3599  -1.1755   N.ar      1 RES1   0.0000
    26 C1A     -1.2740   2.3661   3.0733   C.ar      1 RES1   0.0000
    27 C1B     -1.4121  -2.2863   3.0733   C.ar      1 RES1   0.0000
    28 C1I     -2.6861   0.0798  -3.0733   C.ar      1 RES1   0.0000
    29 C1J      1.2740  -2.3661  -3.0733   C.ar      1 RES1   0.0000
    30 C1K      1.4121   2.2863  -3.0733   C.ar      1 RES1   0.0000
    31 H1A     -1.3344   2.5524   3.9824   H         1 RES1   0.0000
    32 H1B     -1.5433  -2.4318   3.9824   H         1 RES1   0.0000
    33 H1I     -2.8777   0.1206  -3.9824   H         1 RES1   0.0000
    34 H1J      1.3344  -2.5524  -3.9824   H         1 RES1   0.0000
    35 H1K      1.5433   2.4318  -3.9824   H         1 RES1   0.0000
    36 C2A     -1.7623   3.1589   2.0714   C.ar      1 RES1   0.0000
    37 C2B     -1.8545  -3.1056   2.0714   C.ar      1 RES1   0.0000
    38 C2I     -3.6168   0.0532  -2.0714   C.ar      1 RES1   0.0000
    39 C2J      1.7623  -3.1589  -2.0714   C.ar      1 RES1   0.0000
    40 C2K      1.8545   3.1056  -2.0714   C.ar      1 RES1   0.0000
    41 H2A     -2.2083   3.9705   2.1544   H         1 RES1   0.0000
    42 H2B     -2.3344  -3.8977   2.1544   H         1 RES1   0.0000
    43 H2I     -4.5427   0.0728  -2.1544   H         1 RES1   0.0000
    44 H2J      2.2083  -3.9705  -2.1544   H         1 RES1   0.0000
    45 H2K      2.3344   3.8977  -2.1544   H         1 RES1   0.0000
    46 C3A     -1.4412   2.4773   0.8995   C.ar      1 RES1   0.0000
    47 C3B     -1.4248  -2.4867   0.8995   C.ar      1 RES1   0.0000
    48 C3I     -2.8659  -0.0095  -0.8995   C.ar      1 RES1   0.0000
    49 C3J      1.4412  -2.4773  -0.8995   C.ar      1 RES1   0.0000
    50 C3K      1.4248   2.4867  -0.8995   C.ar      1 RES1   0.0000
    51 H3A     -1.6512   2.7709   0.0419   H         1 RES1   0.0000
    52 H3B     -1.5740  -2.8154   0.0419   H         1 RES1   0.0000
    53 H3I     -3.2252  -0.0446  -0.0419   H         1 RES1   0.0000
    54 H3J      1.6512  -2.7709  -0.0419   H         1 RES1   0.0000
    55 H3K      1.5740   2.8154  -0.0419   H         1 RES1   0.0000
    56 C4I     -0.0000  -0.0000  -4.8163   C.3       1 RES1   0.0000
    57 C5A     -1.4398   0.0380   5.3949   C.3       1 RES1   0.0000
    58 C5B      0.6870  -1.2659   5.3949   C.3       1 RES1   0.0000
    59 C5I     -0.7528  -1.2279  -5.3949   C.3       1 RES1   0.0000
    60 C5J      1.4398  -0.0380  -5.3949   C.3       1 RES1   0.0000
    61 C5K     -0.6870   1.2659  -5.3949   C.3       1 RES1   0.0000
    62 H4A     -1.8871   0.8302   5.0887   H         1 RES1   0.0000
    63 H4B      0.2246  -2.0493   5.0887   H         1 RES1   0.0000
    64 H4I     -1.6625  -1.2192  -5.0887   H         1 RES1   0.0000
    65 H4J      1.8871  -0.8302  -5.0887   H         1 RES1   0.0000
    66 H4K     -0.2246   2.0493  -5.0887   H         1 RES1   0.0000
    67 H5A     -1.3984   0.0446   6.3538   H         1 RES1   0.0000
    68 H5B      0.6606  -1.2333   6.3538   H         1 RES1   0.0000
    69 H5I     -0.7378  -1.1888  -6.3538   H         1 RES1   0.0000
    70 H5J      1.3984  -0.0446  -6.3538   H         1 RES1   0.0000
    71 H5K     -0.6606   1.2333  -6.3538   H         1 RES1   0.0000
    72 H6A     -1.9235  -0.7367   5.1007   H         1 RES1   0.0000
    73 H6B      1.5998  -1.2974   5.1007   H         1 RES1   0.0000
    74 H6I     -0.3237  -2.0341  -5.1007   H         1 RES1   0.0000
    75 H6J      1.9235   0.7367  -5.1007   H         1 RES1   0.0000
    76 H6K     -1.5998   1.2974  -5.1007   H         1 RES1   0.0000
    77 B1I     -0.0000  -0.0000  -3.1709   B         1 RES1   0.0000
@<TRIPOS>BOND
     1     1     3    1
     2     2     3   ar
     3     3     8   ar
     4     4     2   ar
     5     5     4    1
     6     6     4   ar
     7     7     6    1
     8     8     6   ar
     9     9     8    1
    10    10    11    1
    11    11    12    1
    12    13    11    1
    13    14    11    1
    14    15     2    1
    15    16    15    1
    16    17    15    1
    17    18    23   ar
    18    19    24   ar
    19    20    25   ar
    20    21     1    1
    21    22     1    1
    22    23     1    1
    23    24     1    1
    24    25     1    1
    25    26    16   ar
    26    27    17   ar
    27    28    18   ar
    28    29    19   ar
    29    30    20   ar
    30    31    26    1
    31    32    27    1
    32    33    28    1
    33    34    29    1
    34    35    30    1
    35    36    26   ar
    36    37    27   ar
    37    38    28   ar
    38    39    29   ar
    39    40    30   ar
    40    41    36    1
    41    42    37    1
    42    43    38    1
    43    44    39    1
    44    45    40    1
    45    46    21   ar
    46    47    22   ar
    47    48    23   ar
    48    49    24   ar
    49    50    25   ar
    50    51    46    1
    51    52    47    1
    52    53    48    1
    53    54    49    1
    54    55    50    1
    55    56    59    1
    56    57    10    1
    57    58    10    1
    58    59    64    1
    59    60    56    1
    60    61    56    1
    61    62    57    1
    62    63    58    1
    63    65    60    1
    64    66    61    1
    65    67    57    1
    66    68    58    1
    67    69    59    1
    68    70    60    1
    69    71    61    1
    70    72    57    1
    71    73    58    1
    72    74    59    1
    73    75    60    1
    74    76    61    1
    75    77    18    1
    76    10    15    1
    77    16    21   ar
    78    17    22   ar
    79    19    77    1
    80    20    77    1
    81    36    46   ar
    82    37    47   ar
    83    38    48   ar
    84    39    49   ar
    85    40    50   ar
    86    56    77    1
@<TRIPOS>SUBSTRUCTURE
     1 RES1        1 GROUP             0 ****  ****    0  
@<TRIPOS>CRYSIN
   12.5471   12.5471   14.9713   90.0000   90.0000  120.0000   233     1
