@<TRIPOS>MOLECULE
HOQFID
    95   104     1     0     0
SMALL
NO_CHARGES
****
Generated from the CSD

@<TRIPOS>ATOM
     1 C1      -0.2050  -2.2438   3.4163   C.ar      1 RES1   0.0000
     2 H1      -0.4696  -2.3255   4.3033   H         1 RES1   0.0000
     3 C2       0.3772  -3.2244   2.6747   C.ar      1 RES1   0.0000
     4 H2       0.5874  -4.0860   2.9530   H         1 RES1   0.0000
     5 C3       0.5940  -2.6776   1.4191   C.ar      1 RES1   0.0000
     6 C4       1.2399  -3.3738   0.2600   C.3       1 RES1   0.0000
     7 H3       1.1971  -2.8098  -0.5154   H         1 RES1   0.0000
     8 H4       0.7775  -4.1960   0.0841   H         1 RES1   0.0000
     9 H5       2.1572  -3.5604   0.4695   H         1 RES1   0.0000
    10 C5      -3.4285   0.7536   2.1241   C.ar      1 RES1   0.0000
    11 H6      -3.8513   0.8868   2.9423   H         1 RES1   0.0000
    12 C6      -4.0322   0.8091   0.9130   C.ar      1 RES1   0.0000
    13 H7      -4.9306   0.9776   0.7432   H         1 RES1   0.0000
    14 C7      -3.0346   0.5630  -0.0275   C.ar      1 RES1   0.0000
    15 C8      -3.2176   0.5186  -1.5063   C.3       1 RES1   0.0000
    16 H8      -2.5201   1.0240  -1.9299   H         1 RES1   0.0000
    17 H9      -4.0699   0.8969  -1.7342   H         1 RES1   0.0000
    18 H10     -3.1801  -0.3925  -1.8060   H         1 RES1   0.0000
    19 C9       0.7399   2.3164   3.2741   C.ar      1 RES1   0.0000
    20 H11      0.5730   2.5172   4.1672   H         1 RES1   0.0000
    21 C10      1.6212   2.9813   2.4667   C.ar      1 RES1   0.0000
    22 H12      2.1561   3.7067   2.6961   H         1 RES1   0.0000
    23 C11      1.5492   2.3477   1.2341   C.ar      1 RES1   0.0000
    24 C12      2.3596   2.7018   0.0260   C.3       1 RES1   0.0000
    25 H13      2.0748   2.1671  -0.7187   H         1 RES1   0.0000
    26 H14      3.2882   2.5344   0.2034   H         1 RES1   0.0000
    27 H15      2.2367   3.6310  -0.1820   H         1 RES1   0.0000
    28 C13     -1.4050   0.4752   4.5489   C.3       1 RES1   0.0000
    29 C14     -1.9791   1.8937   4.7850   C.3       1 RES1   0.0000
    30 H16     -1.7339   2.4637   4.0540   H         1 RES1   0.0000
    31 H17     -1.6228   2.2498   5.6032   H         1 RES1   0.0000
    32 H18     -2.9363   1.8453   4.8477   H         1 RES1   0.0000
    33 C15     -0.2219   0.2532   5.5359   C.3       1 RES1   0.0000
    34 H19      0.5466   0.7405   5.2300   H         1 RES1   0.0000
    35 H20     -0.0110  -0.6830   5.5772   H         1 RES1   0.0000
    36 H21     -0.4706   0.5630   6.4091   H         1 RES1   0.0000
    37 C16     -2.5162  -0.5176   5.0068   C.3       1 RES1   0.0000
    38 H22     -3.2932  -0.4046   4.4562   H         1 RES1   0.0000
    39 H23     -2.7442  -0.3410   5.9228   H         1 RES1   0.0000
    40 H24     -2.1935  -1.4185   4.9257   H         1 RES1   0.0000
    41 B1      -0.9400   0.2805   2.9759   B         1 RES1   0.0000
    42 Fe1      0.0000   0.0000   0.0000   Fe        1 RES1   0.0000
    43 N1      -0.3356  -1.1441   2.6656   N.ar      1 RES1   0.0000
    44 N2       0.1575  -1.4034   1.3990   N.ar      1 RES1   0.0000
    45 N3      -2.1119   0.4742   1.9587   N.ar      1 RES1   0.0000
    46 N4      -1.8644   0.3592   0.6041   N.ar      1 RES1   0.0000
    47 N5       0.1526   1.3247   2.5769   N.ar      1 RES1   0.0000
    48 N6       0.6601   1.3408   1.2904   N.ar      1 RES1   0.0000
    49 C1B      0.2050   2.2438  -3.4163   C.ar      1 RES1   0.0000
    50 H1B      0.4696   2.3255  -4.3033   H         1 RES1   0.0000
    51 C2B     -0.3772   3.2244  -2.6747   C.ar      1 RES1   0.0000
    52 H2B     -0.5874   4.0860  -2.9530   H         1 RES1   0.0000
    53 C3B     -0.5940   2.6776  -1.4191   C.ar      1 RES1   0.0000
    54 C4B     -1.2399   3.3738  -0.2600   C.3       1 RES1   0.0000
    55 H3B     -1.1971   2.8098   0.5154   H         1 RES1   0.0000
    56 H4B     -0.7775   4.1960  -0.0841   H         1 RES1   0.0000
    57 H5B     -2.1572   3.5604  -0.4695   H         1 RES1   0.0000
    58 C5B      3.4285  -0.7536  -2.1241   C.ar      1 RES1   0.0000
    59 H6B      3.8513  -0.8868  -2.9423   H         1 RES1   0.0000
    60 C6B      4.0322  -0.8091  -0.9130   C.ar      1 RES1   0.0000
    61 H7B      4.9306  -0.9776  -0.7432   H         1 RES1   0.0000
    62 C7B      3.0346  -0.5630   0.0275   C.ar      1 RES1   0.0000
    63 C8B      3.2176  -0.5186   1.5063   C.3       1 RES1   0.0000
    64 H8B      2.5201  -1.0240   1.9299   H         1 RES1   0.0000
    65 H9B      4.0699  -0.8969   1.7342   H         1 RES1   0.0000
    66 H10B     3.1801   0.3925   1.8060   H         1 RES1   0.0000
    67 C9B     -0.7399  -2.3164  -3.2741   C.ar      1 RES1   0.0000
    68 H11B    -0.5730  -2.5172  -4.1672   H         1 RES1   0.0000
    69 C10B    -1.6212  -2.9813  -2.4667   C.ar      1 RES1   0.0000
    70 H12B    -2.1561  -3.7067  -2.6961   H         1 RES1   0.0000
    71 C11B    -1.5492  -2.3477  -1.2341   C.ar      1 RES1   0.0000
    72 C12B    -2.3596  -2.7018  -0.0260   C.3       1 RES1   0.0000
    73 H13B    -2.0748  -2.1671   0.7187   H         1 RES1   0.0000
    74 H14B    -3.2882  -2.5344  -0.2034   H         1 RES1   0.0000
    75 H15B    -2.2367  -3.6310   0.1820   H         1 RES1   0.0000
    76 C13B     1.4050  -0.4752  -4.5489   C.3       1 RES1   0.0000
    77 C14B     1.9791  -1.8937  -4.7850   C.3       1 RES1   0.0000
    78 H16B     1.7339  -2.4637  -4.0540   H         1 RES1   0.0000
    79 H17B     1.6228  -2.2498  -5.6032   H         1 RES1   0.0000
    80 H18B     2.9363  -1.8453  -4.8477   H         1 RES1   0.0000
    81 C15B     0.2219  -0.2532  -5.5359   C.3       1 RES1   0.0000
    82 H19B    -0.5466  -0.7405  -5.2300   H         1 RES1   0.0000
    83 H20B     0.0110   0.6830  -5.5772   H         1 RES1   0.0000
    84 H21B     0.4706  -0.5630  -6.4091   H         1 RES1   0.0000
    85 C16B     2.5162   0.5176  -5.0068   C.3       1 RES1   0.0000
    86 H22B     3.2932   0.4046  -4.4562   H         1 RES1   0.0000
    87 H23B     2.7442   0.3410  -5.9228   H         1 RES1   0.0000
    88 H24B     2.1935   1.4185  -4.9257   H         1 RES1   0.0000
    89 B1B      0.9400  -0.2805  -2.9759   B         1 RES1   0.0000
    90 N1B      0.3356   1.1441  -2.6656   N.ar      1 RES1   0.0000
    91 N2B     -0.1575   1.4034  -1.3990   N.ar      1 RES1   0.0000
    92 N3B      2.1119  -0.4742  -1.9587   N.ar      1 RES1   0.0000
    93 N4B      1.8644  -0.3592  -0.6041   N.ar      1 RES1   0.0000
    94 N5B     -0.1526  -1.3247  -2.5769   N.ar      1 RES1   0.0000
    95 N6B     -0.6601  -1.3408  -1.2904   N.ar      1 RES1   0.0000
@<TRIPOS>BOND
     1     1     2    1
     2     3     1   ar
     3     4     3    1
     4     5     3   ar
     5     6     5    1
     6     7     6    1
     7     8     6    1
     8     9     6    1
     9    10    11    1
    10    12    10   ar
    11    13    12    1
    12    14    12   ar
    13    15    14    1
    14    16    15    1
    15    17    15    1
    16    18    15    1
    17    19    20    1
    18    21    19   ar
    19    22    21    1
    20    23    21   ar
    21    24    23    1
    22    25    24    1
    23    26    24    1
    24    27    24    1
    25    28    29    1
    26    29    30    1
    27    31    29    1
    28    32    29    1
    29    33    28    1
    30    34    33    1
    31    35    33    1
    32    36    33    1
    33    37    28    1
    34    38    37    1
    35    39    37    1
    36    40    37    1
    37    41    28    1
    38    42    44    1
    39    43     1   ar
    40    44     5   ar
    41    45    10   ar
    42    46    14   ar
    43    47    19   ar
    44    48    23   ar
    45    49    50    1
    46    51    49   ar
    47    52    51    1
    48    53    51   ar
    49    54    53    1
    50    55    54    1
    51    56    54    1
    52    57    54    1
    53    58    59    1
    54    60    58   ar
    55    61    60    1
    56    62    60   ar
    57    63    62    1
    58    64    63    1
    59    65    63    1
    60    66    63    1
    61    67    68    1
    62    69    67   ar
    63    70    69    1
    64    71    69   ar
    65    72    71    1
    66    73    72    1
    67    74    72    1
    68    75    72    1
    69    76    77    1
    70    77    78    1
    71    79    77    1
    72    80    77    1
    73    81    76    1
    74    82    81    1
    75    83    81    1
    76    84    81    1
    77    85    76    1
    78    86    85    1
    79    87    85    1
    80    88    85    1
    81    89    76    1
    82    90    49   ar
    83    91    42    1
    84    92    58   ar
    85    93    42    1
    86    94    67   ar
    87    95    42    1
    88    41    43    1
    89    41    45    1
    90    41    47    1
    91    42    46    1
    92    42    48    1
    93    43    44   ar
    94    45    46   ar
    95    47    48   ar
    96    53    91   ar
    97    62    93   ar
    98    71    95   ar
    99    89    90    1
   100    89    92    1
   101    89    94    1
   102    90    91   ar
   103    92    93   ar
   104    94    95   ar
@<TRIPOS>SUBSTRUCTURE
     1 RES1        1 GROUP             0 ****  ****    0  
@<TRIPOS>CRYSIN
   11.0500   10.0890   15.3850   90.0000   96.2860   90.0000   231     1
