@<TRIPOS>MOLECULE
HORHEF01
    75    82     3     0     0
SMALL
USER_CHARGES
****
Generated from the CSD

@<TRIPOS>ATOM
     1 Br1     13.9023   7.3938   1.3667   Br        1 RES1   0.0000
     2 Fe1      8.8069   4.0932   5.2169   Fe        1 RES1   1.0000
     3 Br2      3.9928   0.9165   0.8958   Br        1 RES1   0.0000
     4 O1       7.4209   4.4927   6.4928   O.3       1 RES1   0.0000
     5 O2      10.1750   3.6546   6.4928   O.3       1 RES1   0.0000
     6 N1       8.4758   2.0101   4.9515   N.2       1 RES1   0.0000
     7 N2       7.3723   4.0171   3.5892   N.ar      1 RES1   0.0000
     8 N3      10.3190   4.2006   3.6623   N.ar      1 RES1   0.0000
     9 N4       9.1447   6.1710   5.0271   N.2       1 RES1   0.0000
    10 C1       5.8509   2.5500   2.3277   C.ar      1 RES1   0.0000
    11 C2       6.8715   2.7596   3.3119   C.ar      1 RES1   0.0000
    12 C3       5.3772   1.2504   2.1525   C.ar      1 RES1   0.0000
    13 C4       7.4272   1.6655   4.0416   C.ar      1 RES1   0.0000
    14 C5      10.3027   1.2786   6.3718   C.ar      1 RES1   0.0000
    15 C6      10.7562   2.5368   6.8293   C.ar      1 RES1   0.0000
    16 C7      10.8316   5.4595   3.4606   C.ar      1 RES1   0.0000
    17 C8      11.9191   5.6859   2.5646   C.ar      1 RES1   0.0000
    18 C9       6.9009   5.0577   2.9376   C.ar      1 RES1   0.0000
    19 H1       7.2387   5.9020   3.1296   H         1 RES1   0.0000
    20 C10     10.2251   6.5469   4.1601   C.ar      1 RES1   0.0000
    21 C11      9.1960   1.0851   5.4745   C.2       1 RES1   0.0000
    22 H2       8.9821   0.2080   5.2509   H         1 RES1   0.0000
    23 C12      6.8192   5.6112   6.8356   C.ar      1 RES1   0.0000
    24 C13     11.7999   8.0509   3.1317   C.ar      1 RES1   0.0000
    25 H3      12.1372   8.9122   3.0379   H         1 RES1   0.0000
    26 C14      8.4073   7.1085   5.5690   C.2       1 RES1   0.0000
    27 H4       8.6405   7.9905   5.3873   H         1 RES1   0.0000
    28 C15     10.9750   0.0979   6.8305   C.ar      1 RES1   0.0000
    29 H5      10.6984  -0.7365   6.5253   H         1 RES1   0.0000
    30 C16      7.2713   6.8915   6.4210   C.ar      1 RES1   0.0000
    31 C17     10.8415   3.1781   3.0032   C.ar      1 RES1   0.0000
    32 H6      10.4848   2.3308   3.1398   H         1 RES1   0.0000
    33 C18     12.3882   7.0120   2.4411   C.ar      1 RES1   0.0000
    34 C19      5.8643   0.2046   2.8708   C.ar      1 RES1   0.0000
    35 H7       5.5221  -0.6495   2.7382   H         1 RES1   0.0000
    36 C20     10.7083   7.8291   3.9698   C.ar      1 RES1   0.0000
    37 H8      10.3023   8.5464   4.4009   H         1 RES1   0.0000
    38 C21      6.6110   8.0447   6.8935   C.ar      1 RES1   0.0000
    39 H9       6.9199   8.8817   6.6312   H         1 RES1   0.0000
    40 C22      5.3956   3.7036   1.6597   C.ar      1 RES1   0.0000
    41 H10      4.7399   3.6233   1.0041   H         1 RES1   0.0000
    42 C23     11.9026   3.3206   2.1160   C.ar      1 RES1   0.0000
    43 H11     12.2444   2.5783   1.6721   H         1 RES1   0.0000
    44 C24     12.4533   1.4256   8.1362   C.ar      1 RES1   0.0000
    45 H12     13.1789   1.4729   8.7146   H         1 RES1   0.0000
    46 C25      5.6923   5.5468   7.6951   C.ar      1 RES1   0.0000
    47 H13      5.3727   4.7198   7.9745   H         1 RES1   0.0000
    48 C26     12.4424   4.5696   1.8992   C.ar      1 RES1   0.0000
    49 H14     13.1553   4.6714   1.3100   H         1 RES1   0.0000
    50 C27     11.8333   2.5917   7.7190   C.ar      1 RES1   0.0000
    51 H15     12.1354   3.4143   8.0309   H         1 RES1   0.0000
    52 C28      5.8951   4.9292   1.9546   C.ar      1 RES1   0.0000
    53 H16      5.5779   5.6831   1.5123   H         1 RES1   0.0000
    54 C29      5.0691   6.6976   8.1172   C.ar      1 RES1   0.0000
    55 H17      4.3265   6.6365   8.6731   H         1 RES1   0.0000
    56 C30      6.8998   0.4166   3.8236   C.ar      1 RES1   0.0000
    57 H18      7.2258  -0.3059   4.3095   H         1 RES1   0.0000
    58 C31      5.5333   7.9655   7.7240   C.ar      1 RES1   0.0000
    59 H19      5.1121   8.7383   8.0262   H         1 RES1   0.0000
    60 C32     12.0020   0.1819   7.7001   C.ar      1 RES1   0.0000
    61 H20     12.4119  -0.5930   8.0095   H         1 RES1   0.0000
    62 S1       7.0018   8.8905   1.8666   S.o2      2 RES2   0.0000
    63 O3       7.4419   8.3627   3.1065   O.2       2 RES2   0.0000
    64 O4       6.9560  10.3202   1.8059   O.2       2 RES2   0.0000
    65 O5       5.8848   8.1973   1.2804   O.3       2 RES2  -1.0000
    66 F1       8.0915   8.7958  -0.5154   F         2 RES2   0.0000
    67 F2       9.4874   9.0746   1.0435   F         2 RES2   0.0000
    68 F3       8.6157   7.1670   0.7561   F         2 RES2   0.0000
    69 C33      8.3549   8.4533   0.7398   C.3       2 RES2   0.0000
    70 O6       4.6529  11.6171   2.7625   O.3       3 RES3   0.0000
    71 H21      5.4176  11.3418   2.6545   H         3 RES3   0.0000
    72 C34      3.9132  11.3993   1.6018   C.3       3 RES3   0.0000
    73 H22      4.2749  11.9274   0.8869   H         3 RES3   0.0000
    74 H23      2.9985  11.6494   1.7536   H         3 RES3   0.0000
    75 H24      3.9549  10.4693   1.3658   H         3 RES3   0.0000
@<TRIPOS>BOND
     1     1    33    1
     2     2     4    1
     3     3    12    1
     4     4    23    1
     5     5     2    1
     6     6     2    1
     7     7     2    1
     8     8     2    1
     9     9     2    1
    10    10    11   ar
    11    11     7   ar
    12    12    10   ar
    13    13     6    1
    14    14    15   ar
    15    15     5    1
    16    16     8   ar
    17    17    16   ar
    18    18     7   ar
    19    19    18    1
    20    20     9    1
    21    21     6    2
    22    22    21    1
    23    23    30   ar
    24    24    25    1
    25    26     9    2
    26    27    26    1
    27    28    14   ar
    28    29    28    1
    29    30    26    1
    30    31     8   ar
    31    32    31    1
    32    33    17   ar
    33    34    12   ar
    34    35    34    1
    35    36    20   ar
    36    37    36    1
    37    38    30   ar
    38    39    38    1
    39    40    10   ar
    40    41    40    1
    41    42    31   ar
    42    43    42    1
    43    44    45    1
    44    46    23   ar
    45    47    46    1
    46    48    17   ar
    47    49    48    1
    48    50    15   ar
    49    51    50    1
    50    52    18   ar
    51    53    52    1
    52    54    46   ar
    53    55    54    1
    54    56    13   ar
    55    57    56    1
    56    58    38   ar
    57    59    58    1
    58    60    28   ar
    59    61    60    1
    60    11    13   ar
    61    14    21    1
    62    16    20   ar
    63    24    33   ar
    64    24    36   ar
    65    34    56   ar
    66    40    52   ar
    67    42    48   ar
    68    44    50   ar
    69    44    60   ar
    70    54    58   ar
    71    62    63    2
    72    64    62    2
    73    65    62    1
    74    66    69    1
    75    67    69    1
    76    68    69    1
    77    69    62    1
    78    70    71    1
    79    72    70    1
    80    73    72    1
    81    74    72    1
    82    75    72    1
@<TRIPOS>SUBSTRUCTURE
     1 RES1        1 GROUP             0 ****  ****    0  
     2 RES2       62 GROUP             0 ****  ****    0  
     3 RES3       70 GROUP             0 ****  ****    0  
@<TRIPOS>CRYSIN
   11.2600   12.9530   13.3350   73.9710   73.9880   64.8070     2     1
