@<TRIPOS>MOLECULE
HORHEF
    75    82     3     0     0
SMALL
USER_CHARGES
****
Generated from the CSD

@<TRIPOS>ATOM
     1 Br1     13.8313   7.3320   1.3531   Br        1 RES1   0.0000
     2 Br2      3.9589   0.9113   0.8542   Br        1 RES1   0.0000
     3 Fe1      8.7417   4.0403   5.1565   Fe        1 RES1   1.0000
     4 O1       7.3486   4.4329   6.4156   O.3       1 RES1   0.0000
     5 O2      10.1076   3.6010   6.4355   O.3       1 RES1   0.0000
     6 N1       8.4143   1.9697   4.9007   N.2       1 RES1   0.0000
     7 N2       9.0647   6.1062   4.9630   N.2       1 RES1   0.0000
     8 N3      10.2367   4.1424   3.6186   N.ar      1 RES1   0.0000
     9 N4       7.3082   3.9812   3.5439   N.ar      1 RES1   0.0000
    10 C1       7.3691   1.6366   3.9982   C.ar      1 RES1   0.0000
    11 C2       8.3240   7.0358   5.5044   C.2       1 RES1   0.0000
    12 H1       8.5569   7.9374   5.3176   H         1 RES1   0.0000
    13 C3      10.1369   6.4872   4.1215   C.ar      1 RES1   0.0000
    14 C4       6.5367   7.9665   6.7978   C.ar      1 RES1   0.0000
    15 H2       6.8475   8.8206   6.5220   H         1 RES1   0.0000
    16 C5       5.4327   7.8662   7.6368   C.ar      1 RES1   0.0000
    17 H3       4.9907   8.6521   7.9360   H         1 RES1   0.0000
    18 C6       4.9772   6.6162   8.0401   C.ar      1 RES1   0.0000
    19 H4       4.2236   6.5481   8.6142   H         1 RES1   0.0000
    20 C7       5.6242   5.4663   7.6031   C.ar      1 RES1   0.0000
    21 H5       5.3133   4.6124   7.8785   H         1 RES1   0.0000
    22 C8       6.7279   5.5664   6.7629   C.ar      1 RES1   0.0000
    23 C9       7.1838   6.8166   6.3608   C.ar      1 RES1   0.0000
    24 C10     11.8452   5.6143   2.5331   C.ar      1 RES1   0.0000
    25 C11      6.8265   2.7358   3.2651   C.ar      1 RES1   0.0000
    26 C12     10.6232   7.7628   3.9223   C.ar      1 RES1   0.0000
    27 H6      10.2153   8.5000   4.3617   H         1 RES1   0.0000
    28 C13     10.7546   5.4146   3.4070   C.ar      1 RES1   0.0000
    29 C14     11.7112   7.9726   3.0784   C.ar      1 RES1   0.0000
    30 H7      12.0354   8.8581   2.9639   H         1 RES1   0.0000
    31 C15     10.7064   2.4632   6.7592   C.ar      1 RES1   0.0000
    32 C16     10.2677   1.2260   6.3023   C.ar      1 RES1   0.0000
    33 C17     10.9013   0.0633   6.7256   C.ar      1 RES1   0.0000
    34 H8      10.6010  -0.7818   6.4131   H         1 RES1   0.0000
    35 C18     11.9738   0.1380   7.6069   C.ar      1 RES1   0.0000
    36 H9      12.4062  -0.6566   7.8967   H         1 RES1   0.0000
    37 C19     12.4128   1.3754   8.0650   C.ar      1 RES1   0.0000
    38 H10     13.1454   1.4256   8.6669   H         1 RES1   0.0000
    39 C20     11.7800   2.5379   7.6405   C.ar      1 RES1   0.0000
    40 H11     12.0794   3.3828   7.9536   H         1 RES1   0.0000
    41 C21      5.3531   3.6826   1.6070   C.ar      1 RES1   0.0000
    42 H12      4.6929   3.5956   0.9298   H         1 RES1   0.0000
    43 C22     12.3303   6.9562   2.4111   C.ar      1 RES1   0.0000
    44 C23      5.8301   0.1765   2.8219   C.ar      1 RES1   0.0000
    45 H13      5.4976  -0.7011   2.6748   H         1 RES1   0.0000
    46 C24      5.7931   2.5339   2.2916   C.ar      1 RES1   0.0000
    47 C25     10.7847   3.1361   2.9750   C.ar      1 RES1   0.0000
    48 H14     10.4343   2.2659   3.1254   H         1 RES1   0.0000
    49 C26      9.1590   1.0290   5.4136   C.2       1 RES1   0.0000
    50 H15      8.9474   0.1337   5.1774   H         1 RES1   0.0000
    51 C27      6.8400   5.0190   2.8817   C.ar      1 RES1   0.0000
    52 H16      7.1882   5.8799   3.0818   H         1 RES1   0.0000
    53 C28     12.3969   4.5090   1.8759   C.ar      1 RES1   0.0000
    54 H17     13.1389   4.6143   1.2931   H         1 RES1   0.0000
    55 C29      5.3292   1.2284   2.1099   C.ar      1 RES1   0.0000
    56 C30      6.8504   0.4024   3.7804   C.ar      1 RES1   0.0000
    57 H18      7.1794  -0.3320   4.2853   H         1 RES1   0.0000
    58 C31     11.8458   3.2685   2.0887   C.ar      1 RES1   0.0000
    59 H19     12.1874   2.5084   1.6329   H         1 RES1   0.0000
    60 C32      5.8519   4.9124   1.8958   C.ar      1 RES1   0.0000
    61 H20      5.5380   5.6837   1.4377   H         1 RES1   0.0000
    62 S1       6.9245   8.8300   1.8348   S.o2      2 RES2   0.0000
    63 F1       9.4188   9.0131   1.0357   F         2 RES2   0.0000
    64 O3       7.3646   8.2877   3.0983   O.3       2 RES2  -1.0000
    65 O4       6.8770  10.2519   1.7626   O.2       2 RES2   0.0000
    66 F2       8.0153   8.7360  -0.5477   F         2 RES2   0.0000
    67 F3       8.5478   7.1031   0.7444   F         2 RES2   0.0000
    68 O5       5.8035   8.1498   1.2460   O.2       2 RES2   0.0000
    69 C33      8.2811   8.3919   0.7257   C.3       2 RES2   0.0000
    70 O6       4.5599  11.5063   2.7597   O.3       3 RES3   0.0000
    71 H21      5.3365  11.2018   2.6613   H         3 RES3   0.0000
    72 C34      3.8237  11.3142   1.5659   C.3       3 RES3   0.0000
    73 H22      4.1562  11.9249   0.8751   H         3 RES3   0.0000
    74 H23      2.8755  11.4964   1.7337   H         3 RES3   0.0000
    75 H24      3.9295  10.3886   1.2618   H         3 RES3   0.0000
@<TRIPOS>BOND
     1     1    43    1
     2     2    55    1
     3     3     4    1
     4     4    22    1
     5     5     3    1
     6     6     3    1
     7     7     3    1
     8     8     3    1
     9     9     3    1
    10    10     6    1
    11    11     7    2
    12    12    11    1
    13    13     7    1
    14    14    15    1
    15    16    14   ar
    16    17    16    1
    17    18    16   ar
    18    19    18    1
    19    20    18   ar
    20    21    20    1
    21    22    20   ar
    22    23    11    1
    23    24    28   ar
    24    25     9   ar
    25    26    13   ar
    26    27    26    1
    27    28     8   ar
    28    29    26   ar
    29    30    29    1
    30    31     5    1
    31    32    31   ar
    32    33    32   ar
    33    34    33    1
    34    35    33   ar
    35    36    35    1
    36    37    35   ar
    37    38    37    1
    38    39    31   ar
    39    40    39    1
    40    41    42    1
    41    43    24   ar
    42    44    45    1
    43    46    25   ar
    44    47     8   ar
    45    48    47    1
    46    49     6    2
    47    50    49    1
    48    51     9   ar
    49    52    51    1
    50    53    24   ar
    51    54    53    1
    52    55    44   ar
    53    56    10   ar
    54    57    56    1
    55    58    47   ar
    56    59    58    1
    57    60    41   ar
    58    61    60    1
    59    10    25   ar
    60    13    28   ar
    61    14    23   ar
    62    22    23   ar
    63    29    43   ar
    64    32    49    1
    65    37    39   ar
    66    41    46   ar
    67    44    56   ar
    68    46    55   ar
    69    51    60   ar
    70    53    58   ar
    71    62    64    1
    72    63    69    1
    73    65    62    2
    74    66    69    1
    75    67    69    1
    76    68    62    2
    77    69    62    1
    78    70    71    1
    79    72    70    1
    80    73    72    1
    81    74    72    1
    82    75    72    1
@<TRIPOS>SUBSTRUCTURE
     1 RES1        1 GROUP             0 ****  ****    0  
     2 RES2       62 GROUP             0 ****  ****    0  
     3 RES3       70 GROUP             0 ****  ****    0  
@<TRIPOS>CRYSIN
   11.2030   12.8256   13.1670   74.1400   73.9400   64.9590     2     1
