@<TRIPOS>MOLECULE
HOVLUZ
    94   104     2     0     0
SMALL
USER_CHARGES
****
Generated from the CSD

@<TRIPOS>ATOM
     1 Fe1      4.9022  12.4101   3.6834   Fe        1 RES1   1.0000
     2 S1       3.0257  11.6701   4.6171   S.3       1 RES1   0.0000
     3 S2       3.9379  12.9137   1.7586   S.3       1 RES1   0.0000
     4 N1       4.5148  14.1408   4.4294   N.2       1 RES1   0.0000
     5 N2       6.6085  13.3574   3.1830   N.ar      1 RES1   0.0000
     6 N3       5.9882  11.6785   5.1918   N.ar      1 RES1   0.0000
     7 N4       5.2646  10.6539   2.9555   N.2       1 RES1   0.0000
     8 C1       2.4919  13.2014   5.2732   C.ar      1 RES1   0.0000
     9 C2       1.2955  13.3065   5.9833   C.ar      1 RES1   0.0000
    10 H1       0.7146  12.5566   6.0432   H         1 RES1   0.0000
    11 C3       0.9516  14.4920   6.6011   C.ar      1 RES1   0.0000
    12 H2       0.1359  14.5525   7.0837   H         1 RES1   0.0000
    13 C4       1.7881  15.6008   6.5227   C.ar      1 RES1   0.0000
    14 H3       1.5572  16.4046   6.9731   H         1 RES1   0.0000
    15 C5       2.9503  15.5329   5.7912   C.ar      1 RES1   0.0000
    16 H4       3.5137  16.2941   5.7189   H         1 RES1   0.0000
    17 C6       3.3005  14.3362   5.1533   C.ar      1 RES1   0.0000
    18 C7       5.3885  15.0750   4.2266   C.2       1 RES1   0.0000
    19 H5       5.2422  15.9723   4.5017   H         1 RES1   0.0000
    20 C8       6.6013  14.6669   3.5518   C.ar      1 RES1   0.0000
    21 C9       7.6970  15.4979   3.3505   C.ar      1 RES1   0.0000
    22 H6       7.6634  16.4183   3.5841   H         1 RES1   0.0000
    23 C10      8.8344  14.9435   2.8018   C.ar      1 RES1   0.0000
    24 H7       9.6083  15.4793   2.6697   H         1 RES1   0.0000
    25 C11      8.8508  13.6147   2.4437   C.ar      1 RES1   0.0000
    26 H8       9.6345  13.2257   2.0718   H         1 RES1   0.0000
    27 C12      7.7105  12.8534   2.6312   C.ar      1 RES1   0.0000
    28 H9       7.7141  11.9439   2.3577   H         1 RES1   0.0000
    29 C13      6.3300  12.2991   6.3291   C.ar      1 RES1   0.0000
    30 H10      6.0216  13.1828   6.4905   H         1 RES1   0.0000
    31 C14      7.1302  11.6682   7.2758   C.ar      1 RES1   0.0000
    32 H11      7.3609  12.1154   8.0812   H         1 RES1   0.0000
    33 C15      7.5856  10.3899   7.0391   C.ar      1 RES1   0.0000
    34 H12      8.1355   9.9527   7.6785   H         1 RES1   0.0000
    35 C16      7.2374   9.7464   5.8665   C.ar      1 RES1   0.0000
    36 H13      7.5440   8.8660   5.6882   H         1 RES1   0.0000
    37 C17      6.4289  10.4139   4.9505   C.ar      1 RES1   0.0000
    38 C18      5.9821   9.8598   3.6917   C.2       1 RES1   0.0000
    39 H14      6.1981   8.9748   3.4212   H         1 RES1   0.0000
    40 C19      4.6852  10.2854   1.7168   C.ar      1 RES1   0.0000
    41 C20      4.8022   9.0214   1.1419   C.ar      1 RES1   0.0000
    42 H15      5.3061   8.3431   1.5769   H         1 RES1   0.0000
    43 C21      4.1749   8.7609  -0.0707   C.ar      1 RES1   0.0000
    44 H16      4.2609   7.9053  -0.4764   H         1 RES1   0.0000
    45 C22      3.4244   9.7498  -0.6855   C.ar      1 RES1   0.0000
    46 H17      2.9831   9.5634  -1.5062   H         1 RES1   0.0000
    47 C23      3.3109  11.0015  -0.1183   C.ar      1 RES1   0.0000
    48 H18      2.7871  11.6661  -0.5487   H         1 RES1   0.0000
    49 C24      3.9554  11.3005   1.0759   C.ar      1 RES1   0.0000
    50 B1       5.1313  19.9232   3.7624   B         2 RES2  -1.0000
    51 C25      5.8926  21.2470   3.1599   C.ar      2 RES2   0.0000
    52 C26      5.6632  21.7609   1.8812   C.ar      2 RES2   0.0000
    53 H19      5.1130  21.2662   1.2864   H         2 RES2   0.0000
    54 C27      6.2055  22.9664   1.4416   C.ar      2 RES2   0.0000
    55 H20      6.0228  23.2760   0.5610   H         2 RES2   0.0000
    56 C28      7.0069  23.7166   2.2823   C.ar      2 RES2   0.0000
    57 H21      7.3821  24.5380   1.9873   H         2 RES2   0.0000
    58 C29      7.2528  23.2516   3.5518   C.ar      2 RES2   0.0000
    59 H22      7.8004  23.7577   4.1405   H         2 RES2   0.0000
    60 C30      6.7035  22.0466   3.9807   C.ar      2 RES2   0.0000
    61 H23      6.8856  21.7529   4.8644   H         2 RES2   0.0000
    62 C31      3.7193  20.5274   4.3511   C.ar      2 RES2   0.0000
    63 C32      2.6242  20.7605   3.5088   C.ar      2 RES2   0.0000
    64 H24      2.6865  20.4832   2.6020   H         2 RES2   0.0000
    65 C33      1.4566  21.3712   3.9330   C.ar      2 RES2   0.0000
    66 H25      0.7522  21.5304   3.3152   H         2 RES2   0.0000
    67 C34      1.3183  21.7519   5.2563   C.ar      2 RES2   0.0000
    68 H26      0.5120  22.1520   5.5622   H         2 RES2   0.0000
    69 C35      2.3657  21.5417   6.1247   C.ar      2 RES2   0.0000
    70 H27      2.2845  21.8018   7.0345   H         2 RES2   0.0000
    71 C36      3.5472  20.9472   5.6774   C.ar      2 RES2   0.0000
    72 H28      4.2592  20.8233   6.2937   H         2 RES2   0.0000
    73 C37      6.0137  19.1427   4.8967   C.ar      2 RES2   0.0000
    74 C38      7.4051  19.0389   4.8198   C.ar      2 RES2   0.0000
    75 H29      7.8596  19.5209   4.1390   H         2 RES2   0.0000
    76 C39      8.1527  18.2610   5.6959   C.ar      2 RES2   0.0000
    77 H30      9.0984  18.2343   5.6144   H         2 RES2   0.0000
    78 C40      7.5251  17.5312   6.6795   C.ar      2 RES2   0.0000
    79 H31      8.0294  16.9907   7.2758   H         2 RES2   0.0000
    80 C41      6.1450  17.5980   6.7871   C.ar      2 RES2   0.0000
    81 H32      5.6956  17.0993   7.4603   H         2 RES2   0.0000
    82 C42      5.4234  18.3919   5.9141   C.ar      2 RES2   0.0000
    83 H33      4.4794  18.4268   6.0125   H         2 RES2   0.0000
    84 C43      4.8605  18.7362   2.6589   C.ar      2 RES2   0.0000
    85 C44      5.8057  18.4300   1.6722   C.ar      2 RES2   0.0000
    86 H34      6.5409  19.0186   1.5477   H         2 RES2   0.0000
    87 C45      5.7102  17.3025   0.8684   C.ar      2 RES2   0.0000
    88 H35      6.3732  17.1378   0.2075   H         2 RES2   0.0000
    89 C46      4.6676  16.4222   1.0190   C.ar      2 RES2   0.0000
    90 H36      4.6100  15.6421   0.4811   H         2 RES2   0.0000
    91 C47      3.6988  16.6954   1.9765   C.ar      2 RES2   0.0000
    92 H37      2.9652  16.1023   2.0918   H         2 RES2   0.0000
    93 C48      3.7988  17.8342   2.7649   C.ar      2 RES2   0.0000
    94 H38      3.1165  18.0065   3.4028   H         2 RES2   0.0000
@<TRIPOS>BOND
     1     1     2    1
     2     2     8    1
     3     3     1    1
     4     4     1    1
     5     5     1    1
     6     6     1    1
     7     7     1    1
     8     8     9   ar
     9     9    10    1
    10    11     9   ar
    11    12    11    1
    12    13    11   ar
    13    14    13    1
    14    15    13   ar
    15    16    15    1
    16    17     4    1
    17    18     4    2
    18    19    18    1
    19    20     5   ar
    20    21    20   ar
    21    22    21    1
    22    23    21   ar
    23    24    23    1
    24    25    23   ar
    25    26    25    1
    26    27     5   ar
    27    28    27    1
    28    29     6   ar
    29    30    29    1
    30    31    29   ar
    31    32    31    1
    32    33    31   ar
    33    34    33    1
    34    35    33   ar
    35    36    35    1
    36    37     6   ar
    37    38     7    2
    38    39    38    1
    39    40     7    1
    40    41    40   ar
    41    42    41    1
    42    43    41   ar
    43    44    43    1
    44    45    43   ar
    45    46    45    1
    46    47    45   ar
    47    48    47    1
    48    49     3    1
    49     8    17   ar
    50    15    17   ar
    51    18    20    1
    52    25    27   ar
    53    35    37   ar
    54    37    38    1
    55    40    49   ar
    56    47    49   ar
    57    50    51    1
    58    51    52   ar
    59    52    53    1
    60    54    52   ar
    61    55    54    1
    62    56    54   ar
    63    57    56    1
    64    58    56   ar
    65    59    58    1
    66    60    51   ar
    67    61    60    1
    68    62    50    1
    69    63    62   ar
    70    64    63    1
    71    65    63   ar
    72    66    65    1
    73    67    65   ar
    74    68    67    1
    75    69    67   ar
    76    70    69    1
    77    71    62   ar
    78    72    71    1
    79    73    50    1
    80    74    73   ar
    81    75    74    1
    82    76    74   ar
    83    77    76    1
    84    78    76   ar
    85    79    78    1
    86    80    78   ar
    87    81    80    1
    88    82    73   ar
    89    83    82    1
    90    84    50    1
    91    85    84   ar
    92    86    85    1
    93    87    85   ar
    94    88    87    1
    95    89    87   ar
    96    90    89    1
    97    91    89   ar
    98    92    91    1
    99    93    84   ar
   100    94    93    1
   101    58    60   ar
   102    69    71   ar
   103    80    82   ar
   104    91    93   ar
@<TRIPOS>SUBSTRUCTURE
     1 RES1        1 GROUP             0 ****  ****    0  
     2 RES2       50 GROUP             0 ****  ****    0  
@<TRIPOS>CRYSIN
    8.8640   14.6330   16.9430  112.8100   95.5600   99.6000     2     1
