@<TRIPOS>MOLECULE
HOVMAG
   104   111     3     0     0
SMALL
USER_CHARGES
****
Generated from the CSD

@<TRIPOS>ATOM
     1 Fe1      3.8711   4.6201   3.6857   Fe        1 RES1   1.0000
     2 S1       3.8282   2.8348   5.0123   S.3       1 RES1   0.0000
     3 S2       3.8210   6.2333   5.1971   S.3       1 RES1   0.0000
     4 N1       1.9532   4.4271   3.6181   N.2       1 RES1   0.0000
     5 N2       3.4008   6.0190   2.2564   N.ar      1 RES1   0.0000
     6 N3       5.7722   4.7608   3.7733   N.2       1 RES1   0.0000
     7 N4       4.3842   3.4442   2.1116   N.ar      1 RES1   0.0000
     8 C1       2.0346   2.8485   5.4987   C.3       1 RES1   0.0000
     9 C2       1.2885   3.3157   4.2783   C.3       1 RES1   0.0000
    10 H1       1.2046   2.5631   3.6422   H         1 RES1   0.0000
    11 H2       0.3764   3.5944   4.5420   H         1 RES1   0.0000
    12 C3       1.2919   5.2581   2.8873   C.2       1 RES1   0.0000
    13 H3       0.3442   5.2264   2.8373   H         1 RES1   0.0000
    14 C4       2.0473   6.2359   2.1529   C.ar      1 RES1   0.0000
    15 C5       1.5428   7.2171   1.3462   C.ar      1 RES1   0.0000
    16 H4       0.6032   7.3189   1.2635   H         1 RES1   0.0000
    17 C6       2.3886   8.0665   0.6481   C.ar      1 RES1   0.0000
    18 H5       2.0478   8.7757   0.1138   H         1 RES1   0.0000
    19 C7       3.7527   7.8362   0.7584   C.ar      1 RES1   0.0000
    20 H6       4.3636   8.3835   0.2792   H         1 RES1   0.0000
    21 C8       4.2346   6.8100   1.5686   C.ar      1 RES1   0.0000
    22 H7       5.1729   6.6698   1.6341   H         1 RES1   0.0000
    23 C9       1.6475   1.4351   5.8348   C.3       1 RES1   0.0000
    24 H8       2.1343   1.1447   6.6347   H         1 RES1   0.0000
    25 H9       1.8729   0.8477   5.0850   H         1 RES1   0.0000
    26 H10      0.6839   1.3917   6.0055   H         1 RES1   0.0000
    27 C10      1.8009   3.7679   6.6967   C.3       1 RES1   0.0000
    28 H11      2.3954   3.5076   7.4310   H         1 RES1   0.0000
    29 H12      0.8683   3.6912   6.9915   H         1 RES1   0.0000
    30 H13      1.9859   4.6957   6.4399   H         1 RES1   0.0000
    31 C11      5.6302   6.5997   5.4315   C.3       1 RES1   0.0000
    32 C12      6.4112   5.3665   4.9644   C.3       1 RES1   0.0000
    33 H14      7.3396   5.6285   4.7454   H         1 RES1   0.0000
    34 H15      6.4441   4.7007   5.6969   H         1 RES1   0.0000
    35 C13      6.4823   4.1551   2.9062   C.2       1 RES1   0.0000
    36 H16      7.4312   4.2085   2.8976   H         1 RES1   0.0000
    37 C14      5.7351   3.3774   1.9306   C.ar      1 RES1   0.0000
    38 C15      6.2859   2.6015   0.9308   C.ar      1 RES1   0.0000
    39 H17      7.2261   2.5915   0.7998   H         1 RES1   0.0000
    40 C16      5.4689   1.8456   0.1241   C.ar      1 RES1   0.0000
    41 H18      5.8352   1.2932  -0.5568   H         1 RES1   0.0000
    42 C17      4.1082   1.9057   0.3258   C.ar      1 RES1   0.0000
    43 H19      3.5225   1.3834  -0.2103   H         1 RES1   0.0000
    44 C18      3.5957   2.7233   1.3049   C.ar      1 RES1   0.0000
    45 H20      2.6531   2.7767   1.4135   H         1 RES1   0.0000
    46 C19      5.8762   6.8166   6.9294   C.3       1 RES1   0.0000
    47 H21      5.3396   7.5742   7.2431   H         1 RES1   0.0000
    48 H22      6.8254   7.0052   7.0811   H         1 RES1   0.0000
    49 H23      5.6211   6.0090   7.4241   H         1 RES1   0.0000
    50 C20      6.0076   7.8612   4.6627   C.3       1 RES1   0.0000
    51 H24      5.4596   8.6105   4.9764   H         1 RES1   0.0000
    52 H25      5.8519   7.7211   3.7060   H         1 RES1   0.0000
    53 H26      6.9545   8.0648   4.8127   H         1 RES1   0.0000
    54 B1       8.1494   3.6945  11.1991   B         2 RES2  -1.0000
    55 C21      7.0082   2.9603  10.2872   C.ar      2 RES2   0.0000
    56 C22      6.1968   1.9424  10.7940   C.ar      2 RES2   0.0000
    57 H27      6.3871   1.6020  11.6611   H         2 RES2   0.0000
    58 C23      5.1267   1.4017  10.0907   C.ar      2 RES2   0.0000
    59 H28      4.6105   0.7059  10.4751   H         2 RES2   0.0000
    60 C24      4.8157   1.8773   8.8324   C.ar      2 RES2   0.0000
    61 H29      4.0816   1.5152   8.3515   H         2 RES2   0.0000
    62 C25      5.5880   2.8902   8.2808   C.ar      2 RES2   0.0000
    63 H30      5.3912   3.2206   7.4121   H         2 RES2   0.0000
    64 C26      6.6497   3.4192   9.0048   C.ar      2 RES2   0.0000
    65 H31      7.1576   4.1217   8.6152   H         2 RES2   0.0000
    66 C27      7.2878   4.8409  12.0368   C.ar      2 RES2   0.0000
    67 C28      6.8184   4.6540  13.3331   C.ar      2 RES2   0.0000
    68 H32      7.0839   3.8747  13.8071   H         2 RES2   0.0000
    69 C29      5.9729   5.5701  13.9622   C.ar      2 RES2   0.0000
    70 H33      5.6642   5.4033  14.8448   H         2 RES2   0.0000
    71 C30      5.5837   6.7215  13.3003   C.ar      2 RES2   0.0000
    72 H34      5.0122   7.3490  13.7261   H         2 RES2   0.0000
    73 C31      6.0389   6.9501  12.0041   C.ar      2 RES2   0.0000
    74 H35      5.7913   7.7411  11.5404   H         2 RES2   0.0000
    75 C32      6.8658   6.0040  11.3922   C.ar      2 RES2   0.0000
    76 H36      7.1531   6.1592  10.5010   H         2 RES2   0.0000
    77 C33      9.3264   4.3970  10.2803   C.ar      2 RES2   0.0000
    78 C34      9.9572   5.5801  10.6148   C.ar      2 RES2   0.0000
    79 H37      9.6469   6.0590  11.3749   H         2 RES2   0.0000
    80 C35     11.0129   6.0991   9.8994   C.ar      2 RES2   0.0000
    81 H38     11.4086   6.9168  10.1735   H         2 RES2   0.0000
    82 C36     11.5047   5.4416   8.7824   C.ar      2 RES2   0.0000
    83 H39     12.2304   5.7987   8.2843   H         2 RES2   0.0000
    84 C37     10.8970   4.2402   8.4135   C.ar      2 RES2   0.0000
    85 H40     11.2039   3.7713   7.6465   H         2 RES2   0.0000
    86 C38      9.8508   3.7312   9.1599   C.ar      2 RES2   0.0000
    87 H41      9.4724   2.8985   8.9065   H         2 RES2   0.0000
    88 C39      8.9618   2.6616  12.1592   C.ar      2 RES2   0.0000
    89 C40      9.5974   3.0437  13.3434   C.ar      2 RES2   0.0000
    90 H42      9.4437   3.9248  13.6640   H         2 RES2   0.0000
    91 C41     10.4341   2.2210  14.0829   C.ar      2 RES2   0.0000
    92 H43     10.8268   2.5348  14.8913   H         2 RES2   0.0000
    93 C42     10.6904   0.9428  13.6313   C.ar      2 RES2   0.0000
    94 H44     11.2804   0.3755  14.1122   H         2 RES2   0.0000
    95 C43     10.0824   0.4923  12.4712   C.ar      2 RES2   0.0000
    96 H45     10.2388  -0.3921  12.1592   H         2 RES2   0.0000
    97 C44      9.2470   1.3366  11.7783   C.ar      2 RES2   0.0000
    98 H46      8.8352   1.0046  10.9888   H         2 RES2   0.0000
    99 O1       1.9877  -0.4639   0.8981   O.3       3 RES3   0.0000
   100 H47      1.6327  -0.9795   0.3379   H         3 RES3   0.0000
   101 C45      1.6460  -0.8811   2.2047   C.3       3 RES3   0.0000
   102 H48      2.0280  -1.7688   2.3753   H         3 RES3   0.0000
   103 H49      0.6709  -0.9245   2.2908   H         3 RES3   0.0000
   104 H50      2.0030  -0.2420   2.8562   H         3 RES3   0.0000
@<TRIPOS>BOND
     1     1     2    1
     2     2     8    1
     3     3     1    1
     4     4     1    1
     5     5     1    1
     6     6     1    1
     7     7     1    1
     8     8     9    1
     9     9     4    1
    10    10     9    1
    11    11     9    1
    12    12     4    2
    13    13    12    1
    14    14     5   ar
    15    15    14   ar
    16    16    15    1
    17    17    15   ar
    18    18    17    1
    19    19    17   ar
    20    20    19    1
    21    21     5   ar
    22    22    21    1
    23    23     8    1
    24    24    23    1
    25    25    23    1
    26    26    23    1
    27    27     8    1
    28    28    27    1
    29    29    27    1
    30    30    27    1
    31    31     3    1
    32    32     6    1
    33    33    32    1
    34    34    32    1
    35    35     6    2
    36    36    35    1
    37    37     7   ar
    38    38    37   ar
    39    39    38    1
    40    40    38   ar
    41    41    40    1
    42    42    40   ar
    43    43    42    1
    44    44     7   ar
    45    45    44    1
    46    46    31    1
    47    47    46    1
    48    48    46    1
    49    49    46    1
    50    50    31    1
    51    51    50    1
    52    52    50    1
    53    53    50    1
    54    12    14    1
    55    19    21   ar
    56    31    32    1
    57    35    37    1
    58    42    44   ar
    59    54    55    1
    60    55    56   ar
    61    56    57    1
    62    58    56   ar
    63    59    58    1
    64    60    58   ar
    65    61    60    1
    66    62    60   ar
    67    63    62    1
    68    64    55   ar
    69    65    64    1
    70    66    54    1
    71    67    66   ar
    72    68    67    1
    73    69    67   ar
    74    70    69    1
    75    71    69   ar
    76    72    71    1
    77    73    71   ar
    78    74    73    1
    79    75    66   ar
    80    76    75    1
    81    77    54    1
    82    78    77   ar
    83    79    78    1
    84    80    78   ar
    85    81    80    1
    86    82    80   ar
    87    83    82    1
    88    84    82   ar
    89    85    84    1
    90    86    77   ar
    91    87    86    1
    92    88    54    1
    93    89    88   ar
    94    90    89    1
    95    91    89   ar
    96    92    91    1
    97    93    91   ar
    98    94    93    1
    99    95    93   ar
   100    96    95    1
   101    97    88   ar
   102    98    97    1
   103    62    64   ar
   104    73    75   ar
   105    84    86   ar
   106    95    97   ar
   107    99   100    1
   108   101    99    1
   109   102   101    1
   110   103   101    1
   111   104   101    1
@<TRIPOS>SUBSTRUCTURE
     1 RES1        1 GROUP             0 ****  ****    0  
     2 RES2       54 GROUP             0 ****  ****    0  
     3 RES3       99 GROUP             0 ****  ****    0  
@<TRIPOS>CRYSIN
   14.2690   16.6870   18.1890   90.0000  108.6160   90.0000    14     1
