@<TRIPOS>MOLECULE
HOZTOH01
    80    83     4     0     0
SMALL
USER_CHARGES
****
Generated from the CSD

@<TRIPOS>ATOM
     1 Fe1      3.2357  10.7887   3.1950   Fe        1 RES1   1.0000
     2 O1       1.9918   7.7797   6.1204   O.3       1 RES1   0.0000
     3 O2       2.3325   9.4958   4.2340   O.3       1 RES1   0.0000
     4 O3       5.0109  10.0812   3.0653   O.3       1 RES1   0.0000
     5 O4       6.7745   8.2058   2.7015   O.3       1 RES1   0.0000
     6 N1       1.4109  11.8087   2.9631   N.2       1 RES1   0.0000
     7 N2       3.8157  12.4271   2.0602   N.2       1 RES1   0.0000
     8 N3       2.8311   9.6651   1.4094   N.2       1 RES1   0.0000
     9 N4       2.9192   8.8831  -0.6414   N.pl3     1 RES1   0.0000
    10 N5       3.8157  11.8030   5.0041   N.2       1 RES1   0.0000
    11 N6       4.9353  13.0714   6.4235   N.pl3     1 RES1   0.0000
    12 C1       1.8638   6.8054   7.1528   C.3       1 RES1   0.0000
    13 C2       0.9396   8.6449   5.9139   C.ar      1 RES1   0.0000
    14 C3      -0.2403   8.6320   6.6098   C.ar      1 RES1   0.0000
    15 C4      -1.2550   9.5403   6.2937   C.ar      1 RES1   0.0000
    16 C5      -1.0722  10.4342   5.2766   C.ar      1 RES1   0.0000
    17 C6       0.1519  10.5016   4.5731   C.ar      1 RES1   0.0000
    18 C7       1.1713   9.5603   4.8790   C.ar      1 RES1   0.0000
    19 C8       0.2941  11.5361   3.5675   C.2       1 RES1   0.0000
    20 C9       1.4586  12.8791   1.9424   C.3       1 RES1   0.0000
    21 C10      2.8324  13.5219   2.0240   C.3       1 RES1   0.0000
    22 C11      4.8724  12.4429   1.3153   C.2       1 RES1   0.0000
    23 C12      5.8585  11.3941   1.2032   C.ar      1 RES1   0.0000
    24 C13      6.8538  11.5175   0.2192   C.ar      1 RES1   0.0000
    25 C14      7.8138  10.5561   0.0484   C.ar      1 RES1   0.0000
    26 C15      7.8253   9.4456   0.8667   C.ar      1 RES1   0.0000
    27 C16      6.8814   9.2834   1.8532   C.ar      1 RES1   0.0000
    28 C17      5.8646  10.2562   2.0750   C.ar      1 RES1   0.0000
    29 C18      7.8681   7.2804   2.7173   C.3       1 RES1   0.0000
    30 C19      2.7486   8.2905   1.4377   C.2       1 RES1   0.0000
    31 C20      2.7656   7.8012   0.1759   C.2       1 RES1   0.0000
    32 C21      2.9500   9.9922   0.1275   C.2       1 RES1   0.0000
    33 C22      4.5631  12.8877   5.1441   C.2       1 RES1   0.0000
    34 C23      3.7336  11.2506   6.2708   C.2       1 RES1   0.0000
    35 C24      4.4166  12.0268   7.1502   C.2       1 RES1   0.0000
    36 H1       3.0029   8.8731  -1.5575   H         1 RES1   0.0000
    37 H2       5.4417  13.7759   6.7577   H         1 RES1   0.0000
    38 H3       1.1050   6.2487   6.9386   H         1 RES1   0.0000
    39 H4       1.7127   7.2474   8.0016   H         1 RES1   0.0000
    40 H5       2.6500   6.2487   7.2114   H         1 RES1   0.0000
    41 H6      -0.3966   8.0150   7.2751   H         1 RES1   0.0000
    42 H7      -2.0563   9.5331   6.7373   H         1 RES1   0.0000
    43 H8      -1.7173  11.0483   5.0549   H         1 RES1   0.0000
    44 H9      -0.4332  12.0354   3.3266   H         1 RES1   0.0000
    45 H10      0.7665  13.5248   2.1438   H         1 RES1   0.0000
    46 H11      1.2859  12.4745   1.0808   H         1 RES1   0.0000
    47 H12      2.9568  14.0600   2.8218   H         1 RES1   0.0000
    48 H13      3.0498  14.0586   1.2440   H         1 RES1   0.0000
    49 H14      5.0235  13.1977   0.8106   H         1 RES1   0.0000
    50 H15      6.8752  12.2736  -0.3110   H         1 RES1   0.0000
    51 H16      8.4686  10.6637  -0.5863   H         1 RES1   0.0000
    52 H17      8.4565   8.7898   0.7469   H         1 RES1   0.0000
    53 H18      7.7017   6.6175   3.4081   H         1 RES1   0.0000
    54 H19      8.6876   7.7496   2.9085   H         1 RES1   0.0000
    55 H20      7.9414   6.8341   1.8608   H         1 RES1   0.0000
    56 H21      2.6545   7.7797   2.2024   H         1 RES1   0.0000
    57 H22      2.7139   6.9174  -0.0918   H         1 RES1   0.0000
    58 H23      3.0674  10.8560  -0.1759   H         1 RES1   0.0000
    59 H24      4.8054  13.4445   4.4507   H         1 RES1   0.0000
    60 H25      3.2753  10.4801   6.4798   H         1 RES1   0.0000
    61 H26      4.4988  11.8891   8.0551   H         1 RES1   0.0000
    62 P1       6.5535   1.4598   2.7691   P.3       2 RES2   0.0000
    63 F1       6.7047  -0.1363   2.9269   F         2 RES2   0.0000
    64 F2       6.3970   3.0390   2.5963   F         2 RES2   0.0000
    65 F3       6.0744   1.2555   1.2626   F         2 RES2   0.0000
    66 F4       8.0590   1.5482   2.3018   F         2 RES2  -1.0000
    67 F5       6.9864   1.6529   4.2746   F         2 RES2   0.0000
    68 F6       5.0333   1.3459   3.2343   F         2 RES2   0.0000
    69 O5       4.6041   7.7553   4.7915   O.3       3 RES3   0.0000
    70 H27      5.1133   8.3938   4.3080   H         3 RES3   0.0000
    71 H28      3.7557   8.1642   4.8943   H         3 RES3   0.0000
    72 O6       4.4509   5.5629   3.1402   O.3       4 RES4   0.0000
    73 C25      3.5197   4.5929   3.5789   C.3       4 RES4   0.0000
    74 C26      2.1061   4.9918   3.5279   C.3       4 RES4   0.0000
    75 H29      4.3176   6.2487   3.5560   H         4 RES4   0.0000
    76 H30      3.5095   4.4193   4.5221   H         4 RES4   0.0000
    77 H31      3.6312   3.7449   3.1354   H         4 RES4   0.0000
    78 H32      1.8202   5.7738   3.9893   H         4 RES4   0.0000
    79 H33      1.9414   5.0980   2.6001   H         4 RES4   0.0000
    80 H34      1.6325   4.2342   3.8517   H         4 RES4   0.0000
@<TRIPOS>BOND
     1     1     3    1
     2     2    12    1
     3     3    18    1
     4     4     1    1
     5     5    27    1
     6     6     1    1
     7     7     1    1
     8     8     1    1
     9     9    31    1
    10    10     1    1
    11    11    33    1
    12    12    38    1
    13    13     2    1
    14    14    13   ar
    15    15    14   ar
    16    16    15   ar
    17    17    16   ar
    18    18    13   ar
    19    19     6    2
    20    20     6    1
    21    21     7    1
    22    22     7    2
    23    23    22    1
    24    24    23   ar
    25    25    24   ar
    26    26    25   ar
    27    27    26   ar
    28    28     4    1
    29    29     5    1
    30    30     8    1
    31    31    30    2
    32    32     8    2
    33    33    10    2
    34    34    10    1
    35    35    11    1
    36    36     9    1
    37    37    11    1
    38    39    12    1
    39    40    12    1
    40    41    14    1
    41    42    15    1
    42    43    16    1
    43    44    19    1
    44    45    20    1
    45    46    20    1
    46    47    21    1
    47    48    21    1
    48    49    22    1
    49    50    24    1
    50    51    25    1
    51    52    26    1
    52    53    29    1
    53    54    29    1
    54    55    29    1
    55    56    30    1
    56    57    31    1
    57    58    32    1
    58    59    33    1
    59    60    34    1
    60    61    35    1
    61     9    32    1
    62    17    18   ar
    63    17    19    1
    64    20    21    1
    65    23    28   ar
    66    27    28   ar
    67    34    35    2
    68    62    63    1
    69    64    62    1
    70    65    62    1
    71    66    62    1
    72    67    62    1
    73    68    62    1
    74    69    70    1
    75    71    69    1
    76    72    73    1
    77    73    74    1
    78    74    78    1
    79    75    72    1
    80    76    73    1
    81    77    73    1
    82    79    74    1
    83    80    74    1
@<TRIPOS>SUBSTRUCTURE
     1 RES1        1 GROUP             0 ****  ****    0  
     2 RES2       62 GROUP             0 ****  ****    0  
     3 RES3       69 GROUP             0 ****  ****    0  
     4 RES4       72 GROUP             0 ****  ****    0  
@<TRIPOS>CRYSIN
    8.4745   14.3484   25.7155   90.0000   97.5770   90.0000   231     1
