@<TRIPOS>MOLECULE
HOZTOH
    80    83     4     0     0
SMALL
USER_CHARGES
****
Generated from the CSD

@<TRIPOS>ATOM
     1 Fe1      3.3953  10.7807   3.2143   Fe        1 RES1   1.0000
     2 O1       2.0336   7.7519   6.0795   O.3       1 RES1   0.0000
     3 O2       2.4559   9.5072   4.2466   O.3       1 RES1   0.0000
     4 O3       5.1529  10.0526   3.0709   O.3       1 RES1   0.0000
     5 O4       6.9155   8.1595   2.7217   O.3       1 RES1   0.0000
     6 N1       1.5920  11.8395   2.9895   N.2       1 RES1   0.0000
     7 N2       4.0170  12.4251   2.0780   N.2       1 RES1   0.0000
     8 N3       2.9690   9.6838   1.4137   N.2       1 RES1   0.0000
     9 N4       3.0603   8.9001  -0.6360   N.pl3     1 RES1   0.0000
    10 N5       3.9818  11.7950   5.0315   N.2       1 RES1   0.0000
    11 N6       5.1102  13.0409   6.4503   N.pl3     1 RES1   0.0000
    12 C1       1.8599   6.7616   7.0991   C.3       1 RES1   0.0000
    13 C2       1.0095   8.6360   5.8657   C.ar      1 RES1   0.0000
    14 C3      -0.1954   8.6418   6.5301   C.ar      1 RES1   0.0000
    15 C4      -1.1694   9.5675   6.2005   C.ar      1 RES1   0.0000
    16 C5      -0.9355  10.5004   5.2375   C.ar      1 RES1   0.0000
    17 C6       0.2863  10.5334   4.5422   C.ar      1 RES1   0.0000
    18 C7       1.2798   9.5733   4.8538   C.ar      1 RES1   0.0000
    19 C8       0.4823  11.5654   3.5715   C.2       1 RES1   0.0000
    20 C9       1.6479  12.9059   1.9724   C.3       1 RES1   0.0000
    21 C10      3.0278  13.5231   2.0316   C.3       1 RES1   0.0000
    22 C11      5.0872  12.4294   1.3725   C.2       1 RES1   0.0000
    23 C12      6.0606  11.3975   1.2926   C.ar      1 RES1   0.0000
    24 C13      7.0965  11.5209   0.3270   C.ar      1 RES1   0.0000
    25 C14      8.0331  10.5622   0.1622   C.ar      1 RES1   0.0000
    26 C15      8.0280   9.4125   0.9502   C.ar      1 RES1   0.0000
    27 C16      7.0497   9.2561   1.9106   C.ar      1 RES1   0.0000
    28 C17      6.0395  10.2378   2.1243   C.ar      1 RES1   0.0000
    29 C18      8.0021   7.2280   2.7707   C.3       1 RES1   0.0000
    30 C19      2.8111   8.3160   1.4188   C.2       1 RES1   0.0000
    31 C20      2.8615   7.8351   0.1596   C.2       1 RES1   0.0000
    32 C21      3.1168   9.9952   0.1287   C.2       1 RES1   0.0000
    33 C22      4.7506  12.8643   5.1885   C.2       1 RES1   0.0000
    34 C23      3.9023  11.2597   6.2958   C.2       1 RES1   0.0000
    35 C24      4.5713  11.9902   7.1687   C.2       1 RES1   0.0000
    36 H1       3.1282   8.8829  -1.5707   H         1 RES1   0.0000
    37 H2       5.6322  13.7427   6.7876   H         1 RES1   0.0000
    38 H3       2.6839   6.2075   7.1403   H         1 RES1   0.0000
    39 H4       1.0678   6.1932   6.9086   H         1 RES1   0.0000
    40 H5       1.7360   7.2165   7.9643   H         1 RES1   0.0000
    41 H6      -0.3146   8.0246   7.2227   H         1 RES1   0.0000
    42 H7      -1.9805   9.5632   6.6820   H         1 RES1   0.0000
    43 H8      -1.6348  11.0846   5.0031   H         1 RES1   0.0000
    44 H9      -0.2895  12.0520   3.3294   H         1 RES1   0.0000
    45 H10      0.9190  13.5461   2.1681   H         1 RES1   0.0000
    46 H11      1.4848  12.5041   1.0815   H         1 RES1   0.0000
    47 H12      3.2109  14.0886   1.2437   H         1 RES1   0.0000
    48 H13      3.1338  14.0542   2.8556   H         1 RES1   0.0000
    49 H14      5.2277  13.1916   0.8523   H         1 RES1   0.0000
    50 H15      7.0911  12.2759  -0.2214   H         1 RES1   0.0000
    51 H16      8.6841  10.6626  -0.5073   H         1 RES1   0.0000
    52 H17      8.6911   8.7580   0.8369   H         1 RES1   0.0000
    53 H18      8.8438   7.7103   2.9921   H         1 RES1   0.0000
    54 H19      8.0917   6.8061   1.8823   H         1 RES1   0.0000
    55 H20      7.8393   6.5377   3.4530   H         1 RES1   0.0000
    56 H21      2.7373   7.8036   2.1964   H         1 RES1   0.0000
    57 H22      2.8011   7.0127  -0.0850   H         1 RES1   0.0000
    58 H23      3.2024  10.8664  -0.1905   H         1 RES1   0.0000
    59 H24      4.9820  13.4327   4.4830   H         1 RES1   0.0000
    60 H25      3.4323  10.4803   6.5069   H         1 RES1   0.0000
    61 H26      4.6830  11.8410   8.0905   H         1 RES1   0.0000
    62 P1       6.8387   1.4745   2.8095   P.3       2 RES2   0.0000
    63 F1       6.9577  -0.1048   3.0153   F         2 RES2   0.0000
    64 F2       6.7065   3.0327   2.5853   F         2 RES2   0.0000
    65 F3       6.3708   1.2573   1.4008   F         2 RES2   0.0000
    66 F4       8.2512   1.5243   2.4488   F         2 RES2  -1.0000
    67 F5       7.1357   1.6879   4.2512   F         2 RES2   0.0000
    68 F6       5.3951   1.3664   3.2316   F         2 RES2   0.0000
    69 O5       4.7225   7.7189   4.8383   O.3       3 RES3   0.0000
    70 H27      5.1970   8.5399   4.9182   H         3 RES3   0.0000
    71 H28      4.0566   7.8796   4.1714   H         3 RES3   0.0000
    72 O6       4.4933   5.5071   3.2032   O.3       4 RES4   0.0000
    73 C25      3.5356   4.5857   3.5818   C.3       4 RES4   0.0000
    74 C26      2.3328   4.7063   3.3938   C.3       4 RES4   0.0000
    75 H29      4.6414   6.3008   3.7852   H         4 RES4   0.0000
    76 H30      3.6635   3.7934   3.0307   H         4 RES4   0.0000
    77 H31      3.7660   4.3804   4.5139   H         4 RES4   0.0000
    78 H32      2.2305   5.6062   3.7157   H         4 RES4   0.0000
    79 H33      2.0079   4.6474   2.4771   H         4 RES4   0.0000
    80 H34      1.8085   4.1120   3.9500   H         4 RES4   0.0000
@<TRIPOS>BOND
     1     1     3    1
     2     2    12    1
     3     3    18    1
     4     4     1    1
     5     5    27    1
     6     6     1    1
     7     7     1    1
     8     8     1    1
     9     9    31    1
    10    10     1    1
    11    11    33    1
    12    12    38    1
    13    13     2    1
    14    14    13   ar
    15    15    14   ar
    16    16    15   ar
    17    17    16   ar
    18    18    13   ar
    19    19     6    2
    20    20     6    1
    21    21     7    1
    22    22     7    2
    23    23    22    1
    24    24    23   ar
    25    25    24   ar
    26    26    25   ar
    27    27    26   ar
    28    28     4    1
    29    29     5    1
    30    30     8    1
    31    31    30    2
    32    32     8    2
    33    33    10    2
    34    34    10    1
    35    35    11    1
    36    36     9    1
    37    37    11    1
    38    39    12    1
    39    40    12    1
    40    41    14    1
    41    42    15    1
    42    43    16    1
    43    44    19    1
    44    45    20    1
    45    46    20    1
    46    47    21    1
    47    48    21    1
    48    49    22    1
    49    50    24    1
    50    51    25    1
    51    52    26    1
    52    53    29    1
    53    54    29    1
    54    55    29    1
    55    56    30    1
    56    57    31    1
    57    58    32    1
    58    59    33    1
    59    60    34    1
    60    61    35    1
    61     9    32    1
    62    17    18   ar
    63    17    19    1
    64    20    21    1
    65    23    28   ar
    66    27    28   ar
    67    34    35    2
    68    62    63    1
    69    64    62    1
    70    65    62    1
    71    66    62    1
    72    67    62    1
    73    68    62    1
    74    69    70    1
    75    71    69    1
    76    72    73    1
    77    73    74    1
    78    74    78    1
    79    75    72    1
    80    76    73    1
    81    77    73    1
    82    79    74    1
    83    80    74    1
@<TRIPOS>SUBSTRUCTURE
     1 RES1        1 GROUP             0 ****  ****    0  
     2 RES2       62 GROUP             0 ****  ****    0  
     3 RES3       69 GROUP             0 ****  ****    0  
     4 RES4       72 GROUP             0 ****  ****    0  
@<TRIPOS>CRYSIN
    8.6386   14.3527   25.9569   90.0000   97.2470   90.0000   231     1
