@<TRIPOS>MOLECULE
HUBLUL
    79    80     5     0     0
SMALL
NO_CHARGES
****
Generated from the CSD

@<TRIPOS>ATOM
     1 Gd1      1.3568   2.7525   3.8179   Gd        1 RES1   0.0000
     2 Fe1      3.4949  -2.3173   4.0377   Fe        1 RES1   0.0000
     3 O1       2.2910   4.9358   3.3783   O.3       1 RES1   0.0000
     4 O2       2.9298   3.1773   5.4770   O.3       1 RES1   0.0000
     5 O3      -0.7634   1.6024   3.5066   O.3       1 RES1   0.0000
     6 O4       0.5317   3.2030   1.6580   O.3       1 RES1   0.0000
     7 O5       3.2346   2.6028   2.3321   O.3       1 RES1   0.0000
     8 O6       0.6705   1.7762   5.9003   O.3       1 RES1   0.0000
     9 O7      -0.1631   4.2653   4.8582   O.3       1 RES1   0.0000
    10 N1       2.5511   5.8840   4.2651   N.ar      1 RES1   0.0000
    11 N2       4.1938   3.4276   5.1589   N.ar      1 RES1   0.0000
    12 N3      -1.0442   0.8854   2.4249   N.ar      1 RES1   0.0000
    13 N4      -0.6742   3.7502   1.5506   N.ar      1 RES1   0.0000
    14 N5       2.1397   0.4109   3.6166   N.1       1 RES1   0.0000
    15 N6       5.0416  -2.1650   1.3787   N.1       1 RES1   0.0000
    16 N7       5.8991  -0.8871   5.3445   N.1       1 RES1   0.0000
    17 N8       4.7858  -5.0498   4.6184   N.1       1 RES1   0.0000
    18 N9       1.9849  -2.4213   6.7108   N.1       1 RES1   0.0000
    19 N10      1.1907  -3.7078   2.5192   N.1       1 RES1   0.0000
    20 C1       1.7317   6.9648   4.3094   C.ar      1 RES1   0.0000
    21 C2       1.9977   8.0004   5.1686   C.ar      1 RES1   0.0000
    22 C3       3.0889   7.9544   5.9709   C.ar      1 RES1   0.0000
    23 C4       3.9205   6.8559   5.9251   C.ar      1 RES1   0.0000
    24 C5       3.6441   5.8115   5.0591   C.ar      1 RES1   0.0000
    25 C6       4.5905   4.6984   4.9122   C.ar      1 RES1   0.0000
    26 C7       5.9122   4.9397   4.6143   C.ar      1 RES1   0.0000
    27 C8       6.8068   3.8857   4.5353   C.ar      1 RES1   0.0000
    28 C9       6.3675   2.6175   4.7529   C.ar      1 RES1   0.0000
    29 C10      5.0572   2.3965   5.0854   C.ar      1 RES1   0.0000
    30 C11     -0.8637  -0.4562   2.4471   C.ar      1 RES1   0.0000
    31 C12     -1.2130  -1.2151   1.3552   C.ar      1 RES1   0.0000
    32 C13     -1.7361  -0.6137   0.2411   C.ar      1 RES1   0.0000
    33 C14     -1.9038   0.7319   0.2245   C.ar      1 RES1   0.0000
    34 C15     -1.5455   1.4928   1.3275   C.ar      1 RES1   0.0000
    35 C16     -1.7627   2.9476   1.3871   C.ar      1 RES1   0.0000
    36 C17     -3.0083   3.5198   1.2679   C.ar      1 RES1   0.0000
    37 C18     -3.1490   4.8901   1.3469   C.ar      1 RES1   0.0000
    38 C19     -2.0246   5.6719   1.4993   C.ar      1 RES1   0.0000
    39 C20     -0.7952   5.0926   1.5866   C.ar      1 RES1   0.0000
    40 C21      2.6538  -0.6011   3.7372   C.1       1 RES1   0.0000
    41 C22      4.4681  -2.2336   2.3667   C.1       1 RES1   0.0000
    42 C23      4.9956  -1.4138   4.8900   C.1       1 RES1   0.0000
    43 C24      4.3040  -4.0291   4.4092   C.1       1 RES1   0.0000
    44 C25      2.5413  -2.3952   5.7201   C.1       1 RES1   0.0000
    45 C26      2.0316  -3.1977   3.0984   C.1       1 RES1   0.0000
    46 H1       1.0168   6.9130   3.7413   H         1 RES1   0.0000
    47 H2       1.4150   8.7111   5.1408   H         1 RES1   0.0000
    48 H3       3.4416   8.5256   6.5958   H         1 RES1   0.0000
    49 H4       4.6795   6.8695   6.4711   H         1 RES1   0.0000
    50 H5       6.1598   5.8503   4.4757   H         1 RES1   0.0000
    51 H6       7.6876   4.1109   4.3372   H         1 RES1   0.0000
    52 H7       6.9215   1.8749   4.7944   H         1 RES1   0.0000
    53 H8       4.6582   1.6114   5.3625   H         1 RES1   0.0000
    54 H9      -0.4896  -0.7815   3.2425   H         1 RES1   0.0000
    55 H10     -1.0868  -2.1422   1.3995   H         1 RES1   0.0000
    56 H11     -1.8626  -1.0892  -0.5681   H         1 RES1   0.0000
    57 H12     -2.2014   1.1595  -0.5404   H         1 RES1   0.0000
    58 H13     -3.7655   2.9962   1.2194   H         1 RES1   0.0000
    59 H14     -4.0269   5.2286   1.3441   H         1 RES1   0.0000
    60 H15     -2.0474   6.5980   1.5520   H         1 RES1   0.0000
    61 H16      0.0168   5.5250   1.6905   H         1 RES1   0.0000
    62 H17      3.8042   1.8861   2.1062   H         1 RES1   0.0000
    63 H18      3.3445   3.2773   1.6767   H         1 RES1   0.0000
    64 H19      1.2331   1.5751   6.6097   H         1 RES1   0.0000
    65 H20     -0.2077   1.5614   6.1108   H         1 RES1   0.0000
    66 H21     -0.6534   3.8981   5.5843   H         1 RES1   0.0000
    67 H22     -0.3775   5.1903   4.8360   H         1 RES1   0.0000
    68 O8       3.4595   4.0271   0.0430   O.3       2 RES2   0.0000
    69 H23      2.6322   4.1917  -0.4157   H         2 RES2   0.0000
    70 H24      3.8523   3.2988  -0.4018   H         2 RES2   0.0000
    71 O9       5.1670   0.9046   1.5464   O.3       3 RES3   0.0000
    72 H25      5.5575   0.6877   2.4388   H         3 RES3   0.0000
    73 H26      4.9492   0.0418   1.1917   H         3 RES3   0.0000
    74 O10      2.3212   0.8721   7.7348   O.3       4 RES4   0.0000
    75 H27      2.1080   1.5676   8.2447   H         4 RES4   0.0000
    76 H28      3.2070   0.8735   7.4549   H         4 RES4   0.0000
    77 O11     -1.1076  -4.8483   1.2166   O.3       5 RES5   0.0000
    78 H29     -1.0788  -5.7399   1.5797   H         5 RES5   0.0000
    79 H30     -0.2938  -4.4501   1.5242   H         5 RES5   0.0000
@<TRIPOS>BOND
     1     1     3    1
     2     2    40    1
     3     3    10    1
     4     4     1    1
     5     5     1    1
     6     6     1    1
     7     7     1    1
     8     8     1    1
     9     9     1    1
    10    10    20   ar
    11    11     4    1
    12    12     5    1
    13    13     6    1
    14    14     1    1
    15    15    41    3
    16    16    42    3
    17    17    43    3
    18    18    44    3
    19    19    45    3
    20    20    21   ar
    21    21    22   ar
    22    22    23   ar
    23    23    24   ar
    24    24    10   ar
    25    25    11   ar
    26    26    25   ar
    27    27    26   ar
    28    28    27   ar
    29    29    11   ar
    30    30    12   ar
    31    31    30   ar
    32    32    31   ar
    33    33    32   ar
    34    34    12   ar
    35    35    13   ar
    36    36    35   ar
    37    37    36   ar
    38    38    37   ar
    39    39    13   ar
    40    40    14    3
    41    41     2    1
    42    42     2    1
    43    43     2    1
    44    44     2    1
    45    45     2    1
    46    46    20    1
    47    47    21    1
    48    48    22    1
    49    49    23    1
    50    50    26    1
    51    51    27    1
    52    52    28    1
    53    53    29    1
    54    54    30    1
    55    55    31    1
    56    56    32    1
    57    57    33    1
    58    58    36    1
    59    59    37    1
    60    60    38    1
    61    61    39    1
    62    62     7    1
    63    63     7    1
    64    64     8    1
    65    65     8    1
    66    66     9    1
    67    67     9    1
    68    24    25    1
    69    28    29   ar
    70    33    34   ar
    71    34    35    1
    72    38    39   ar
    73    68    69    1
    74    70    68    1
    75    71    72    1
    76    73    71    1
    77    74    75    1
    78    76    74    1
    79    77    78    1
    80    79    77    1
@<TRIPOS>SUBSTRUCTURE
     1 RES1        1 GROUP             0 ****  ****    0  
     2 RES2       68 GROUP             0 ****  ****    0  
     3 RES3       71 GROUP             0 ****  ****    0  
     4 RES4       74 GROUP             0 ****  ****    0  
     5 RES5       77 GROUP             0 ****  ****    0  
@<TRIPOS>CRYSIN
   10.3050   12.4750   13.9030   85.3400   88.0800   70.5400     2     1
