@<TRIPOS>MOLECULE
HUCJIB
    79    85     3     0     0
SMALL
USER_CHARGES
****
Generated from the CSD

@<TRIPOS>ATOM
     1 Fe1      6.5226  17.2670   8.8079   Fe        1 RES1   2.0000
     2 N1       4.9293  17.4177   9.9305   N.ar      1 RES1   0.0000
     3 C1       3.9639  18.3585   9.8560   C.ar      1 RES1   0.0000
     4 H1       4.0321  19.0169   9.2034   H         1 RES1   0.0000
     5 N2       6.6945  15.5698   9.7552   N.ar      1 RES1   0.0000
     6 C2       2.8814  18.3813  10.7080   C.ar      1 RES1   0.0000
     7 H2       2.2239  19.0329  10.6144   H         1 RES1   0.0000
     8 N3       7.5709  18.2552  10.1605   N.ar      1 RES1   0.0000
     9 C3       2.7833  17.4308  11.7016   C.ar      1 RES1   0.0000
    10 H3       2.0755  17.4480  12.3047   H         1 RES1   0.0000
    11 C4       3.7598  16.4483  11.7858   C.ar      1 RES1   0.0000
    12 H4       3.7146  15.7961  12.4477   H         1 RES1   0.0000
    13 N4       6.3655  19.0717   8.0433   N.ar      1 RES1   0.0000
    14 C5       5.8534  14.2639  11.5859   C.ar      1 RES1   0.0000
    15 H5       5.2612  14.1709  12.2964   H         1 RES1   0.0000
    16 C6       5.8077  15.3864  10.7715   C.ar      1 RES1   0.0000
    17 N5       5.5728  16.3283   7.3635   N.ar      1 RES1   0.0000
    18 C7       4.7966  16.4515  10.8763   C.ar      1 RES1   0.0000
    19 N6       8.0460  16.9955   7.5928   N.ar      1 RES1   0.0000
    20 C8       7.6627  13.4505  10.2643   C.ar      1 RES1   0.0000
    21 H6       8.2867  12.7921  10.0602   H         1 RES1   0.0000
    22 C9       6.7919  13.2856  11.3241   C.ar      1 RES1   0.0000
    23 H7       6.8364  12.5244  11.8549   H         1 RES1   0.0000
    24 C10      7.5951  14.6073   9.5111   C.ar      1 RES1   0.0000
    25 H8       8.1953  14.7225   8.8101   H         1 RES1   0.0000
    26 C11      8.1327  17.7607  11.2804   C.ar      1 RES1   0.0000
    27 H9       8.0222  16.8563  11.4712   H         1 RES1   0.0000
    28 C12      8.8645  18.5374  12.1560   C.ar      1 RES1   0.0000
    29 H10      9.2081  18.1655  12.9359   H         1 RES1   0.0000
    30 C13      9.0827  19.8656  11.8655   C.ar      1 RES1   0.0000
    31 H11      9.6030  20.3957  12.4257   H         1 RES1   0.0000
    32 C14      8.5109  20.3962  10.7191   C.ar      1 RES1   0.0000
    33 H12      8.6391  21.2899  10.5017   H         1 RES1   0.0000
    34 C15      7.7452  19.5780   9.8998   C.ar      1 RES1   0.0000
    35 C16      7.0500  20.0444   8.6965   C.ar      1 RES1   0.0000
    36 C17      7.0512  21.3606   8.2672   C.ar      1 RES1   0.0000
    37 H13      7.5280  22.0074   8.7358   H         1 RES1   0.0000
    38 C18      6.3383  21.7046   7.1354   C.ar      1 RES1   0.0000
    39 H14      6.3182  22.5857   6.8352   H         1 RES1   0.0000
    40 C19      5.6555  20.7113   6.4597   C.ar      1 RES1   0.0000
    41 H15      5.1778  20.9124   5.6882   H         1 RES1   0.0000
    42 C20      5.6863  19.4169   6.9379   C.ar      1 RES1   0.0000
    43 H16      5.2176  18.7598   6.4762   H         1 RES1   0.0000
    44 C21      9.3335  17.3403   7.8089   C.ar      1 RES1   0.0000
    45 H17      9.5694  17.6755   8.6437   H         1 RES1   0.0000
    46 C22     10.3129  17.2164   6.8460   C.ar      1 RES1   0.0000
    47 H18     11.1912  17.4587   7.0318   H         1 RES1   0.0000
    48 C23      9.9708  16.7280   5.6040   C.ar      1 RES1   0.0000
    49 H19     10.6160  16.6341   4.9400   H         1 RES1   0.0000
    50 C24      8.6574  16.3792   5.3592   C.ar      1 RES1   0.0000
    51 H20      8.4064  16.0584   4.5233   H         1 RES1   0.0000
    52 C25      7.7171  16.5082   6.3637   C.ar      1 RES1   0.0000
    53 C26      6.3130  16.0908   6.2520   C.ar      1 RES1   0.0000
    54 C27      5.7878  15.4346   5.1482   C.ar      1 RES1   0.0000
    55 H21      6.3002  15.3222   4.3803   H         1 RES1   0.0000
    56 C28      4.4916  14.9492   5.2048   C.ar      1 RES1   0.0000
    57 H22      4.1240  14.5029   4.4765   H         1 RES1   0.0000
    58 C29      3.7545  15.1348   6.3531   C.ar      1 RES1   0.0000
    59 H23      2.8927  14.7921   6.4198   H         1 RES1   0.0000
    60 C30      4.3159  15.8389   7.4085   C.ar      1 RES1   0.0000
    61 H24      3.8084  15.9781   8.1747   H         1 RES1   0.0000
    62 H25      3.1951  12.8055  12.5563   H         2 RES2   0.0000
    63 O1       2.8644  13.5520  12.6576   O.3       2 RES2   0.0000
    64 N7       1.7797  14.5551   9.3669   N.1       2 RES2   0.0000
    65 C31      1.7005  14.1801  10.4515   C.1       2 RES2   0.0000
    66 N8       0.4236  11.1670  11.8362   N.1       2 RES2   0.0000
    67 C32      0.8543  12.2221  11.9207   C.1       2 RES2   0.0000
    68 B1       1.6054  13.6470  11.9882   B         2 RES2  -1.0000
    69 N9       0.1720  15.5760  13.3452   N.1       2 RES2   0.0000
    70 C33      0.7055  14.7388  12.7695   C.1       2 RES2   0.0000
    71 B2       6.0378   9.1759  11.4403   B         3 RES3  -1.0000
    72 H26      7.6345  10.0988  11.8825   H         3 RES3   0.0000
    73 O2       7.3246   9.7633  11.2304   O.3       3 RES3   0.0000
    74 N10      4.1508  10.9718  12.3671   N.1       3 RES3   0.0000
    75 C34      4.9326  10.2067  12.0194   C.1       3 RES3   0.0000
    76 N11      5.0495   8.3596   8.9990   N.1       3 RES3   0.0000
    77 C35      5.4577   8.6924  10.0173   C.1       3 RES3   0.0000
    78 N12      6.1273   6.8986  12.9944   N.1       3 RES3   0.0000
    79 C36      6.0670   7.8589  12.3831   C.1       3 RES3   0.0000
@<TRIPOS>BOND
     1     1     2    1
     2     2     3   ar
     3     3     4    1
     4     5     1    1
     5     6     3   ar
     6     7     6    1
     7     8     1    1
     8     9     6   ar
     9    10     9    1
    10    11     9   ar
    11    12    11    1
    12    13     1    1
    13    14    15    1
    14    16     5   ar
    15    17     1    1
    16    18     2   ar
    17    19     1    1
    18    20    21    1
    19    22    14   ar
    20    23    22    1
    21    24     5   ar
    22    25    24    1
    23    26     8   ar
    24    27    26    1
    25    28    26   ar
    26    29    28    1
    27    30    28   ar
    28    31    30    1
    29    32    30   ar
    30    33    32    1
    31    34     8   ar
    32    35    13   ar
    33    36    35   ar
    34    37    36    1
    35    38    36   ar
    36    39    38    1
    37    40    38   ar
    38    41    40    1
    39    42    13   ar
    40    43    42    1
    41    44    19   ar
    42    45    44    1
    43    46    44   ar
    44    47    46    1
    45    48    46   ar
    46    49    48    1
    47    50    48   ar
    48    51    50    1
    49    52    19   ar
    50    53    17   ar
    51    54    53   ar
    52    55    54    1
    53    56    54   ar
    54    57    56    1
    55    58    56   ar
    56    59    58    1
    57    60    17   ar
    58    61    60    1
    59    11    18   ar
    60    14    16   ar
    61    16    18    1
    62    20    22   ar
    63    20    24   ar
    64    32    34   ar
    65    34    35    1
    66    40    42   ar
    67    50    52   ar
    68    52    53    1
    69    58    60   ar
    70    62    63    1
    71    63    68    1
    72    64    65    3
    73    65    68    1
    74    66    67    3
    75    67    68    1
    76    68    70    1
    77    69    70    3
    78    71    73    1
    79    72    73    1
    80    74    75    3
    81    75    71    1
    82    76    77    3
    83    77    71    1
    84    78    79    3
    85    79    71    1
@<TRIPOS>SUBSTRUCTURE
     1 RES1        1 GROUP             0 ****  ****    0  
     2 RES2       62 GROUP             0 ****  ****    0  
     3 RES3       71 GROUP             0 ****  ****    0  
@<TRIPOS>CRYSIN
    9.4768   26.7730   13.7797   90.0000   93.5780   90.0000    14     1
