@<TRIPOS>MOLECULE
HUCJIB01
    79    85     3     0     0
SMALL
USER_CHARGES
****
Generated from the CSD

@<TRIPOS>ATOM
     1 Fe1      7.4193   7.8761   6.3616   Fe        1 RES1   2.0000
     2 C1       8.8546   6.9433   8.8029   C.ar      1 RES1   0.0000
     3 H1       9.1559   7.8392   8.9019   H         1 RES1   0.0000
     4 N1       8.0583   6.6428   7.7622   N.ar      1 RES1   0.0000
     5 C2       9.2507   6.0085   9.7304   C.ar      1 RES1   0.0000
     6 H2       9.8314   6.2515  10.4419   H         1 RES1   0.0000
     7 N2       6.6330   6.2172   5.6677   N.ar      1 RES1   0.0000
     8 C3       7.6451   5.3573   7.6195   C.ar      1 RES1   0.0000
     9 N3       6.8896   8.9878   4.8301   N.ar      1 RES1   0.0000
    10 C4       7.9813   4.3830   8.5535   C.ar      1 RES1   0.0000
    11 H3       7.6519   3.4974   8.4601   H         1 RES1   0.0000
    12 N4       8.1612   9.4450   7.2663   N.ar      1 RES1   0.0000
    13 C5       8.7940   4.7124   9.6134   C.ar      1 RES1   0.0000
    14 H4       9.0371   4.0559  10.2558   H         1 RES1   0.0000
    15 N5       5.8735   8.3258   7.5128   N.ar      1 RES1   0.0000
    16 C6       6.8917   5.1004   6.3873   C.ar      1 RES1   0.0000
    17 N6       8.9681   7.5243   5.1968   N.ar      1 RES1   0.0000
    18 C7       5.5398   4.8488   4.0346   C.ar      1 RES1   0.0000
    19 H5       5.0617   4.7856   3.2161   H         1 RES1   0.0000
    20 C8       5.8305   3.7211   4.7639   C.ar      1 RES1   0.0000
    21 H6       5.5670   2.8653   4.4475   H         1 RES1   0.0000
    22 C9       6.5072   3.8426   5.9572   C.ar      1 RES1   0.0000
    23 H7       6.7071   3.0733   6.4779   H         1 RES1   0.0000
    24 C10      5.9565   6.0821   4.5146   C.ar      1 RES1   0.0000
    25 H8       5.7559   6.8612   4.0088   H         1 RES1   0.0000
    26 C11      4.6794   7.7129   7.5391   C.ar      1 RES1   0.0000
    27 H9       4.4973   7.0500   6.8833   H         1 RES1   0.0000
    28 C12      3.6982   8.0007   8.4779   C.ar      1 RES1   0.0000
    29 H10      2.8636   7.5468   8.4597   H         1 RES1   0.0000
    30 C13      3.9584   8.9590   9.4406   C.ar      1 RES1   0.0000
    31 H11      3.3120   9.1665  10.1051   H         1 RES1   0.0000
    32 C14      5.1804   9.6124   9.4161   C.ar      1 RES1   0.0000
    33 H12      5.3749  10.2829  10.0601   H         1 RES1   0.0000
    34 C15      6.1157   9.2851   8.4523   C.ar      1 RES1   0.0000
    35 C16      7.4255   9.9247   8.3043   C.ar      1 RES1   0.0000
    36 C17      7.9092  10.9288   9.1331   C.ar      1 RES1   0.0000
    37 H13      7.3924  11.2365   9.8683   H         1 RES1   0.0000
    38 C18      9.1557  11.4735   8.8737   C.ar      1 RES1   0.0000
    39 H14      9.5123  12.1471   9.4412   H         1 RES1   0.0000
    40 C19      9.8736  11.0300   7.7840   C.ar      1 RES1   0.0000
    41 H15     10.7156  11.4154   7.5708   H         1 RES1   0.0000
    42 C20      9.3475  10.0174   7.0079   C.ar      1 RES1   0.0000
    43 H16      9.8463   9.7122   6.2593   H         1 RES1   0.0000
    44 C21      5.7854   9.7520   4.7427   C.ar      1 RES1   0.0000
    45 H17      5.1712   9.7555   5.4675   H         1 RES1   0.0000
    46 C22      5.5127  10.5376   3.6286   C.ar      1 RES1   0.0000
    47 H18      4.7204  11.0607   3.5917   H         1 RES1   0.0000
    48 C23      6.4040  10.5493   2.5794   C.ar      1 RES1   0.0000
    49 H19      6.2381  11.0830   1.8112   H         1 RES1   0.0000
    50 C24      7.5414   9.7733   2.6610   C.ar      1 RES1   0.0000
    51 H20      8.1705   9.7706   1.9491   H         1 RES1   0.0000
    52 C25      7.7607   8.9952   3.7928   C.ar      1 RES1   0.0000
    53 C26      8.9208   8.1148   3.9707   C.ar      1 RES1   0.0000
    54 C27      9.8832   7.8675   3.0049   C.ar      1 RES1   0.0000
    55 H21      9.8216   8.2886   2.1558   H         1 RES1   0.0000
    56 C28     10.9285   7.0116   3.2726   C.ar      1 RES1   0.0000
    57 H22     11.5986   6.8418   2.6201   H         1 RES1   0.0000
    58 C29     10.9811   6.4051   4.5164   C.ar      1 RES1   0.0000
    59 H23     11.6863   5.8055   4.7309   H         1 RES1   0.0000
    60 C30      9.9920   6.6833   5.4419   C.ar      1 RES1   0.0000
    61 H24     10.0365   6.2612   6.2918   H         1 RES1   0.0000
    62 H25      8.7259   4.9565  13.5117   H         2 RES2   0.0000
    63 O1       8.2601   4.6943  13.0643   O.3       2 RES2   0.0000
    64 B1       8.1793   3.2723  12.9974   B         2 RES2  -1.0000
    65 N7       6.1328   2.5859  11.2682   N.1       2 RES2   0.0000
    66 C31      6.9547   2.8769  11.9974   C.1       2 RES2   0.0000
    67 N8       7.7381   1.9911  15.4028   N.1       2 RES2   0.0000
    68 C32      7.9077   2.5113  14.4097   C.1       2 RES2   0.0000
    69 N9      10.4256   2.1201  11.8428   N.1       2 RES2   0.0000
    70 C33      9.5037   2.5710  12.3503   C.1       2 RES2   0.0000
    71 B2       3.9929   2.3162   8.1742   B         3 RES3  -1.0000
    72 O2       5.3500   2.0934   8.5420   O.3       3 RES3   0.0000
    73 H26      5.4825   2.3876   9.3971   H         3 RES3   0.0000
    74 N10      3.3381   0.7621   5.9757   N.1       3 RES3   0.0000
    75 C34      3.6258   1.3985   6.8786   C.1       3 RES3   0.0000
    76 N11      3.3725   4.9138   7.4891   N.1       3 RES3   0.0000
    77 C35      3.6386   3.8437   7.7554   C.1       3 RES3   0.0000
    78 N12      2.1376   1.7811  10.1557   N.1       3 RES3   0.0000
    79 C36      2.9122   1.9623   9.3349   C.1       3 RES3   0.0000
@<TRIPOS>BOND
     1     1     4    1
     2     2     3    1
     3     4     2   ar
     4     5     2   ar
     5     6     5    1
     6     7     1    1
     7     8     4   ar
     8     9     1    1
     9    10     8   ar
    10    11    10    1
    11    12     1    1
    12    13     5   ar
    13    14    13    1
    14    15     1    1
    15    16     7   ar
    16    17     1    1
    17    18    19    1
    18    20    18   ar
    19    21    20    1
    20    22    16   ar
    21    23    22    1
    22    24     7   ar
    23    25    24    1
    24    26    15   ar
    25    27    26    1
    26    28    26   ar
    27    29    28    1
    28    30    28   ar
    29    31    30    1
    30    32    30   ar
    31    33    32    1
    32    34    15   ar
    33    35    12   ar
    34    36    35   ar
    35    37    36    1
    36    38    36   ar
    37    39    38    1
    38    40    38   ar
    39    41    40    1
    40    42    12   ar
    41    43    42    1
    42    44     9   ar
    43    45    44    1
    44    46    44   ar
    45    47    46    1
    46    48    46   ar
    47    49    48    1
    48    50    48   ar
    49    51    50    1
    50    52     9   ar
    51    53    17   ar
    52    54    53   ar
    53    55    54    1
    54    56    54   ar
    55    57    56    1
    56    58    56   ar
    57    59    58    1
    58    60    17   ar
    59    61    60    1
    60     8    16    1
    61    10    13   ar
    62    18    24   ar
    63    20    22   ar
    64    32    34   ar
    65    34    35    1
    66    40    42   ar
    67    50    52   ar
    68    52    53    1
    69    58    60   ar
    70    62    63    1
    71    63    64    1
    72    64    66    1
    73    65    66    3
    74    67    68    3
    75    68    64    1
    76    69    70    3
    77    70    64    1
    78    71    72    1
    79    72    73    1
    80    74    75    3
    81    75    71    1
    82    76    77    3
    83    77    71    1
    84    78    79    3
    85    79    71    1
@<TRIPOS>SUBSTRUCTURE
     1 RES1        1 GROUP             0 ****  ****    0  
     2 RES2       62 GROUP             0 ****  ****    0  
     3 RES3       71 GROUP             0 ****  ****    0  
