@<TRIPOS>MOLECULE
HUDLIB
   103   111     1     0     0
SMALL
NO_CHARGES
****
Generated from the CSD

@<TRIPOS>ATOM
     1 Fe1     -1.7914   0.9462   4.4607   Fe        1 RES1   0.0000
     2 P1      -3.5847   0.8901   3.2397   P.3       1 RES1   0.0000
     3 O1      -3.1150   2.5901   6.4823   O.2       1 RES1   0.0000
     4 C1      -2.5950   1.9476   5.6780   C.1       1 RES1   0.0000
     5 C2      -2.2037  -1.0092   4.9466   C.3       1 RES1   0.0000
     6 C3      -2.9420  -1.7631   5.9371   C.ar      1 RES1   0.0000
     7 C4      -3.9087  -1.1886   6.7503   C.ar      1 RES1   0.0000
     8 H1      -4.1262  -0.2911   6.6358   H         1 RES1   0.0000
     9 C5      -4.5511  -1.9220   7.7231   C.ar      1 RES1   0.0000
    10 H2      -5.1972  -1.5168   8.2559   H         1 RES1   0.0000
    11 C6      -4.2473  -3.2446   7.9126   C.ar      1 RES1   0.0000
    12 H3      -4.6738  -3.7319   8.5789   H         1 RES1   0.0000
    13 C7      -3.3082  -3.8449   7.1118   C.ar      1 RES1   0.0000
    14 H4      -3.1062  -4.7454   7.2300   H         1 RES1   0.0000
    15 C8      -2.6616  -3.1156   6.1303   C.ar      1 RES1   0.0000
    16 H5      -2.0298  -3.5338   5.5902   H         1 RES1   0.0000
    17 O2      -4.9238   0.8382   4.1290   O.3       1 RES1   0.0000
    18 C9      -6.2008   0.5943   3.6116   C.ar      1 RES1   0.0000
    19 C10     -7.0102   1.6558   3.2701   C.ar      1 RES1   0.0000
    20 H6      -6.6947   2.5273   3.3366   H         1 RES1   0.0000
    21 C11     -8.2994   1.4127   2.8277   C.ar      1 RES1   0.0000
    22 H7      -8.8466   2.1261   2.5890   H         1 RES1   0.0000
    23 C12     -8.7717   0.1481   2.7384   C.ar      1 RES1   0.0000
    24 H8      -9.6407  -0.0080   2.4481   H         1 RES1   0.0000
    25 C13     -7.9570  -0.9045   3.0793   C.ar      1 RES1   0.0000
    26 H9      -8.2779  -1.7749   3.0048   H         1 RES1   0.0000
    27 C14     -6.6636  -0.6903   3.5327   C.ar      1 RES1   0.0000
    28 H10     -6.1210  -1.4047   3.7773   H         1 RES1   0.0000
    29 O3      -3.8728   2.0410   2.1581   O.3       1 RES1   0.0000
    30 C15     -3.9856   3.4204   2.2807   C.ar      1 RES1   0.0000
    31 C16     -4.2925   4.0521   3.4512   C.ar      1 RES1   0.0000
    32 H11     -4.3856   3.5708   4.2413   H         1 RES1   0.0000
    33 C17     -4.4623   5.4354   3.4353   C.ar      1 RES1   0.0000
    34 H12     -4.6755   5.8839   4.2216   H         1 RES1   0.0000
    35 C18     -4.3174   6.1361   2.2752   C.ar      1 RES1   0.0000
    36 H13     -4.4267   7.0595   2.2750   H         1 RES1   0.0000
    37 C19     -4.0131   5.4867   1.1129   C.ar      1 RES1   0.0000
    38 H14     -3.9263   5.9730   0.3247   H         1 RES1   0.0000
    39 C20     -3.8337   4.1127   1.0961   C.ar      1 RES1   0.0000
    40 H15     -3.6170   3.6688   0.3087   H         1 RES1   0.0000
    41 O4      -3.7957  -0.3593   2.2634   O.3       1 RES1   0.0000
    42 C21     -3.8557  -0.3906   0.8663   C.ar      1 RES1   0.0000
    43 C22     -2.8652  -1.0438   0.1956   C.ar      1 RES1   0.0000
    44 H16     -2.1504  -1.4217   0.6566   H         1 RES1   0.0000
    45 C23     -2.9426  -1.1336  -1.1882   C.ar      1 RES1   0.0000
    46 H17     -2.2823  -1.5828  -1.6630   H         1 RES1   0.0000
    47 C24     -3.9947  -0.5603  -1.8519   C.ar      1 RES1   0.0000
    48 H18     -4.0306  -0.6023  -2.7799   H         1 RES1   0.0000
    49 C25     -4.9823   0.0680  -1.1728   C.ar      1 RES1   0.0000
    50 H19     -5.6992   0.4392  -1.6344   H         1 RES1   0.0000
    51 C26     -4.9273   0.1591   0.2031   C.ar      1 RES1   0.0000
    52 H20     -5.6055   0.5873   0.6745   H         1 RES1   0.0000
    53 P1F      0.0019   0.8901   5.6817   P.3       1 RES1   0.0000
    54 O2F      1.3410   0.8382   4.7924   O.3       1 RES1   0.0000
    55 C9F      2.6180   0.5943   5.3099   C.ar      1 RES1   0.0000
    56 C10F     3.4275   1.6558   5.6514   C.ar      1 RES1   0.0000
    57 H6F      3.1119   2.5273   5.5848   H         1 RES1   0.0000
    58 C11F     4.7166   1.4127   6.0937   C.ar      1 RES1   0.0000
    59 H7F      5.2638   2.1261   6.3325   H         1 RES1   0.0000
    60 C12F     5.1889   0.1481   6.1831   C.ar      1 RES1   0.0000
    61 H8F      6.0579  -0.0080   6.4734   H         1 RES1   0.0000
    62 C13F     4.3743  -0.9045   5.8421   C.ar      1 RES1   0.0000
    63 H9F      4.6951  -1.7749   5.9167   H         1 RES1   0.0000
    64 C14F     3.0808  -0.6903   5.3887   C.ar      1 RES1   0.0000
    65 H10F     2.5382  -1.4047   5.1441   H         1 RES1   0.0000
    66 O3F      0.2900   2.0410   6.7634   O.3       1 RES1   0.0000
    67 C15F     0.4028   3.4204   6.6408   C.ar      1 RES1   0.0000
    68 C16F     0.7097   4.0521   5.4703   C.ar      1 RES1   0.0000
    69 H11F     0.8028   3.5708   4.6802   H         1 RES1   0.0000
    70 C17F     0.8795   5.4354   5.4862   C.ar      1 RES1   0.0000
    71 H12F     1.0927   5.8839   4.6998   H         1 RES1   0.0000
    72 C18F     0.7346   6.1361   6.6463   C.ar      1 RES1   0.0000
    73 H13F     0.8439   7.0595   6.6465   H         1 RES1   0.0000
    74 C19F     0.4303   5.4867   7.8086   C.ar      1 RES1   0.0000
    75 H14F     0.3435   5.9730   8.5967   H         1 RES1   0.0000
    76 C20F     0.2509   4.1127   7.8254   C.ar      1 RES1   0.0000
    77 H15F     0.0342   3.6688   8.6128   H         1 RES1   0.0000
    78 O4F      0.2130  -0.3593   6.6581   O.3       1 RES1   0.0000
    79 C21F     0.2729  -0.3906   8.0552   C.ar      1 RES1   0.0000
    80 C22F    -0.7176  -1.0438   8.7259   C.ar      1 RES1   0.0000
    81 H16F    -1.4324  -1.4217   8.2648   H         1 RES1   0.0000
    82 C23F    -0.6402  -1.1336  10.1096   C.ar      1 RES1   0.0000
    83 H17F    -1.3005  -1.5828  10.5844   H         1 RES1   0.0000
    84 C24F     0.4119  -0.5603  10.7734   C.ar      1 RES1   0.0000
    85 H18F     0.4478  -0.6023  11.7014   H         1 RES1   0.0000
    86 C25F     1.3995   0.0680  10.0943   C.ar      1 RES1   0.0000
    87 H19F     2.1164   0.4392  10.5559   H         1 RES1   0.0000
    88 C26F     1.3445   0.1591   8.7184   C.ar      1 RES1   0.0000
    89 H20F     2.0228   0.5873   8.2470   H         1 RES1   0.0000
    90 C1F     -0.9878   1.9476   3.2435   C.1       1 RES1   0.0000
    91 O1F     -0.4678   2.5901   2.4391   O.2       1 RES1   0.0000
    92 C2F     -1.3791  -1.0092   3.9749   C.3       1 RES1   0.0000
    93 C3F     -0.6408  -1.7631   2.9844   C.ar      1 RES1   0.0000
    94 C4F      0.3259  -1.1886   2.1711   C.ar      1 RES1   0.0000
    95 H1F      0.5434  -0.2911   2.2857   H         1 RES1   0.0000
    96 C5F      0.9683  -1.9220   1.1983   C.ar      1 RES1   0.0000
    97 H2F      1.6144  -1.5168   0.6655   H         1 RES1   0.0000
    98 C6F      0.6645  -3.2446   1.0088   C.ar      1 RES1   0.0000
    99 H3F      1.0910  -3.7319   0.3426   H         1 RES1   0.0000
   100 C7F     -0.2746  -3.8449   1.8096   C.ar      1 RES1   0.0000
   101 H4F     -0.4766  -4.7454   1.6915   H         1 RES1   0.0000
   102 C8F     -0.9212  -3.1156   2.7912   C.ar      1 RES1   0.0000
   103 H5F     -1.5530  -3.5338   3.3313   H         1 RES1   0.0000
@<TRIPOS>BOND
     1     1     2    1
     2     2    17    1
     3     3     4    3
     4     4     1    1
     5     5     1   un
     6     6     5    1
     7     7     6   ar
     8     8     7    1
     9     9     7   ar
    10    10     9    1
    11    11     9   ar
    12    12    11    1
    13    13    11   ar
    14    14    13    1
    15    15     6   ar
    16    16    15    1
    17    17    18    1
    18    18    19   ar
    19    19    20    1
    20    21    19   ar
    21    22    21    1
    22    23    21   ar
    23    24    23    1
    24    25    23   ar
    25    26    25    1
    26    27    18   ar
    27    28    27    1
    28    29     2    1
    29    30    29    1
    30    31    30   ar
    31    32    31    1
    32    33    31   ar
    33    34    33    1
    34    35    33   ar
    35    36    35    1
    36    37    35   ar
    37    38    37    1
    38    39    30   ar
    39    40    39    1
    40    41     2    1
    41    42    41    1
    42    43    42   ar
    43    44    43    1
    44    45    43   ar
    45    46    45    1
    46    47    45   ar
    47    48    47    1
    48    49    47   ar
    49    50    49    1
    50    51    42   ar
    51    52    51    1
    52    53     1    1
    53    54    53    1
    54    55    54    1
    55    56    55   ar
    56    57    56    1
    57    58    56   ar
    58    59    58    1
    59    60    58   ar
    60    61    60    1
    61    62    60   ar
    62    63    62    1
    63    64    55   ar
    64    65    64    1
    65    66    53    1
    66    67    66    1
    67    68    67   ar
    68    69    68    1
    69    70    68   ar
    70    71    70    1
    71    72    70   ar
    72    73    72    1
    73    74    72   ar
    74    75    74    1
    75    76    67   ar
    76    77    76    1
    77    78    53    1
    78    79    78    1
    79    80    79   ar
    80    81    80    1
    81    82    80   ar
    82    83    82    1
    83    84    82   ar
    84    85    84    1
    85    86    84   ar
    86    87    86    1
    87    88    79   ar
    88    89    88    1
    89    90     1    1
    90    91    90    3
    91    92     1   un
    92    93    92    1
    93    94    93   ar
    94    95    94    1
    95    96    94   ar
    96    97    96    1
    97    98    96   ar
    98    99    98    1
    99   100    98   ar
   100   101   100    1
   101   102    93   ar
   102   103   102    1
   103     5    92    3
   104    13    15   ar
   105    25    27   ar
   106    37    39   ar
   107    49    51   ar
   108    62    64   ar
   109    74    76   ar
   110    86    88   ar
   111   100   102   ar
@<TRIPOS>SUBSTRUCTURE
     1 RES1        1 GROUP             0 ****  ****    0  
@<TRIPOS>CRYSIN
   25.0220   10.0050   19.2280   90.0000  111.8800   90.0000    15     1
