@<TRIPOS>MOLECULE
HUGVEM
    79    85     1     0     0
SMALL
NO_CHARGES
****
Generated from the CSD

@<TRIPOS>ATOM
     1 Fe1      3.0632   7.7444  11.0228   Fe        1 RES1   0.0000
     2 P1       1.4599   9.1995  10.3679   P.3       1 RES1   0.0000
     3 S1       2.5194   5.5070  10.0655   S.3       1 RES1   0.0000
     4 O1       4.8497   9.9161  11.5268   O.2       1 RES1   0.0000
     5 O2       4.6132   8.1090   8.5940   O.2       1 RES1   0.0000
     6 N1       4.3316   6.3315  11.6736   N.ar      1 RES1   0.0000
     7 N2       2.1365   7.4614  12.8003   N.2       1 RES1   0.0000
     8 N3       2.7054   8.2043  13.8056   N.pl3     1 RES1   0.0000
     9 C1       1.8377  10.1167   8.8221   C.ar      1 RES1   0.0000
    10 C2       3.0426  10.8259   8.7472   C.ar      1 RES1   0.0000
    11 H1       3.6388  10.8023   9.4613   H         1 RES1   0.0000
    12 C3       1.1043  10.5656  11.5585   C.ar      1 RES1   0.0000
    13 C4       0.6543  10.2351  12.8386   C.ar      1 RES1   0.0000
    14 H2       0.5057   9.3432  13.0584   H         1 RES1   0.0000
    15 C5       3.9905   9.1282  11.9243   C.2       1 RES1   0.0000
    16 C6       3.8336   5.1955  11.1498   C.ar      1 RES1   0.0000
    17 C7      -0.2195   8.5108  10.0737   C.ar      1 RES1   0.0000
    18 C8       1.1427   6.7601  13.3994   C.2       1 RES1   0.0000
    19 C9       2.5751   8.7116  16.2355   C.3       1 RES1   0.0000
    20 H3       2.9177   9.5904  15.9678   H         1 RES1   0.0000
    21 C10      1.2667  11.9077  11.2444   C.ar      1 RES1   0.0000
    22 H4       1.5505  12.1499  10.3930   H         1 RES1   0.0000
    23 C11      0.2911   5.7564  12.6796   C.3       1 RES1   0.0000
    24 H5       0.4304   5.8715  11.7161   H         1 RES1   0.0000
    25 C12      0.9779  10.1382   7.7285   C.ar      1 RES1   0.0000
    26 H6       0.1754   9.6691   7.7620   H         1 RES1   0.0000
    27 C13     -1.3852   9.1301  10.5340   C.ar      1 RES1   0.0000
    28 H7      -1.3286   9.9404  10.9870   H         1 RES1   0.0000
    29 C14      1.0084  12.8941  12.1915   C.ar      1 RES1   0.0000
    30 H8       1.1088  13.7906  11.9628   H         1 RES1   0.0000
    31 C15      2.0900   8.0169  14.9937   C.2       1 RES1   0.0000
    32 C16      0.4251  11.2232  13.7835   C.ar      1 RES1   0.0000
    33 H9       0.1483  10.9861  14.6392   H         1 RES1   0.0000
    34 C17      3.9791   7.9834   9.5548   C.1       1 RES1   0.0000
    35 C18      1.0939   7.0963  14.7587   C.2       1 RES1   0.0000
    36 H10      0.4973   6.7597  15.3876   H         1 RES1   0.0000
    37 C19      4.3440   3.9451  11.5590   C.ar      1 RES1   0.0000
    38 H11      4.0092   3.1545  11.2006   H         1 RES1   0.0000
    39 C20      3.3522  11.5612   7.6188   C.ar      1 RES1   0.0000
    40 H12      4.1451  12.0471   7.5856   H         1 RES1   0.0000
    41 C21      5.3258   6.2924  12.5747   C.ar      1 RES1   0.0000
    42 H13      5.6647   7.0900  12.9110   H         1 RES1   0.0000
    43 C22      2.4893  11.5767   6.5369   C.ar      1 RES1   0.0000
    44 H14      2.7008  12.0711   5.7788   H         1 RES1   0.0000
    45 C23     -2.6253   8.5474  10.3224   C.ar      1 RES1   0.0000
    46 H15     -3.3912   8.9604  10.6507   H         1 RES1   0.0000
    47 C24      0.7189   4.3373  13.0588   C.3       1 RES1   0.0000
    48 H16      1.6487   4.2177  12.8531   H         1 RES1   0.0000
    49 H17      0.1959   3.7014  12.5637   H         1 RES1   0.0000
    50 H18      0.5797   4.2024  13.9984   H         1 RES1   0.0000
    51 C25      0.6035  12.5524  13.4686   C.ar      1 RES1   0.0000
    52 H19      0.4538  13.2109  14.1072   H         1 RES1   0.0000
    53 C26     -0.3394   7.3241   9.3511   C.ar      1 RES1   0.0000
    54 H20      0.4224   6.9062   9.0203   H         1 RES1   0.0000
    55 C27      5.8592   5.0975  13.0130   C.ar      1 RES1   0.0000
    56 H21      6.5462   5.0861  13.6414   H         1 RES1   0.0000
    57 C28      1.3100  10.8542   6.5877   C.ar      1 RES1   0.0000
    58 H22      0.7379  10.8483   5.8546   H         1 RES1   0.0000
    59 C29     -1.1928   5.9828  12.9785   C.3       1 RES1   0.0000
    60 H23     -1.3452   5.9021  13.9226   H         1 RES1   0.0000
    61 H24     -1.7173   5.3268  12.5127   H         1 RES1   0.0000
    62 H25     -1.4472   6.8625  12.6877   H         1 RES1   0.0000
    63 C30      3.6971   9.2010  13.4332   C.3       1 RES1   0.0000
    64 H26      4.5151   9.0479  13.9308   H         1 RES1   0.0000
    65 H27      3.3700  10.0848  13.6579   H         1 RES1   0.0000
    66 C31      5.3526   3.9202  12.5016   C.ar      1 RES1   0.0000
    67 H28      5.6911   3.1042  12.7938   H         1 RES1   0.0000
    68 C32     -2.7302   7.3667   9.6336   C.ar      1 RES1   0.0000
    69 H29     -3.5634   6.9718   9.5096   H         1 RES1   0.0000
    70 C33     -1.5897   6.7610   9.1215   C.ar      1 RES1   0.0000
    71 H30     -1.6626   5.9787   8.6248   H         1 RES1   0.0000
    72 C34      3.7286   7.9357  16.8443   C.3       1 RES1   0.0000
    73 H31      3.3948   7.1337  17.2523   H         1 RES1   0.0000
    74 H32      4.1630   8.4769  17.5086   H         1 RES1   0.0000
    75 H33      4.3582   7.7069  16.1566   H         1 RES1   0.0000
    76 C35      1.4408   8.9429  17.2041   C.3       1 RES1   0.0000
    77 H34      0.7430   9.4373  16.7685   H         1 RES1   0.0000
    78 H35      1.7614   9.4395  17.9607   H         1 RES1   0.0000
    79 H36      1.0956   8.0963  17.5004   H         1 RES1   0.0000
@<TRIPOS>BOND
     1     1     2    1
     2     2     9    1
     3     3     1    1
     4     4    15    2
     5     5    34    3
     6     6     1    1
     7     7     1    1
     8     8     7    1
     9     9    10   ar
    10    10    11    1
    11    12     2    1
    12    13    12   ar
    13    14    13    1
    14    15     1    1
    15    16     3    1
    16    17     2    1
    17    18     7    2
    18    19    20    1
    19    21    12   ar
    20    22    21    1
    21    23    18    1
    22    24    23    1
    23    25     9   ar
    24    26    25    1
    25    27    17   ar
    26    28    27    1
    27    29    21   ar
    28    30    29    1
    29    31     8    1
    30    32    13   ar
    31    33    32    1
    32    34     1    1
    33    35    18    1
    34    36    35    1
    35    37    16   ar
    36    38    37    1
    37    39    10   ar
    38    40    39    1
    39    41     6   ar
    40    42    41    1
    41    43    39   ar
    42    44    43    1
    43    45    27   ar
    44    46    45    1
    45    47    23    1
    46    48    47    1
    47    49    47    1
    48    50    47    1
    49    51    29   ar
    50    52    51    1
    51    53    17   ar
    52    54    53    1
    53    55    41   ar
    54    56    55    1
    55    57    25   ar
    56    58    57    1
    57    59    23    1
    58    60    59    1
    59    61    59    1
    60    62    59    1
    61    63     8    1
    62    64    63    1
    63    65    63    1
    64    66    37   ar
    65    67    66    1
    66    68    45   ar
    67    69    68    1
    68    70    53   ar
    69    71    70    1
    70    72    19    1
    71    73    72    1
    72    74    72    1
    73    75    72    1
    74    76    19    1
    75    77    76    1
    76    78    76    1
    77    79    76    1
    78     6    16   ar
    79    15    63    1
    80    19    31    1
    81    31    35    2
    82    32    51   ar
    83    43    57   ar
    84    55    66   ar
    85    68    70   ar
@<TRIPOS>SUBSTRUCTURE
     1 RES1        1 GROUP             0 ****  ****    0  
@<TRIPOS>CRYSIN
   10.6604   21.8759   13.8367   90.0000   95.0970   90.0000   231     1
