@<TRIPOS>MOLECULE
HUJVIT
   176   190     2     0     0
SMALL
USER_CHARGES
****
Generated from the CSD

@<TRIPOS>ATOM
     1 Fe1     16.0345  -0.2853   2.7704   Fe        1 RES1   0.0000
     2 N1      18.0207  -0.2740   2.5696   N.2       1 RES1   0.0000
     3 N2      16.1375  -2.0156   3.7288   N.2       1 RES1  -1.0000
     4 C1      15.0837  -2.8079   4.1582   C.2       1 RES1   0.0000
     5 N3      15.9284   1.4385   1.7623   N.2       1 RES1   0.0000
     6 N4      14.0475  -0.2876   2.9742   N.2       1 RES1   0.0000
     7 N5      16.2200   0.6993   4.4914   N.2       1 RES1   0.0000
     8 C2      13.1564   0.6584   2.5082   C.2       1 RES1   0.0000
     9 C3      11.8036   0.2594   2.8090   C.2       1 RES1   0.0000
    10 H1      11.0141   0.7479   2.6082   H         1 RES1   0.0000
    11 C4      13.2578  -1.2834   3.5262   C.2       1 RES1   0.0000
    12 C5      18.7836   0.6538   1.9020   C.2       1 RES1   0.0000
    13 C6      14.7876   2.1329   1.4228   C.2       1 RES1   0.0000
    14 C7      12.3757   2.6410   1.2384   C.ar      1 RES1   0.0000
    15 C8      20.1826   0.3656   2.0741   C.2       1 RES1   0.0000
    16 H2      20.9098   0.8692   1.7267   H         1 RES1   0.0000
    17 C9      16.4465   3.1978   0.3619   C.2       1 RES1   0.0000
    18 H3      16.9529   3.7985  -0.1698   H         1 RES1   0.0000
    19 C10     15.1181   3.2327   0.5540   C.2       1 RES1   0.0000
    20 H4      14.5107   3.8637   0.1860   H         1 RES1   0.0000
    21 C11     16.9591   2.0874   1.1100   C.2       1 RES1   0.0000
    22 C12     16.3242  -2.5136   0.7663   C.2       1 RES1   0.0000
    23 H5      16.7907  -3.0810   1.3708   H         1 RES1   0.0000
    24 C13     11.8663  -0.9329   3.4253   C.2       1 RES1   0.0000
    25 H6      11.1295  -1.4472   3.7365   H         1 RES1   0.0000
    26 O1      11.5440   5.9922   3.7207   O.2       1 RES1   0.0000
    27 C14     12.0813   3.8956   1.7746   C.ar      1 RES1   0.0000
    28 N6      12.8128   4.2991   2.9115   N.am      1 RES1   0.0000
    29 H7      13.5715   3.8713   3.0409   H         1 RES1   0.0000
    30 C15     12.5156   5.2487   3.8355   C.2       1 RES1   0.0000
    31 C16     12.7068  -4.7056   3.5990   C.ar      1 RES1   0.0000
    32 H8      13.3620  -4.8103   2.9196   H         1 RES1   0.0000
    33 C17     12.7316  -3.5588   4.3873   C.ar      1 RES1   0.0000
    34 C18     13.7346  -2.4863   4.0529   C.2       1 RES1   0.0000
    35 C19     18.9167  -1.1711   3.0955   C.2       1 RES1   0.0000
    36 N7      15.3707  -1.7749  -1.0190   N.pl3     1 RES1   0.0000
    37 N8      15.8666   1.3865   6.5558   N.pl3     1 RES1   0.0000
    38 C20     16.8951   2.0919   6.0758   C.2       1 RES1   0.0000
    39 H9      17.3827   2.7624   6.5388   H         1 RES1   0.0000
    40 C21     15.2793  -0.8677  -0.0344   C.2       1 RES1   0.0000
    41 H10     14.8507  -0.0258  -0.1254   H         1 RES1   0.0000
    42 C22     15.4800   0.5446   5.5804   C.2       1 RES1   0.0000
    43 H11     14.7678  -0.0804   5.6633   H         1 RES1   0.0000
    44 C23     19.2618   2.4423   0.2489   C.ar      1 RES1   0.0000
    45 C24     18.3002   1.7263   1.1521   C.2       1 RES1   0.0000
    46 C25     11.7707  -3.4420   5.3936   C.ar      1 RES1   0.0000
    47 N9      11.7441  -2.3437   6.2885   N.am      1 RES1   0.0000
    48 H12     11.0327  -1.8264   6.2901   H         1 RES1   0.0000
    49 C26     19.7158   3.7272   0.4954   C.ar      1 RES1   0.0000
    50 N10     19.3097   4.3901   1.6677   N.am      1 RES1   0.0000
    51 H13     19.1428   3.8819   2.3656   H         1 RES1   0.0000
    52 C27     12.7390  -2.0509   7.1292   C.2       1 RES1   0.0000
    53 O2      13.8293  -2.6395   7.1179   O.2       1 RES1   0.0000
    54 C28     12.4580  -1.0179   8.1624   C.ar      1 RES1   0.0000
    55 C29     11.1069   4.6996   1.1873   C.ar      1 RES1   0.0000
    56 H14     10.9430   5.5718   1.5265   H         1 RES1   0.0000
    57 C30     10.6216   2.9763  -0.4003   C.ar      1 RES1   0.0000
    58 H15     10.1035   2.6471  -1.1242   H         1 RES1   0.0000
    59 C31     10.3827   4.2293   0.1173   C.ar      1 RES1   0.0000
    60 H16      9.7072   4.7754  -0.2709   H         1 RES1   0.0000
    61 C32     11.5102  -0.0167   8.0249   C.ar      1 RES1   0.0000
    62 H17     11.0304   0.0516   7.2060   H         1 RES1   0.0000
    63 C33     13.1369  -1.0831   9.3775   C.ar      1 RES1   0.0000
    64 H18     13.8098  -1.7430   9.5009   H         1 RES1   0.0000
    65 C34     19.6920  -3.2994   4.1198   C.ar      1 RES1   0.0000
    66 C35     20.3024  -4.0761   3.1521   C.ar      1 RES1   0.0000
    67 H19     20.0257  -3.9927   2.2463   H         1 RES1   0.0000
    68 C36     20.1209  -3.4268   5.4437   C.ar      1 RES1   0.0000
    69 N11     19.4474  -2.6350   6.3914   N.am      1 RES1   0.0000
    70 H20     18.8217  -2.1116   6.0596   H         1 RES1   0.0000
    71 C37     20.2662  -0.7494   2.8167   C.2       1 RES1   0.0000
    72 H21     21.0630  -1.1802   3.1036   H         1 RES1   0.0000
    73 C38     16.9200  -3.9927   4.6514   C.2       1 RES1   0.0000
    74 H22     17.5213  -4.6662   4.9496   H         1 RES1   0.0000
    75 C39     17.2770  -2.7427   4.0274   C.2       1 RES1   0.0000
    76 C40     18.5802  -2.3543   3.7453   C.2       1 RES1   0.0000
    77 C41     10.7999  -4.4417   5.5339   C.ar      1 RES1   0.0000
    78 H23     10.1344  -4.3492   6.2052   H         1 RES1   0.0000
    79 C42     11.7616  -5.6932   3.7708   C.ar      1 RES1   0.0000
    80 H24     11.7845  -6.4744   3.2310   H         1 RES1   0.0000
    81 C43     20.6037   4.3203  -0.4104   C.ar      1 RES1   0.0000
    82 H25     20.9246   5.2002  -0.2487   H         1 RES1   0.0000
    83 C44     21.0155   3.6407  -1.5285   C.ar      1 RES1   0.0000
    84 H26     21.6228   4.0549  -2.1291   H         1 RES1   0.0000
    85 C45     15.5856  -4.0291   4.7300   C.2       1 RES1   0.0000
    86 H27     15.0645  -4.7329   5.0972   H         1 RES1   0.0000
    87 C46     15.2689   1.5488   7.8834   C.3       1 RES1   0.0000
    88 H28     15.7483   2.2481   8.3747   H         1 RES1   0.0000
    89 H29     15.3297   0.7039   8.3747   H         1 RES1   0.0000
    90 H30     14.3276   1.8052   7.7883   H         1 RES1   0.0000
    91 C47     13.4488   5.3655   5.0345   C.3       1 RES1   0.0000
    92 C48     12.8560  -0.2154  10.3905   C.ar      1 RES1   0.0000
    93 H31     13.3161  -0.2822  11.2174   H         1 RES1   0.0000
    94 C49     16.0240  -2.8170  -0.5257   C.2       1 RES1   0.0000
    95 H32     16.2441  -3.6195  -0.9867   H         1 RES1   0.0000
    96 C50     17.1163   1.6611   4.7899   C.2       1 RES1   0.0000
    97 H33     17.7899   1.9887   4.2076   H         1 RES1   0.0000
    98 C51     19.1450   5.7159   1.8440   C.2       1 RES1   0.0000
    99 O3      19.2699   6.4820   0.8836   O.2       1 RES1   0.0000
   100 C52     10.7855  -5.5445   4.7272   C.ar      1 RES1   0.0000
   101 H34     10.1061  -6.2014   4.8263   H         1 RES1   0.0000
   102 C53     20.5642   2.3847  -1.7894   C.ar      1 RES1   0.0000
   103 H35     20.8444   1.9281  -2.5759   H         1 RES1   0.0000
   104 C54     19.6870   1.7779  -0.8876   C.ar      1 RES1   0.0000
   105 H36     19.3765   0.8965  -1.0554   H         1 RES1   0.0000
   106 C55     11.6317   2.2026   0.1516   C.ar      1 RES1   0.0000
   107 H37     11.8196   1.3501  -0.2244   H         1 RES1   0.0000
   108 C56     11.2413   0.8707   9.0136   C.ar      1 RES1   0.0000
   109 H38     10.6049   1.5625   8.8781   H         1 RES1   0.0000
   110 C57     17.8365   7.3679   3.0935   C.3       1 RES1   0.0000
   111 H39     17.0078   7.0478   2.6810   H         1 RES1   0.0000
   112 H40     18.2369   8.0612   2.5294   H         1 RES1   0.0000
   113 H41     17.6375   7.7411   3.9771   H         1 RES1   0.0000
   114 C58     18.8097   6.2105   3.2411   C.3       1 RES1   0.0000
   115 C59     18.2302   5.1319   4.1368   C.3       1 RES1   0.0000
   116 H42     17.4107   4.7754   3.7344   H         1 RES1   0.0000
   117 H43     18.0230   5.5127   5.0163   H         1 RES1   0.0000
   118 H44     18.8844   4.4083   4.2419   H         1 RES1   0.0000
   119 C60     11.8955   0.7615  10.2045   C.ar      1 RES1   0.0000
   120 H45     11.6882   1.3607  10.9142   H         1 RES1   0.0000
   121 C61     19.6074  -2.5531   7.7074   C.2       1 RES1   0.0000
   122 C62     18.6540  -1.5943   8.4353   C.3       1 RES1   0.0000
   123 C63     17.2140  -1.8446   8.0249   C.3       1 RES1   0.0000
   124 H46     16.9611  -2.7594   8.2675   H         1 RES1   0.0000
   125 H47     17.1257  -1.7263   7.0564   H         1 RES1   0.0000
   126 H48     16.6292  -1.2105   8.4879   H         1 RES1   0.0000
   127 C64     19.0490  -0.1684   8.0673   C.3       1 RES1   0.0000
   128 H49     18.4491   0.4627   8.5162   H         1 RES1   0.0000
   129 H50     18.9792  -0.0501   7.0968   H         1 RES1   0.0000
   130 H51     19.9703  -0.0015   8.3524   H         1 RES1   0.0000
   131 O4      20.4963  -3.1507   8.2855   O.2       1 RES1   0.0000
   132 C65     12.5940   5.4763   6.2679   C.3       1 RES1   0.0000
   133 H52     12.1000   4.6404   6.3993   H         1 RES1   0.0000
   134 H53     11.9629   6.2165   6.1607   H         1 RES1   0.0000
   135 H54     13.1662   5.6431   7.0463   H         1 RES1   0.0000
   136 C66     21.1469  -4.3112   5.7583   C.ar      1 RES1   0.0000
   137 H55     21.4458  -4.3901   6.6581   H         1 RES1   0.0000
   138 C67     21.7297  -5.0712   4.7737   C.ar      1 RES1   0.0000
   139 H56     22.4324  -5.6720   4.9961   H         1 RES1   0.0000
   140 C68     21.3061  -4.9711   3.4696   C.ar      1 RES1   0.0000
   141 H57     21.6989  -5.5112   2.7943   H         1 RES1   0.0000
   142 C69     13.4924   1.7931   1.7811   C.2       1 RES1   0.0000
   143 C70     14.4462   4.2536   5.1538   C.3       1 RES1   0.0000
   144 H58     13.9759   3.4026   5.2690   H         1 RES1   0.0000
   145 H59     15.0260   4.4144   5.9282   H         1 RES1   0.0000
   146 H60     14.9922   4.2172   4.3410   H         1 RES1   0.0000
   147 C71     14.2248   6.6732   4.8647   C.3       1 RES1   0.0000
   148 H61     14.7945   6.6140   4.0680   H         1 RES1   0.0000
   149 H62     14.7831   6.8279   5.6552   H         1 RES1   0.0000
   150 H63     13.5932   7.4165   4.7595   H         1 RES1   0.0000
   151 C72     20.0816   6.7399   3.8679   C.3       1 RES1   0.0000
   152 H64     20.4665   7.4332   3.2916   H         1 RES1   0.0000
   153 H65     20.7253   6.0072   3.9690   H         1 RES1   0.0000
   154 H66     19.8788   7.1207   4.7474   H         1 RES1   0.0000
   155 C73     18.8016  -1.7824   9.9234   C.3       1 RES1   0.0000
   156 H67     18.5446  -2.6972  10.1640   H         1 RES1   0.0000
   157 H68     18.2223  -1.1468  10.3925   H         1 RES1   0.0000
   158 H69     19.7358  -1.6262  10.1802   H         1 RES1   0.0000
   159 C74     14.7759  -1.6990  -2.3292   C.3       1 RES1   0.0000
   160 H70     14.9965  -2.5091  -2.8347   H         1 RES1   0.0000
   161 H71     15.1227  -0.9132  -2.8003   H         1 RES1   0.0000
   162 H72     13.8027  -1.6232  -2.2423   H         1 RES1   0.0000
   163 N12     15.8517  -1.2764   1.0595   N.2       1 RES1   0.0000
   164 N13     18.7038   9.2019   8.8721   N.pl3     2 RES2   1.0000
   165 C75     17.7620   8.6528   6.9472   C.2       2 RES2   0.0000
   166 H73     17.6325   8.3555   6.0556   H         2 RES2   0.0000
   167 C76     18.8858   8.7696   7.5679   C.2       2 RES2   0.0000
   168 H74     19.7308   8.5815   7.1797   H         2 RES2   0.0000
   169 C77     19.6863   9.4128   9.8486   C.3       2 RES2   0.0000
   170 H75     20.5694   9.2126   9.4726   H         2 RES2   0.0000
   171 H76     19.5167   8.8272  10.6149   H         2 RES2   0.0000
   172 H77     19.6603  10.3488  10.1418   H         2 RES2   0.0000
   173 N14     16.7677   9.0487   7.8470   N.pl3     2 RES2   0.0000
   174 H78     15.9090   9.0760   7.6609   H         2 RES2   0.0000
   175 C78     17.3267   9.4037   9.1026   C.2       2 RES2   0.0000
   176 H79     16.8876   9.6995   9.8911   H         2 RES2   0.0000
@<TRIPOS>BOND
     1     1     2    1
     2     2    12    1
     3     3     1    1
     4     4     3    1
     5     5     1    1
     6     6     1    1
     7     7     1    1
     8     8     6    1
     9     9     8    1
    10    10     9    1
    11    11     6    2
    12    12    15    1
    13    13     5    1
    14    14    27   ar
    15    15    16    1
    16    17    18    1
    17    19    13    2
    18    20    19    1
    19    21     5    1
    20    22    23    1
    21    24     9    2
    22    25    24    1
    23    26    30    2
    24    27    28    1
    25    28    29    1
    26    30    28   am
    27    31    32    1
    28    33    31   ar
    29    34     4    2
    30    35     2    2
    31    36    40    1
    32    37    38    1
    33    38    39    1
    34    40    41    1
    35    42     7    2
    36    43    42    1
    37    44    45    1
    38    45    12    2
    39    46    33   ar
    40    47    46    1
    41    48    47    1
    42    49    44   ar
    43    50    49    1
    44    51    50    1
    45    52    47   am
    46    53    52    2
    47    54    52    1
    48    55    27   ar
    49    56    55    1
    50    57    58    1
    51    59    55   ar
    52    60    59    1
    53    61    54   ar
    54    62    61    1
    55    63    54   ar
    56    64    63    1
    57    65    66   ar
    58    66    67    1
    59    68    65   ar
    60    69    68    1
    61    70    69    1
    62    71    15    2
    63    72    71    1
    64    73    74    1
    65    75     3    1
    66    76    35    1
    67    77    46   ar
    68    78    77    1
    69    79    31   ar
    70    80    79    1
    71    81    49   ar
    72    82    81    1
    73    83    81   ar
    74    84    83    1
    75    85     4    1
    76    86    85    1
    77    87    37    1
    78    88    87    1
    79    89    87    1
    80    90    87    1
    81    91    30    1
    82    92    63   ar
    83    93    92    1
    84    94    22    2
    85    95    94    1
    86    96     7    1
    87    97    96    1
    88    98    50   am
    89    99    98    2
    90   100    77   ar
    91   101   100    1
    92   102    83   ar
    93   103   102    1
    94   104    44   ar
    95   105   104    1
    96   106    14   ar
    97   107   106    1
    98   108    61   ar
    99   109   108    1
   100   110   111    1
   101   112   110    1
   102   113   110    1
   103   114    98    1
   104   115   114    1
   105   116   115    1
   106   117   115    1
   107   118   115    1
   108   119    92   ar
   109   120   119    1
   110   121    69   am
   111   122   121    1
   112   123   122    1
   113   124   123    1
   114   125   123    1
   115   126   123    1
   116   127   122    1
   117   128   127    1
   118   129   127    1
   119   130   127    1
   120   131   121    2
   121   132    91    1
   122   133   132    1
   123   134   132    1
   124   135   132    1
   125   136    68   ar
   126   137   136    1
   127   138   136   ar
   128   139   138    1
   129   140    66   ar
   130   141   140    1
   131   142     8    2
   132   143    91    1
   133   144   143    1
   134   145   143    1
   135   146   143    1
   136   147    91    1
   137   148   147    1
   138   149   147    1
   139   150   147    1
   140   151   114    1
   141   152   151    1
   142   153   151    1
   143   154   151    1
   144   155   122    1
   145   156   155    1
   146   157   155    1
   147   158   155    1
   148   159    36    1
   149   160   159    1
   150   161   159    1
   151   162   159    1
   152   163     1    1
   153    11    24    1
   154    11    34    1
   155    13   142    1
   156    14   142    1
   157    17    19    1
   158    17    21    2
   159    21    45    1
   160    22   163    1
   161    33    34    1
   162    35    71    1
   163    36    94    1
   164    37    42    1
   165    38    96    2
   166    40   163    2
   167    57    59   ar
   168    57   106   ar
   169    65    76    1
   170    73    75    1
   171    73    85    2
   172    75    76    2
   173    79   100   ar
   174   102   104   ar
   175   108   119   ar
   176   110   114    1
   177   138   140   ar
   178   164   167    1
   179   165   166    1
   180   167   165    2
   181   168   167    1
   182   169   164    1
   183   170   169    1
   184   171   169    1
   185   172   169    1
   186   173   165    1
   187   174   173    1
   188   175   164    2
   189   176   175    1
   190   173   175    1
@<TRIPOS>SUBSTRUCTURE
     1 RES1        1 GROUP             0 ****  ****    0  
     2 RES2      164 GROUP             0 ****  ****    0  
@<TRIPOS>CRYSIN
   22.6252   15.1697   20.6703   90.0000  101.9960   90.0000    14     1
