@<TRIPOS>MOLECULE
HUMBEX
    78    79     6     0     0
SMALL
USER_CHARGES
****
Generated from the CSD

@<TRIPOS>ATOM
     1 Fe1      8.5323   6.2025   8.0457   Fe        1 RES1   2.0000
     2 N1      12.5302   6.5610  10.5085   N.4       1 RES1   1.0000
     3 H1      12.7539   5.7795  10.8696   H         1 RES1   0.0000
     4 H2      12.4299   7.1676  11.1512   H         1 RES1   0.0000
     5 H3      13.1729   6.8240   9.9506   H         1 RES1   0.0000
     6 C1      11.2302   6.4121   9.7469   C.3       1 RES1   0.0000
     7 C2      11.5572   5.5574   8.5138   C.3       1 RES1   0.0000
     8 H4      12.4422   5.7857   8.1912   H         1 RES1   0.0000
     9 H5      11.5643   4.6209   8.7679   H         1 RES1   0.0000
    10 N2      10.5678   5.7584   7.4150   N.3       1 RES1   0.0000
    11 H6      10.8558   6.4655   6.9204   H         1 RES1   0.0000
    12 C3      10.4813   4.5948   6.5028   C.3       1 RES1   0.0000
    13 H7      10.3613   3.7823   7.0196   H         1 RES1   0.0000
    14 H8      11.3059   4.5129   5.9987   H         1 RES1   0.0000
    15 C4       9.3204   4.7710   5.5563   C.3       1 RES1   0.0000
    16 H9       9.4490   5.5711   5.0232   H         1 RES1   0.0000
    17 H10      9.2681   4.0118   4.9556   H         1 RES1   0.0000
    18 N3       8.0722   4.8826   6.3325   N.3       1 RES1   0.0000
    19 H11      7.8748   4.0577   6.6619   H         1 RES1   0.0000
    20 C5       6.9277   5.3242   5.5067   C.3       1 RES1   0.0000
    21 H12      6.5292   4.5514   5.0780   H         1 RES1   0.0000
    22 H13      7.2495   5.9172   4.8110   H         1 RES1   0.0000
    23 C6      10.7986   7.8424   9.4209   C.3       1 RES1   0.0000
    24 H14     10.9589   8.4031  10.1962   H         1 RES1   0.0000
    25 H15     11.3478   8.1786   8.6952   H         1 RES1   0.0000
    26 N4       9.3967   7.9504   9.0409   N.3       1 RES1   0.0000
    27 H16      8.9274   8.0707   9.8111   H         1 RES1   0.0000
    28 C7       9.1206   9.1363   8.1860   C.3       1 RES1   0.0000
    29 H17      9.7510   9.1611   7.4492   H         1 RES1   0.0000
    30 H18      9.2317   9.9476   8.7072   H         1 RES1   0.0000
    31 C8       7.7256   9.0681   7.6529   C.3       1 RES1   0.0000
    32 H19      7.0905   9.1015   8.3854   H         1 RES1   0.0000
    33 H20      7.5581   9.8248   7.0701   H         1 RES1   0.0000
    34 N5       7.5551   7.8065   6.8990   N.3       1 RES1   0.0000
    35 H21      8.0188   7.8983   6.1211   H         1 RES1   0.0000
    36 C9       6.1508   7.5460   6.5353   C.3       1 RES1   0.0000
    37 H22      5.9427   8.0223   5.7172   H         1 RES1   0.0000
    38 H23      5.5737   7.8908   7.2353   H         1 RES1   0.0000
    39 C10     10.2289   5.6865  10.6754   C.3       1 RES1   0.0000
    40 H24     10.6934   4.9918  11.1691   H         1 RES1   0.0000
    41 H25      9.8663   6.3179  11.3155   H         1 RES1   0.0000
    42 N6       9.1074   5.0736   9.8915   N.3       1 RES1   0.0000
    43 H26      9.3663   4.2388   9.6391   H         1 RES1   0.0000
    44 C11      7.8692   4.9508  10.6480   C.3       1 RES1   0.0000
    45 H27      7.6735   5.7882  11.0964   H         1 RES1   0.0000
    46 H28      7.9647   4.2611  11.3232   H         1 RES1   0.0000
    47 C12      6.7253   4.5923   9.7067   C.3       1 RES1   0.0000
    48 H29      6.9316   3.7724   9.2317   H         1 RES1   0.0000
    49 H30      5.9104   4.4534  10.2141   H         1 RES1   0.0000
    50 N7       6.5349   5.7013   8.7414   N.3       1 RES1   0.0000
    51 H31      6.2028   6.4171   9.1932   H         1 RES1   0.0000
    52 C13      5.5607   5.3329   7.6734   C.3       1 RES1   0.0000
    53 H32      4.6652   5.5612   7.9678   H         1 RES1   0.0000
    54 H33      5.5915   4.3728   7.5322   H         1 RES1   0.0000
    55 C14      5.8529   6.0512   6.3333   C.3       1 RES1   0.0000
    56 N8       4.5845   6.0003   5.5452   N.4       1 RES1   1.0000
    57 H34      3.9833   6.5424   5.9157   H         1 RES1   0.0000
    58 H35      4.2703   5.1679   5.5426   H         1 RES1   0.0000
    59 H36      4.7440   6.2596   4.7091   H         1 RES1   0.0000
    60 N9       8.9106   1.3757   9.2326   N.pl3     2 RES2   0.0000
    61 O1       8.7941   0.2034   8.8244   O.3       2 RES2  -1.0000
    62 O2       8.2740   1.7541  10.2372   O.2       2 RES2   0.0000
    63 O3       9.6116   2.1746   8.6011   O.2       2 RES2   0.0000
    64 N10     12.2770   7.7854   5.0617   N.pl3     3 RES3   0.0000
    65 O4      11.6987   8.2543   6.0467   O.3       3 RES3  -1.0000
    66 O5      12.5365   6.6044   5.0497   O.2       3 RES3   0.0000
    67 O6      12.5957   8.4776   4.0887   O.2       3 RES3   0.0000
    68 N11      4.3612   7.6266  10.9749   N.pl3     4 RES4   0.0000
    69 O7       4.7592   8.1265   9.9121   O.3       4 RES4  -1.0000
    70 O8       4.8628   6.5424  11.3617   O.2       4 RES4   0.0000
    71 O9       3.5236   8.1240  11.6655   O.2       4 RES4   0.0000
    72 N12      7.6123   8.9626  12.1036   N.pl3     5 RES5   0.0000
    73 O10      8.1933   7.9144  12.4339   O.3       5 RES5  -1.0000
    74 O11      7.9249   9.5692  11.0767   O.2       5 RES5   0.0000
    75 O12      6.8262   9.4836  12.8550   O.2       5 RES5   0.0000
    76 O13     10.2693  10.5554   5.1884   O.3       6 RES6   0.0000
    77 H37     10.7408   9.9451   5.5452   H         6 RES6   0.0000
    78 H38     10.3650  10.5678   4.3437   H         6 RES6   0.0000
@<TRIPOS>BOND
     1     1    10    1
     2     2     3    1
     3     4     2    1
     4     5     2    1
     5     6     2    1
     6     7     6    1
     7     8     7    1
     8     9     7    1
     9    10     7    1
    10    11    10    1
    11    12    10    1
    12    13    12    1
    13    14    12    1
    14    15    12    1
    15    16    15    1
    16    17    15    1
    17    18     1    1
    18    19    18    1
    19    20    18    1
    20    21    20    1
    21    22    20    1
    22    23     6    1
    23    24    23    1
    24    25    23    1
    25    26     1    1
    26    27    26    1
    27    28    26    1
    28    29    28    1
    29    30    28    1
    30    31    28    1
    31    32    31    1
    32    33    31    1
    33    34     1    1
    34    35    34    1
    35    36    34    1
    36    37    36    1
    37    38    36    1
    38    39     6    1
    39    40    39    1
    40    41    39    1
    41    42     1    1
    42    43    42    1
    43    44    42    1
    44    45    44    1
    45    46    44    1
    46    47    44    1
    47    48    47    1
    48    49    47    1
    49    50     1    1
    50    51    50    1
    51    52    50    1
    52    53    52    1
    53    54    52    1
    54    55    20    1
    55    56    55    1
    56    57    56    1
    57    58    56    1
    58    59    56    1
    59    15    18    1
    60    23    26    1
    61    31    34    1
    62    36    55    1
    63    39    42    1
    64    47    50    1
    65    52    55    1
    66    60    61    1
    67    62    60    2
    68    63    60    2
    69    64    65    1
    70    66    64    2
    71    67    64    2
    72    68    69    1
    73    70    68    2
    74    71    68    2
    75    72    73    1
    76    74    72    2
    77    75    72    2
    78    76    77    1
    79    78    76    1
@<TRIPOS>SUBSTRUCTURE
     1 RES1        1 GROUP             0 ****  ****    0  
     2 RES2       60 GROUP             0 ****  ****    0  
     3 RES3       64 GROUP             0 ****  ****    0  
     4 RES4       68 GROUP             0 ****  ****    0  
     5 RES5       72 GROUP             0 ****  ****    0  
     6 RES6       76 GROUP             0 ****  ****    0  
@<TRIPOS>CRYSIN
   12.3770   12.4050    8.5780   90.0000   93.9700   90.0000     4     1
