@<TRIPOS>MOLECULE
HUNBAV
    81    85     6     0     0
SMALL
USER_CHARGES
****
Generated from the CSD

@<TRIPOS>ATOM
     1 Fe1      3.8298   7.0117  11.4418   Fe        1 RES1   2.0000
     2 N1       3.7535   5.6332  12.7975   N.ar      1 RES1   0.0000
     3 C1       4.5828   5.6828  13.8673   C.ar      1 RES1   0.0000
     4 C2       4.5035   4.7415  14.8783   C.ar      1 RES1   0.0000
     5 H1       5.0823   4.7891  15.6301   H         1 RES1   0.0000
     6 C3       3.5630   3.7261  14.7736   C.ar      1 RES1   0.0000
     7 H2       3.4994   3.0681  15.4566   H         1 RES1   0.0000
     8 C4       2.7102   3.6660  13.6695   C.ar      1 RES1   0.0000
     9 H3       2.0555   2.9817  13.5937   H         1 RES1   0.0000
    10 C5       2.8471   4.6381  12.6862   C.ar      1 RES1   0.0000
    11 C6       5.4817   6.8268  13.7567   C.2       1 RES1   0.0000
    12 N2       5.2674   7.6033  12.6753   N.2       1 RES1   0.0000
    13 N3       6.1905   8.5824  12.7359   N.pl3     1 RES1   0.0000
    14 H4       6.2666   9.2351  12.1502   H         1 RES1   0.0000
    15 C7       6.9851   8.4261  13.8198   C.2       1 RES1   0.0000
    16 H5       7.7088   8.9911  14.0630   H         1 RES1   0.0000
    17 C8       6.5682   7.3128  14.5066   C.2       1 RES1   0.0000
    18 H6       6.9307   6.9521  15.3067   H         1 RES1   0.0000
    19 C9       2.0793   4.7721  11.4537   C.2       1 RES1   0.0000
    20 N4       2.3838   5.8599  10.7143   N.2       1 RES1   0.0000
    21 N5       1.5926   5.7733   9.6202   N.pl3     1 RES1   0.0000
    22 H7       1.5872   6.3594   8.9647   H         1 RES1   0.0000
    23 C10      0.8161   4.6779   9.6624   C.2       1 RES1   0.0000
    24 H8       0.1838   4.4167   9.0029   H         1 RES1   0.0000
    25 C11      1.0954   3.9995  10.8243   C.2       1 RES1   0.0000
    26 H9       0.7075   3.1881  11.1313   H         1 RES1   0.0000
    27 N6       3.9058   8.4234  10.1185   N.ar      1 RES1   0.0000
    28 C12      3.1905   9.5507  10.2982   C.ar      1 RES1   0.0000
    29 C13      3.2698  10.5989   9.3963   C.ar      1 RES1   0.0000
    30 H10      2.7553  11.3870   9.5248   H         1 RES1   0.0000
    31 C14      4.1198  10.4749   8.2954   C.ar      1 RES1   0.0000
    32 H11      4.1879  11.1820   7.6645   H         1 RES1   0.0000
    33 C15      4.8625   9.3185   8.1268   C.ar      1 RES1   0.0000
    34 H12      5.4546   9.2281   7.3898   H         1 RES1   0.0000
    35 C16      4.7262   8.2947   9.0531   C.ar      1 RES1   0.0000
    36 C17      2.4011   9.4740  11.5227   C.2       1 RES1   0.0000
    37 N7       2.5427   8.3082  12.1966   N.2       1 RES1   0.0000
    38 N8       1.7399   8.4127  13.2761   N.pl3     1 RES1   0.0000
    39 H13      1.6339   7.7847  13.8842   H         1 RES1   0.0000
    40 C18      1.1202   9.6132  13.2966   C.2       1 RES1   0.0000
    41 H14      0.5133   9.9129  13.9618   H         1 RES1   0.0000
    42 C19      1.5151  10.3256  12.1951   C.2       1 RES1   0.0000
    43 H15      1.2485  11.2015  11.9438   H         1 RES1   0.0000
    44 C20      5.4325   7.0188   9.0927   C.2       1 RES1   0.0000
    45 N9       5.1554   6.2686  10.1757   N.2       1 RES1   0.0000
    46 N10      5.9118   5.1591  10.0438   N.pl3     1 RES1   0.0000
    47 H16      5.9311   4.4990  10.6252   H         1 RES1   0.0000
    48 C21      6.6347   5.1932   8.9023   C.2       1 RES1   0.0000
    49 H17      7.2298   4.5185   8.5979   H         1 RES1   0.0000
    50 C22      6.3582   6.3769   8.2589   C.2       1 RES1   0.0000
    51 H18      6.7140   6.6885   7.4358   H         1 RES1   0.0000
    52 B1       7.2368   2.2858  11.6151   B         2 RES2  -1.0000
    53 F1       6.8511   1.0288  11.2557   F         2 RES2   0.0000
    54 F2       6.1037   3.0716  11.8964   F         2 RES2   0.0000
    55 F3       8.0609   2.2590  12.7071   F         2 RES2   0.0000
    56 F4       7.8957   2.8945  10.5387   F         2 RES2   0.0000
    57 Si1     -0.2206   6.9731   6.5733   Si        3 RES3  -2.0000
    58 F5      -0.9614   6.3675   7.9695   F         3 RES3   0.0000
    59 F6       0.4470   5.4674   6.2946   F         3 RES3   0.0000
    60 F7       1.1444   7.3984   7.4886   F         3 RES3   0.0000
    61 F5B      0.5203   7.5786   5.1772   F         3 RES3   0.0000
    62 F6B     -0.8881   8.4787   6.8521   F         3 RES3   0.0000
    63 F7B     -1.5856   6.5477   5.6581   F         3 RES3   0.0000
    64 C23      0.1861   6.0456  15.3054   C.3       4 RES4   0.0000
    65 H19     -0.0845   6.1195  16.2441   H         4 RES4   0.0000
    66 H20      0.1597   5.1057  15.0306   H         4 RES4   0.0000
    67 H21     -0.4293   6.5658  14.7467   H         4 RES4   0.0000
    68 O1       1.5034   6.5470  15.1513   O.3       4 RES4   0.0000
    69 H22      1.8493   6.7639  15.9325   H         4 RES4   0.0000
    70 C24     -4.2279   7.7178   8.0024   C.3       5 RES5   0.0000
    71 H23     -5.1501   7.6815   8.3324   H         5 RES5   0.0000
    72 H24     -4.2095   7.4584   7.0585   H         5 RES5   0.0000
    73 H25     -3.8813   8.6298   8.0984   H         5 RES5   0.0000
    74 O2      -3.4210   6.8235   8.7556   O.3       5 RES5   0.0000
    75 H26     -2.6196   6.7360   8.3744   H         5 RES5   0.0000
    76 C25      5.8192  11.9271  11.0511   C.3       6 RES6   0.0000
    77 H27      4.9930  11.9616  11.5770   H         6 RES6   0.0000
    78 H28      5.6623  12.3256  10.1703   H         6 RES6   0.0000
    79 H29      6.5233  12.4260  11.5152   H         6 RES6   0.0000
    80 O3       6.2287  10.5571  10.8915   O.3       6 RES6   0.0000
    81 H30      6.7701  10.4568  10.2229   H         6 RES6   0.0000
@<TRIPOS>BOND
     1     1     2    1
     2     2     3   ar
     3     3     4   ar
     4     4     5    1
     5     6     4   ar
     6     7     6    1
     7     8     6   ar
     8     9     8    1
     9    10     2   ar
    10    11     3    1
    11    12     1    1
    12    13    12    1
    13    14    13    1
    14    15    13    1
    15    16    15    1
    16    17    11    1
    17    18    17    1
    18    19    10    1
    19    20     1    1
    20    21    20    1
    21    22    21    1
    22    23    21    1
    23    24    23    1
    24    25    19    1
    25    26    25    1
    26    27     1    1
    27    28    27   ar
    28    29    28   ar
    29    30    29    1
    30    31    29   ar
    31    32    31    1
    32    33    31   ar
    33    34    33    1
    34    35    27   ar
    35    36    28    1
    36    37     1    1
    37    38    37    1
    38    39    38    1
    39    40    38    1
    40    41    40    1
    41    42    36    1
    42    43    42    1
    43    44    35    1
    44    45     1    1
    45    46    45    1
    46    47    46    1
    47    48    46    1
    48    49    48    1
    49    50    44    1
    50    51    50    1
    51     8    10   ar
    52    11    12    2
    53    15    17    2
    54    19    20    2
    55    23    25    2
    56    33    35   ar
    57    36    37    2
    58    40    42    2
    59    44    45    2
    60    48    50    2
    61    52    53    1
    62    54    52    1
    63    55    52    1
    64    56    52    1
    65    57    58    1
    66    59    57    1
    67    60    57    1
    68    61    57    1
    69    62    57    1
    70    63    57    1
    71    64    65    1
    72    66    64    1
    73    67    64    1
    74    68    64    1
    75    69    68    1
    76    70    71    1
    77    72    70    1
    78    73    70    1
    79    74    70    1
    80    75    74    1
    81    76    77    1
    82    78    76    1
    83    79    76    1
    84    80    76    1
    85    81    80    1
@<TRIPOS>SUBSTRUCTURE
     1 RES1        1 GROUP             0 ****  ****    0  
     2 RES2       52 GROUP             0 ****  ****    0  
     3 RES3       57 GROUP             0 ****  ****    0  
     4 RES4       64 GROUP             0 ****  ****    0  
     5 RES5       70 GROUP             0 ****  ****    0  
     6 RES6       76 GROUP             0 ****  ****    0  
@<TRIPOS>CRYSIN
   16.8120   13.9461   13.1541   90.0000   91.9220   90.0000    14     1
