@<TRIPOS>MOLECULE
HUNCAW
   146   158     6     0     0
SMALL
USER_CHARGES
****
Generated from the CSD

@<TRIPOS>ATOM
     1 Fe1      4.3497   3.3141   3.8900   Fe        1 RES1   2.0000
     2 N1       4.3903   1.9705   5.2442   N.ar      1 RES1   0.0000
     3 C1       5.1456   0.8591   5.0635   C.ar      1 RES1   0.0000
     4 C2       5.1826  -0.1443   6.0252   C.ar      1 RES1   0.0000
     5 H1       5.7087  -0.9245   5.8916   H         1 RES1   0.0000
     6 C3       4.4348   0.0179   7.1841   C.ar      1 RES1   0.0000
     7 H2       4.4490  -0.6563   7.8543   H         1 RES1   0.0000
     8 C4       3.6666   1.1590   7.3696   C.ar      1 RES1   0.0000
     9 H3       3.1545   1.2748   8.1602   H         1 RES1   0.0000
    10 C5       3.6624   2.1286   6.3752   C.ar      1 RES1   0.0000
    11 C6       5.7928   0.9382   3.7565   C.2       1 RES1   0.0000
    12 N2       5.5586   2.0299   3.0172   N.2       1 RES1   0.0000
    13 C7       6.2245   1.8337   1.8116   C.ar      1 RES1   0.0000
    14 C8       6.3552   2.6546   0.6862   C.ar      1 RES1   0.0000
    15 H4       5.9425   3.5096   0.6498   H         1 RES1   0.0000
    16 C9       7.1055   2.1753  -0.3682   C.ar      1 RES1   0.0000
    17 H5       7.2145   2.7152  -1.1426   H         1 RES1   0.0000
    18 C10      7.7149   0.9030  -0.3239   C.ar      1 RES1   0.0000
    19 H6       8.2165   0.6018  -1.0731   H         1 RES1   0.0000
    20 C11      7.5983   0.0875   0.7836   C.ar      1 RES1   0.0000
    21 H7       8.0077  -0.7683   0.8168   H         1 RES1   0.0000
    22 C12      6.8525   0.5798   1.8488   C.ar      1 RES1   0.0000
    23 N3       6.5682   0.0365   3.1002   N.pl3     1 RES1   0.0000
    24 C13      7.1397  -1.1840   3.6252   C.ar      1 RES1   0.0000
    25 C14      8.1590  -1.0993   4.5619   C.ar      1 RES1   0.0000
    26 H8       8.4735  -0.2529   4.8564   H         1 RES1   0.0000
    27 C15      8.7106  -2.2672   5.0636   C.ar      1 RES1   0.0000
    28 H9       9.4014  -2.2259   5.7146   H         1 RES1   0.0000
    29 C16      8.2535  -3.4956   4.6139   C.ar      1 RES1   0.0000
    30 H10      8.6336  -4.2950   4.9590   H         1 RES1   0.0000
    31 C17      7.2475  -3.5677   3.6656   C.ar      1 RES1   0.0000
    32 H11      6.9425  -4.4145   3.3600   H         1 RES1   0.0000
    33 C18      6.6814  -2.3997   3.1592   C.ar      1 RES1   0.0000
    34 H12      5.9936  -2.4392   2.5051   H         1 RES1   0.0000
    35 C19      2.9700   3.4157   6.3147   C.2       1 RES1   0.0000
    36 N4       3.1355   4.1489   5.2058   N.2       1 RES1   0.0000
    37 C20      2.4249   5.3262   5.4134   C.ar      1 RES1   0.0000
    38 C21      2.2319   6.4455   4.5905   C.ar      1 RES1   0.0000
    39 H13      2.6067   6.4881   3.7188   H         1 RES1   0.0000
    40 C22      1.4772   7.4809   5.0969   C.ar      1 RES1   0.0000
    41 H14      1.3205   8.2457   4.5555   H         1 RES1   0.0000
    42 C23      0.9307   7.4396   6.3951   C.ar      1 RES1   0.0000
    43 H15      0.4326   8.1829   6.7134   H         1 RES1   0.0000
    44 C24      1.1043   6.3377   7.2154   C.ar      1 RES1   0.0000
    45 H16      0.7356   6.3026   8.0908   H         1 RES1   0.0000
    46 C25      1.8481   5.2823   6.6894   C.ar      1 RES1   0.0000
    47 N5       2.1961   4.0475   7.2417   N.pl3     1 RES1   0.0000
    48 C26      1.7601   3.5499   8.5202   C.ar      1 RES1   0.0000
    49 C27      0.7060   2.6445   8.5690   C.ar      1 RES1   0.0000
    50 H17      0.2656   2.3751   7.7716   H         1 RES1   0.0000
    51 C28      0.3063   2.1391   9.7959   C.ar      1 RES1   0.0000
    52 H18     -0.4098   1.5160   9.8419   H         1 RES1   0.0000
    53 C29      0.9473   2.5387  10.9535   C.ar      1 RES1   0.0000
    54 H19      0.6763   2.1841  11.7914   H         1 RES1   0.0000
    55 C30      1.9827   3.4526  10.8958   C.ar      1 RES1   0.0000
    56 H20      2.4145   3.7308  11.6955   H         1 RES1   0.0000
    57 C31      2.3916   3.9663   9.6720   C.ar      1 RES1   0.0000
    58 H21      3.0998   4.5984   9.6302   H         1 RES1   0.0000
    59 N6       4.2909   4.6758   2.5650   N.ar      1 RES1   0.0000
    60 C32      5.2053   5.6837   2.5975   C.ar      1 RES1   0.0000
    61 C33      5.0956   6.7736   1.7456   C.ar      1 RES1   0.0000
    62 H22      5.7199   7.4887   1.7875   H         1 RES1   0.0000
    63 C34      4.0509   6.7951   0.8289   C.ar      1 RES1   0.0000
    64 H23      3.9548   7.5383   0.2447   H         1 RES1   0.0000
    65 C35      3.1475   5.7456   0.7563   C.ar      1 RES1   0.0000
    66 H24      2.4507   5.7467   0.1108   H         1 RES1   0.0000
    67 C36      3.2878   4.6887   1.6539   C.ar      1 RES1   0.0000
    68 C37      6.1565   5.4191   3.6806   C.2       1 RES1   0.0000
    69 N7       5.8659   4.4096   4.5008   N.2       1 RES1   0.0000
    70 C38      6.8571   4.3925   5.4780   C.ar      1 RES1   0.0000
    71 C39      7.0520   3.5381   6.5725   C.ar      1 RES1   0.0000
    72 H25      6.4352   2.8441   6.7729   H         1 RES1   0.0000
    73 C40      8.1785   3.7470   7.3475   C.ar      1 RES1   0.0000
    74 H26      8.3329   3.1919   8.1023   H         1 RES1   0.0000
    75 C41      9.1012   4.7646   7.0416   C.ar      1 RES1   0.0000
    76 H27      9.8707   4.8687   7.5881   H         1 RES1   0.0000
    77 C42      8.9220   5.6202   5.9671   C.ar      1 RES1   0.0000
    78 H28      9.5475   6.3063   5.7642   H         1 RES1   0.0000
    79 C43      7.7764   5.4220   5.1995   C.ar      1 RES1   0.0000
    80 N8       7.3142   6.0597   4.0439   N.pl3     1 RES1   0.0000
    81 C44      8.1089   6.9800   3.2679   C.ar      1 RES1   0.0000
    82 C45      8.3676   6.6908   1.9315   C.ar      1 RES1   0.0000
    83 H29      7.9940   5.9190   1.5229   H         1 RES1   0.0000
    84 C46      9.1833   7.5513   1.2033   C.ar      1 RES1   0.0000
    85 H30      9.3501   7.3787   0.2844   H         1 RES1   0.0000
    86 C47      9.7520   8.6560   1.8111   C.ar      1 RES1   0.0000
    87 H31     10.3167   9.2353   1.3113   H         1 RES1   0.0000
    88 C48      9.5001   8.9183   3.1460   C.ar      1 RES1   0.0000
    89 H32      9.9010   9.6719   3.5617   H         1 RES1   0.0000
    90 C49      8.6641   8.0892   3.8850   C.ar      1 RES1   0.0000
    91 H33      8.4773   8.2796   4.7969   H         1 RES1   0.0000
    92 C50      2.4751   3.4834   1.8410   C.2       1 RES1   0.0000
    93 N9       2.8436   2.6556   2.8204   N.2       1 RES1   0.0000
    94 C51      1.9665   1.5799   2.7812   C.ar      1 RES1   0.0000
    95 C52      1.9100   0.4073   3.5382   C.ar      1 RES1   0.0000
    96 H34      2.5365   0.2355   4.2314   H         1 RES1   0.0000
    97 C53      0.9040  -0.4940   3.2353   C.ar      1 RES1   0.0000
    98 H35      0.8509  -1.3083   3.7205   H         1 RES1   0.0000
    99 C54     -0.0393  -0.2340   2.2285   C.ar      1 RES1   0.0000
   100 H36     -0.7259  -0.8696   2.0669   H         1 RES1   0.0000
   101 C55     -0.0015   0.9194   1.4621   C.ar      1 RES1   0.0000
   102 H37     -0.6414   1.0941   0.7821   H         1 RES1   0.0000
   103 C56      1.0343   1.8061   1.7521   C.ar      1 RES1   0.0000
   104 N10      1.3844   3.0239   1.1583   N.pl3     1 RES1   0.0000
   105 C57      0.6456   3.6052   0.0559   C.ar      1 RES1   0.0000
   106 C58      1.1707   3.5720  -1.2251   C.ar      1 RES1   0.0000
   107 H38      2.0473   3.2409  -1.3807   H         1 RES1   0.0000
   108 C59      0.3881   4.0332  -2.2835   C.ar      1 RES1   0.0000
   109 H39      0.7307   4.0181  -3.1698   H         1 RES1   0.0000
   110 C60     -0.8869   4.5117  -2.0424   C.ar      1 RES1   0.0000
   111 H40     -1.4165   4.8215  -2.7680   H         1 RES1   0.0000
   112 C61     -1.3954   4.5445  -0.7656   C.ar      1 RES1   0.0000
   113 H41     -2.2720   4.8773  -0.6102   H         1 RES1   0.0000
   114 C62     -0.6248   4.0888   0.3001   C.ar      1 RES1   0.0000
   115 H42     -0.9684   4.1097   1.1856   H         1 RES1   0.0000
   116 B1       4.3067  10.2430   2.0557   B         2 RES2  -1.0000
   117 F1       5.6054   9.8071   2.3161   F         2 RES2   0.0000
   118 F2       4.0677  10.1810   0.6865   F         2 RES2   0.0000
   119 F3       4.1559  11.5542   2.4950   F         2 RES2   0.0000
   120 F4       3.3875   9.4347   2.7161   F         2 RES2   0.0000
   121 B2      -0.7215  11.1429   6.9118   B         3 RES3  -1.0000
   122 F5       0.4242  10.6458   7.5024   F         3 RES3   0.0000
   123 F6      -0.4128  12.2366   6.1100   F         3 RES3   0.0000
   124 F7      -1.3200  10.1493   6.1480   F         3 RES3   0.0000
   125 F8      -1.6248  11.5477   7.8814   F         3 RES3   0.0000
   126 C63      4.3193   0.3126  11.2260   C.3       4 RES4   0.0000
   127 H43      4.0536   0.9041  11.9617   H         4 RES4   0.0000
   128 H44      4.2636   0.8003  10.3776   H         4 RES4   0.0000
   129 H45      5.2392   0.0069  11.3681   H         4 RES4   0.0000
   130 N11      3.4205  -0.8477  11.1830   N.pl3     4 RES4   0.0000
   131 O1       3.5669  -1.7355  12.0174   O.2       4 RES4   0.0000
   132 O2       2.5522  -0.8573  10.3153   O.2       4 RES4   0.0000
   133 C64     -0.0029  -1.5037   8.3760   C.3       5 RES5   0.0000
   134 H46     -0.1871  -2.4651   8.3322   H         5 RES5   0.0000
   135 H47     -0.8473  -1.0066   8.3586   H         5 RES5   0.0000
   136 H48      0.4791  -1.3000   9.2052   H         5 RES5   0.0000
   137 N12      0.8240  -1.1095   7.2182   N.pl3     5 RES5   0.0000
   138 O3       1.8635  -1.7195   7.0148   O.2       5 RES5   0.0000
   139 O4       0.4448  -0.1744   6.5282   O.2       5 RES5   0.0000
   140 C65     -0.7790   2.2094   4.9366   C.3       6 RES6   0.0000
   141 H49     -1.4721   2.1361   5.6253   H         6 RES6   0.0000
   142 H50      0.0624   2.4977   5.3492   H         6 RES6   0.0000
   143 H51     -0.6508   1.3376   4.5075   H         6 RES6   0.0000
   144 N13     -1.1963   3.2036   3.9207   N.pl3     6 RES6   0.0000
   145 O5      -0.4152   4.1074   3.6543   O.2       6 RES6   0.0000
   146 O6      -2.2871   3.0579   3.3937   O.2       6 RES6   0.0000
@<TRIPOS>BOND
     1     1     2    1
     2     2     3   ar
     3     3     4   ar
     4     4     5    1
     5     6     4   ar
     6     7     6    1
     7     8     6   ar
     8     9     8    1
     9    10     2   ar
    10    11     3    1
    11    12     1    1
    12    13    12    1
    13    14    13   ar
    14    15    14    1
    15    16    14   ar
    16    17    16    1
    17    18    16   ar
    18    19    18    1
    19    20    18   ar
    20    21    20    1
    21    22    13   ar
    22    23    11    1
    23    24    23    1
    24    25    24   ar
    25    26    25    1
    26    27    25   ar
    27    28    27    1
    28    29    27   ar
    29    30    29    1
    30    31    29   ar
    31    32    31    1
    32    33    24   ar
    33    34    33    1
    34    35    10    1
    35    36     1    1
    36    37    36    1
    37    38    37   ar
    38    39    38    1
    39    40    38   ar
    40    41    40    1
    41    42    40   ar
    42    43    42    1
    43    44    42   ar
    44    45    44    1
    45    46    37   ar
    46    47    35    1
    47    48    47    1
    48    49    48   ar
    49    50    49    1
    50    51    49   ar
    51    52    51    1
    52    53    51   ar
    53    54    53    1
    54    55    53   ar
    55    56    55    1
    56    57    48   ar
    57    58    57    1
    58    59     1    1
    59    60    59   ar
    60    61    60   ar
    61    62    61    1
    62    63    61   ar
    63    64    63    1
    64    65    63   ar
    65    66    65    1
    66    67    59   ar
    67    68    60    1
    68    69     1    1
    69    70    69    1
    70    71    70   ar
    71    72    71    1
    72    73    71   ar
    73    74    73    1
    74    75    73   ar
    75    76    75    1
    76    77    75   ar
    77    78    77    1
    78    79    70   ar
    79    80    68    1
    80    81    80    1
    81    82    81   ar
    82    83    82    1
    83    84    82   ar
    84    85    84    1
    85    86    84   ar
    86    87    86    1
    87    88    86   ar
    88    89    88    1
    89    90    81   ar
    90    91    90    1
    91    92    67    1
    92    93     1    1
    93    94    93    1
    94    95    94   ar
    95    96    95    1
    96    97    95   ar
    97    98    97    1
    98    99    97   ar
    99   100    99    1
   100   101    99   ar
   101   102   101    1
   102   103    94   ar
   103   104    92    1
   104   105   104    1
   105   106   105   ar
   106   107   106    1
   107   108   106   ar
   108   109   108    1
   109   110   108   ar
   110   111   110    1
   111   112   110   ar
   112   113   112    1
   113   114   105   ar
   114   115   114    1
   115     8    10   ar
   116    11    12    2
   117    20    22   ar
   118    22    23    1
   119    31    33   ar
   120    35    36    2
   121    44    46   ar
   122    46    47    1
   123    55    57   ar
   124    65    67   ar
   125    68    69    2
   126    77    79   ar
   127    79    80    1
   128    88    90   ar
   129    92    93    2
   130   101   103   ar
   131   103   104    1
   132   112   114   ar
   133   116   117    1
   134   118   116    1
   135   119   116    1
   136   120   116    1
   137   121   122    1
   138   123   121    1
   139   124   121    1
   140   125   121    1
   141   126   127    1
   142   128   126    1
   143   129   126    1
   144   130   126    1
   145   131   130    2
   146   132   130    2
   147   133   134    1
   148   135   133    1
   149   136   133    1
   150   137   133    1
   151   138   137    2
   152   139   137    2
   153   140   141    1
   154   142   140    1
   155   143   140    1
   156   144   140    1
   157   145   144    2
   158   146   144    2
@<TRIPOS>SUBSTRUCTURE
     1 RES1        1 GROUP             0 ****  ****    0  
     2 RES2      116 GROUP             0 ****  ****    0  
     3 RES3      121 GROUP             0 ****  ****    0  
     4 RES4      126 GROUP             0 ****  ****    0  
     5 RES5      133 GROUP             0 ****  ****    0  
     6 RES6      140 GROUP             0 ****  ****    0  
@<TRIPOS>CRYSIN
   11.1862   16.2482   17.5204  103.7460  103.0120   91.1160     2     1
