@<TRIPOS>MOLECULE
HUNKAE
    77    85     1     0     0
SMALL
NO_CHARGES
****
Generated from the CSD

@<TRIPOS>ATOM
     1 Fe1      4.4458  22.2907  10.2650   Fe        1 RES1   0.0000
     2 S1       6.4273  21.9846  11.4161   S.3       1 RES1   0.0000
     3 S2       5.7109  22.0104   8.3117   S.3       1 RES1   0.0000
     4 P1       2.7283  22.1938   8.8796   P.3       1 RES1   0.0000
     5 P2       4.2693  20.0888  10.3717   P.3       1 RES1   0.0000
     6 O1       3.0705  22.9539  12.7448   O.2       1 RES1   0.0000
     7 O2       5.1604  25.0862   9.7801   O.2       1 RES1   0.0000
     8 C1       3.5808  22.6440  11.7695   C.1       1 RES1   0.0000
     9 C2       4.8592  24.0169   9.9756   C.1       1 RES1   0.0000
    10 C3       6.8380  20.2754  11.2039   C.ar      1 RES1   0.0000
    11 C4       5.9123  19.3992  10.6042   C.ar      1 RES1   0.0000
    12 C5       6.2169  18.0645  10.3666   C.ar      1 RES1   0.0000
    13 H1       5.5772  17.4959   9.9544   H         1 RES1   0.0000
    14 C6       7.4511  17.5673  10.7311   C.ar      1 RES1   0.0000
    15 H2       7.6748  16.6597  10.5567   H         1 RES1   0.0000
    16 C7       8.3612  18.4083  11.3563   C.ar      1 RES1   0.0000
    17 H3       9.2013  18.0534  11.6233   H         1 RES1   0.0000
    18 C8       8.0912  19.7528  11.6084   C.ar      1 RES1   0.0000
    19 C9       9.1380  20.5850  12.2654   C.ar      1 RES1   0.0000
    20 C10      8.8477  21.4871  13.2875   C.ar      1 RES1   0.0000
    21 H4       7.9494  21.5968  13.5786   H         1 RES1   0.0000
    22 C11      9.8560  22.2229  13.8815   C.ar      1 RES1   0.0000
    23 H5       9.6402  22.8500  14.5628   H         1 RES1   0.0000
    24 C12     11.1608  22.0602  13.5008   C.ar      1 RES1   0.0000
    25 H6      11.8488  22.5612  13.9216   H         1 RES1   0.0000
    26 C13     11.4674  21.1669  12.5061   C.ar      1 RES1   0.0000
    27 H7      12.3713  21.0469  12.2397   H         1 RES1   0.0000
    28 C14     10.4609  20.4399  11.8885   C.ar      1 RES1   0.0000
    29 H8      10.6829  19.8314  11.1943   H         1 RES1   0.0000
    30 C15      3.3356  19.3091  11.7290   C.ar      1 RES1   0.0000
    31 C16      3.7171  19.6280  13.0388   C.ar      1 RES1   0.0000
    32 H9       4.4325  20.2357  13.1897   H         1 RES1   0.0000
    33 C17      3.0592  19.0627  14.1102   C.ar      1 RES1   0.0000
    34 H10      3.3173  19.2890  14.9965   H         1 RES1   0.0000
    35 C18      2.0250  18.1705  13.9039   C.ar      1 RES1   0.0000
    36 H11      1.5696  17.7898  14.6453   H         1 RES1   0.0000
    37 C19      1.6567  17.8317  12.6204   C.ar      1 RES1   0.0000
    38 H12      0.9547  17.2072  12.4790   H         1 RES1   0.0000
    39 C20      2.3077  18.3982  11.5349   C.ar      1 RES1   0.0000
    40 H13      2.0477  18.1614  10.6522   H         1 RES1   0.0000
    41 C21      3.4812  19.5132   8.8276   C.3       1 RES1   0.0000
    42 H14      4.1161  19.5778   8.0710   H         1 RES1   0.0000
    43 H15      3.1925  18.5708   8.9184   H         1 RES1   0.0000
    44 C22      2.2721  20.4188   8.5861   C.3       1 RES1   0.0000
    45 H16      1.5359  20.1604   9.1966   H         1 RES1   0.0000
    46 H17      1.9535  20.3060   7.6562   H         1 RES1   0.0000
    47 C23      1.1515  23.0335   9.2363   C.ar      1 RES1   0.0000
    48 C24     -0.0862  22.4416   8.9727   C.ar      1 RES1   0.0000
    49 H18     -0.1243  21.5918   8.5519   H         1 RES1   0.0000
    50 C25     -1.2594  23.0910   9.3227   C.ar      1 RES1   0.0000
    51 H19     -2.0967  22.6792   9.1483   H         1 RES1   0.0000
    52 C26     -1.2148  24.3286   9.9203   C.ar      1 RES1   0.0000
    53 H20     -2.0211  24.7660  10.1689   H         1 RES1   0.0000
    54 C27      0.0041  24.9353  10.1583   C.ar      1 RES1   0.0000
    55 H21      0.0349  25.7982  10.5567   H         1 RES1   0.0000
    56 C28      1.1797  24.2887   9.8177   C.ar      1 RES1   0.0000
    57 H22      2.0141  24.7108   9.9851   H         1 RES1   0.0000
    58 C29      3.3007  22.8339   7.2804   C.ar      1 RES1   0.0000
    59 C30      2.4497  23.4029   6.3338   C.ar      1 RES1   0.0000
    60 H23      1.5224  23.5029   6.5200   H         1 RES1   0.0000
    61 C31      2.9707  23.8193   5.1210   C.ar      1 RES1   0.0000
    62 H24      2.4065  24.2186   4.4692   H         1 RES1   0.0000
    63 C32      4.3150  23.6488   4.8641   C.ar      1 RES1   0.0000
    64 H25      4.6566  23.9273   4.0226   H         1 RES1   0.0000
    65 C33      5.1959  23.0855   5.7910   C.ar      1 RES1   0.0000
    66 C34      4.6754  22.6832   7.0420   C.ar      1 RES1   0.0000
    67 C35      6.6294  22.9519   5.3980   C.ar      1 RES1   0.0000
    68 C36      7.6741  23.4564   6.1747   C.ar      1 RES1   0.0000
    69 H26      7.4846  23.8570   7.0138   H         1 RES1   0.0000
    70 C37      8.9795  23.3763   5.7315   C.ar      1 RES1   0.0000
    71 H27      9.6827  23.7214   6.2690   H         1 RES1   0.0000
    72 C38      9.2674  22.7965   4.5093   C.ar      1 RES1   0.0000
    73 H28     10.1668  22.7420   4.2076   H         1 RES1   0.0000
    74 C39      8.2463  22.2997   3.7314   C.ar      1 RES1   0.0000
    75 H29      8.4414  21.9082   2.8876   H         1 RES1   0.0000
    76 C40      6.9413  22.3683   4.1734   C.ar      1 RES1   0.0000
    77 H30      6.2452  22.0112   3.6336   H         1 RES1   0.0000
@<TRIPOS>BOND
     1     1     2    1
     2     2    10    1
     3     3     1    1
     4     4     1    1
     5     5     1    1
     6     6     8    3
     7     7     9    3
     8     8     1    1
     9     9     1    1
    10    10    11   ar
    11    11     5    1
    12    12    11   ar
    13    13    12    1
    14    14    12   ar
    15    15    14    1
    16    16    14   ar
    17    17    16    1
    18    18    10   ar
    19    19    18    1
    20    20    19   ar
    21    21    20    1
    22    22    20   ar
    23    23    22    1
    24    24    22   ar
    25    25    24    1
    26    26    24   ar
    27    27    26    1
    28    28    19   ar
    29    29    28    1
    30    30     5    1
    31    31    30   ar
    32    32    31    1
    33    33    31   ar
    34    34    33    1
    35    35    33   ar
    36    36    35    1
    37    37    35   ar
    38    38    37    1
    39    39    30   ar
    40    40    39    1
    41    41     5    1
    42    42    41    1
    43    43    41    1
    44    44     4    1
    45    45    44    1
    46    46    44    1
    47    47     4    1
    48    48    47   ar
    49    49    48    1
    50    50    48   ar
    51    51    50    1
    52    52    50   ar
    53    53    52    1
    54    54    52   ar
    55    55    54    1
    56    56    47   ar
    57    57    56    1
    58    58     4    1
    59    59    58   ar
    60    60    59    1
    61    61    59   ar
    62    62    61    1
    63    63    61   ar
    64    64    63    1
    65    65    63   ar
    66    66     3    1
    67    67    65    1
    68    68    67   ar
    69    69    68    1
    70    70    68   ar
    71    71    70    1
    72    72    70   ar
    73    73    72    1
    74    74    72   ar
    75    75    74    1
    76    76    67   ar
    77    77    76    1
    78    16    18   ar
    79    26    28   ar
    80    37    39   ar
    81    41    44    1
    82    54    56   ar
    83    58    66   ar
    84    65    66   ar
    85    74    76   ar
@<TRIPOS>SUBSTRUCTURE
     1 RES1        1 GROUP             0 ****  ****    0  
@<TRIPOS>CRYSIN
   11.1450   25.1126   12.0726   90.0000  102.5100   90.0000   231     1
