@<TRIPOS>MOLECULE
HUNYIZ01
    75    84     1     0     0
SMALL
NO_CHARGES
****
Generated from the CSD

@<TRIPOS>ATOM
     1 Fe1     10.0896  11.7414   7.5735   Fe        1 RES1   0.0000
     2 C1       8.7191  10.1710   9.7288   C.ar      1 RES1   0.0000
     3 H1       8.6539  10.9604  10.2160   H         1 RES1   0.0000
     4 C2       8.2472   9.0183  10.2906   C.ar      1 RES1   0.0000
     5 H2       7.8667   9.0340  11.1389   H         1 RES1   0.0000
     6 C3       8.3367   7.8418   9.5970   C.ar      1 RES1   0.0000
     7 H3       8.0191   7.0496   9.9661   H         1 RES1   0.0000
     8 C4       8.9060   7.8495   8.3382   C.ar      1 RES1   0.0000
     9 H4       8.9781   7.0613   7.8509   H         1 RES1   0.0000
    10 C5       9.3691   9.0478   7.8085   C.ar      1 RES1   0.0000
    11 C6      10.0502   9.1694   6.5301   C.2       1 RES1   0.0000
    12 C7      10.0629   8.0798   5.5293   C.ar      1 RES1   0.0000
    13 C8       8.9104   7.7819   4.8403   C.ar      1 RES1   0.0000
    14 H5       8.1434   8.2831   4.9962   H         1 RES1   0.0000
    15 C9       8.8727   6.7523   3.9209   C.ar      1 RES1   0.0000
    16 H6       8.0833   6.5646   3.4657   H         1 RES1   0.0000
    17 C10      9.9931   6.0115   3.6813   C.ar      1 RES1   0.0000
    18 H7       9.9666   5.3112   3.0691   H         1 RES1   0.0000
    19 C11     11.1428   6.3000   4.3370   C.ar      1 RES1   0.0000
    20 H8      11.9103   5.8041   4.1616   H         1 RES1   0.0000
    21 C12     11.1841   7.3279   5.2657   C.ar      1 RES1   0.0000
    22 H9      11.9778   7.5110   5.7139   H         1 RES1   0.0000
    23 C13     11.6355  11.9636   5.3513   C.2       1 RES1   0.0000
    24 C14     12.5817  12.4761   4.3323   C.ar      1 RES1   0.0000
    25 C15     13.1306  11.6269   3.3963   C.ar      1 RES1   0.0000
    26 H10     12.8591  10.7383   3.3625   H         1 RES1   0.0000
    27 C16     14.0801  12.0865   2.5107   C.ar      1 RES1   0.0000
    28 H11     14.4474  11.5047   1.8848   H         1 RES1   0.0000
    29 C17     14.4901  13.3988   2.5440   C.ar      1 RES1   0.0000
    30 H12     15.1358  13.7023   1.9467   H         1 RES1   0.0000
    31 C18     13.9440  14.2579   3.4634   C.ar      1 RES1   0.0000
    32 H13     14.2117  15.1481   3.4864   H         1 RES1   0.0000
    33 C19     12.9917  13.7956   4.3557   C.ar      1 RES1   0.0000
    34 H14     12.6231  14.3801   4.9779   H         1 RES1   0.0000
    35 C20      8.0833  11.8018   5.3677   C.ar      1 RES1   0.0000
    36 H15      8.5707  11.1233   4.9607   H         1 RES1   0.0000
    37 C21      6.9900  12.3138   4.7050   C.ar      1 RES1   0.0000
    38 H16      6.7347  11.9662   3.8819   H         1 RES1   0.0000
    39 C22      6.2845  13.3434   5.2748   C.ar      1 RES1   0.0000
    40 H17      5.5571  13.7198   4.8346   H         1 RES1   0.0000
    41 C23      6.6719  13.8055   6.5050   C.ar      1 RES1   0.0000
    42 H18      6.2079  14.5082   6.9028   H         1 RES1   0.0000
    43 C24      7.7493  13.2346   7.1613   C.ar      1 RES1   0.0000
    44 C25      8.2739  13.6570   8.4539   C.2       1 RES1   0.0000
    45 C26      7.5630  14.6462   9.3000   C.ar      1 RES1   0.0000
    46 C27      6.2024  14.4995   9.5442   C.ar      1 RES1   0.0000
    47 H19      5.7665  13.7340   9.2484   H         1 RES1   0.0000
    48 C28      5.4854  15.4687  10.2172   C.ar      1 RES1   0.0000
    49 H20      4.5788  15.3491  10.3857   H         1 RES1   0.0000
    50 C29      6.1202  16.6048  10.6333   C.ar      1 RES1   0.0000
    51 H21      5.6316  17.2803  11.0461   H         1 RES1   0.0000
    52 C30      7.4665  16.7562  10.4476   C.ar      1 RES1   0.0000
    53 H22      7.8964  17.5199  10.7595   H         1 RES1   0.0000
    54 C31      8.1883  15.7746   9.7966   C.ar      1 RES1   0.0000
    55 H23      9.1070  15.8738   9.6910   H         1 RES1   0.0000
    56 C32     11.2394  12.6426   9.8522   C.2       1 RES1   0.0000
    57 C33     12.2015  12.8380  10.9680   C.ar      1 RES1   0.0000
    58 C34     11.8312  13.4440  12.1535   C.ar      1 RES1   0.0000
    59 H24     10.9582  13.7428  12.2670   H         1 RES1   0.0000
    60 C35     12.7476  13.6088  13.1682   C.ar      1 RES1   0.0000
    61 H25     12.4860  14.0064  13.9684   H         1 RES1   0.0000
    62 C36     14.0443  13.1888  13.0054   C.ar      1 RES1   0.0000
    63 H26     14.6642  13.3086  13.6886   H         1 RES1   0.0000
    64 C37     14.4175  12.5973  11.8371   C.ar      1 RES1   0.0000
    65 H27     15.2962  12.3143  11.7225   H         1 RES1   0.0000
    66 C38     13.5033  12.4117  10.8214   C.ar      1 RES1   0.0000
    67 H28     13.7660  11.9953  10.0315   H         1 RES1   0.0000
    68 N1       9.2727  10.2166   8.5082   N.ar      1 RES1   0.0000
    69 N2      10.5664  10.3685   6.3888   N.2       1 RES1   0.0000
    70 N3      11.2949  10.6764   5.2535   N.2       1 RES1   0.0000
    71 N4       8.4764  12.2358   6.5709   N.ar      1 RES1   0.0000
    72 N5       9.4240  13.0824   8.7181   N.2       1 RES1   0.0000
    73 N6      10.1142  13.3686   9.8818   N.2       1 RES1   0.0000
    74 O1      11.2349  12.7470   6.2896   O.3       1 RES1   0.0000
    75 O2      11.5423  11.8227   8.9091   O.3       1 RES1   0.0000
@<TRIPOS>BOND
     1     1    68    1
     2     2     3    1
     3     4     2   ar
     4     5     4    1
     5     6     4   ar
     6     7     6    1
     7     8     6   ar
     8     9     8    1
     9    10     8   ar
    10    11    10    1
    11    12    11    1
    12    13    12   ar
    13    14    13    1
    14    15    13   ar
    15    16    15    1
    16    17    15   ar
    17    18    17    1
    18    19    17   ar
    19    20    19    1
    20    21    12   ar
    21    22    21    1
    22    23    24    1
    23    24    25   ar
    24    25    26    1
    25    27    25   ar
    26    28    27    1
    27    29    27   ar
    28    30    29    1
    29    31    29   ar
    30    32    31    1
    31    33    24   ar
    32    34    33    1
    33    35    36    1
    34    37    35   ar
    35    38    37    1
    36    39    37   ar
    37    40    39    1
    38    41    39   ar
    39    42    41    1
    40    43    41   ar
    41    44    43    1
    42    45    44    1
    43    46    45   ar
    44    47    46    1
    45    48    46   ar
    46    49    48    1
    47    50    48   ar
    48    51    50    1
    49    52    50   ar
    50    53    52    1
    51    54    45   ar
    52    55    54    1
    53    56    57    1
    54    57    58   ar
    55    58    59    1
    56    60    58   ar
    57    61    60    1
    58    62    60   ar
    59    63    62    1
    60    64    62   ar
    61    65    64    1
    62    66    57   ar
    63    67    66    1
    64    68     2   ar
    65    69     1    1
    66    70    23    2
    67    71     1    1
    68    72     1    1
    69    73    56    2
    70    74     1    1
    71    75     1    1
    72    10    68   ar
    73    11    69    2
    74    19    21   ar
    75    23    74    1
    76    31    33   ar
    77    35    71   ar
    78    43    71   ar
    79    44    72    2
    80    52    54   ar
    81    56    75    1
    82    64    66   ar
    83    69    70    1
    84    72    73    1
@<TRIPOS>SUBSTRUCTURE
     1 RES1        1 GROUP             0 ****  ****    0  
@<TRIPOS>CRYSIN
   11.0360   12.3260   12.5170   66.6300   83.0300   81.1800     2     1
