@<TRIPOS>MOLECULE
HUNYIZ
    75    84     1     0     0
SMALL
NO_CHARGES
****
Generated from the CSD

@<TRIPOS>ATOM
     1 C1       2.1334   0.5575   2.0773   C.ar      1 RES1   0.0000
     2 C2       0.5224   4.7423   1.4177   C.ar      1 RES1   0.0000
     3 C3       1.6762  -0.6514   2.5984   C.ar      1 RES1   0.0000
     4 H1       1.7558  -1.4445   2.1208   H         1 RES1   0.0000
     5 C4      -0.5459   5.3122   0.7535   C.ar      1 RES1   0.0000
     6 H2      -1.0089   6.0200   1.1406   H         1 RES1   0.0000
     7 C5       1.0958  -0.6261   3.8637   C.ar      1 RES1   0.0000
     8 H3       0.7737  -1.4147   4.2371   H         1 RES1   0.0000
     9 C6      -0.9209   4.8399  -0.4604   C.ar      1 RES1   0.0000
    10 H4      -1.6506   5.2142  -0.8989   H         1 RES1   0.0000
    11 C7       0.9929   0.5284   4.5543   C.ar      1 RES1   0.0000
    12 H5       0.5952   0.5407   5.3948   H         1 RES1   0.0000
    13 C8      -0.2297   3.8217  -1.0341   C.ar      1 RES1   0.0000
    14 H6      -0.4894   3.4763  -1.8563   H         1 RES1   0.0000
    15 C9       1.4865   1.6891   3.9966   C.ar      1 RES1   0.0000
    16 H7       1.4337   2.4789   4.4867   H         1 RES1   0.0000
    17 C10      0.8699   3.3107  -0.3687   C.ar      1 RES1   0.0000
    18 H8       1.3644   2.6376  -0.7776   H         1 RES1   0.0000
    19 C11      2.8364   0.6868   0.8005   C.2       1 RES1   0.0000
    20 C12      1.0589   5.1661   2.7197   C.2       1 RES1   0.0000
    21 C13      4.4075   3.4740  -0.3710   C.2       1 RES1   0.0000
    22 C14      4.0102   4.1404   4.1203   C.2       1 RES1   0.0000
    23 C15      5.3852   3.9956  -1.3902   C.ar      1 RES1   0.0000
    24 C16      4.9629   4.3393   5.2242   C.ar      1 RES1   0.0000
    25 C17      2.8446  -0.3983  -0.1993   C.ar      1 RES1   0.0000
    26 C18      0.3501   6.1476   3.5614   C.ar      1 RES1   0.0000
    27 C19      3.9603  -1.1447  -0.4833   C.ar      1 RES1   0.0000
    28 H9       4.7553  -0.9537  -0.0401   H         1 RES1   0.0000
    29 C20      0.9631   7.2778   4.0596   C.ar      1 RES1   0.0000
    30 H10      1.8820   7.3784   3.9565   H         1 RES1   0.0000
    31 C21      3.9365  -2.1754  -1.4108   C.ar      1 RES1   0.0000
    32 H11      4.7077  -2.6609  -1.5975   H         1 RES1   0.0000
    33 C22      0.2482   8.2616   4.7054   C.ar      1 RES1   0.0000
    34 H12      0.6760   9.0319   5.0032   H         1 RES1   0.0000
    35 C23      2.7631  -2.4627  -2.0441   C.ar      1 RES1   0.0000
    36 H13      2.7250  -3.1722  -2.6453   H         1 RES1   0.0000
    37 C24     -1.1207   8.0956   4.9116   C.ar      1 RES1   0.0000
    38 H14     -1.6123   8.7547   5.3479   H         1 RES1   0.0000
    39 C25      1.6506  -1.7249  -1.8071   C.ar      1 RES1   0.0000
    40 H15      0.8621  -1.9023  -2.2674   H         1 RES1   0.0000
    41 C26     -1.7344   6.9599   4.4672   C.ar      1 RES1   0.0000
    42 H16     -2.6438   6.8356   4.6184   H         1 RES1   0.0000
    43 C27      1.7010  -0.7190  -0.8863   C.ar      1 RES1   0.0000
    44 H17      0.9281  -0.2297  -0.7169   H         1 RES1   0.0000
    45 C28     -1.0226   6.0062   3.8031   C.ar      1 RES1   0.0000
    46 H18     -1.4595   5.2429   3.5019   H         1 RES1   0.0000
    47 C29      5.9146   3.1442  -2.3315   C.ar      1 RES1   0.0000
    48 H19      5.6265   2.2610  -2.3716   H         1 RES1   0.0000
    49 C30      4.6051   4.9534   6.4163   C.ar      1 RES1   0.0000
    50 H20      3.7312   5.2509   6.5285   H         1 RES1   0.0000
    51 C31      6.8873   3.6040  -3.2305   C.ar      1 RES1   0.0000
    52 H21      7.2676   3.0236  -3.8489   H         1 RES1   0.0000
    53 C32      5.5121   5.1346   7.4401   C.ar      1 RES1   0.0000
    54 H22      5.2529   5.5377   8.2371   H         1 RES1   0.0000
    55 C33      7.2702   4.9031  -3.1881   C.ar      1 RES1   0.0000
    56 H23      7.9006   5.2153  -3.7962   H         1 RES1   0.0000
    57 C34      6.8231   4.6992   7.2568   C.ar      1 RES1   0.0000
    58 H24      7.4487   4.8221   7.9336   H         1 RES1   0.0000
    59 C35      6.7409   5.7675  -2.2594   C.ar      1 RES1   0.0000
    60 H25      7.0337   6.6485  -2.2273   H         1 RES1   0.0000
    61 C36      7.1953   4.0946   6.0934   C.ar      1 RES1   0.0000
    62 H26      8.0709   3.8015   5.9800   H         1 RES1   0.0000
    63 C37      5.7696   5.3275  -1.3685   C.ar      1 RES1   0.0000
    64 H27      5.3812   5.9187  -0.7650   H         1 RES1   0.0000
    65 C38      6.2727   3.9193   5.0868   C.ar      1 RES1   0.0000
    66 H28      6.5367   3.5089   4.2955   H         1 RES1   0.0000
    67 Fe1      2.8635   3.2513   1.8405   Fe        1 RES1   0.0000
    68 N1       2.0459   1.7220   2.7598   N.ar      1 RES1   0.0000
    69 N2       1.2537   3.7429   0.8394   N.ar      1 RES1   0.0000
    70 N3       3.3261   1.8735   0.6550   N.2       1 RES1   0.0000
    71 N4       2.2053   4.5909   2.9774   N.2       1 RES1   0.0000
    72 N5       4.0751   2.1930  -0.4752   N.2       1 RES1   0.0000
    73 N6       2.8960   4.8735   4.1420   N.2       1 RES1   0.0000
    74 O1       4.0098   4.2638   0.5565   O.3       1 RES1   0.0000
    75 O2       4.3111   3.3248   3.1744   O.3       1 RES1   0.0000
@<TRIPOS>BOND
     1     1     3   ar
     2     2     5   ar
     3     3     4    1
     4     5     6    1
     5     7     3   ar
     6     8     7    1
     7     9     5   ar
     8    10     9    1
     9    11     7   ar
    10    12    11    1
    11    13     9   ar
    12    14    13    1
    13    15    11   ar
    14    16    15    1
    15    17    13   ar
    16    18    17    1
    17    19     1    1
    18    20     2    1
    19    21    23    1
    20    22    24    1
    21    23    47   ar
    22    24    49   ar
    23    25    19    1
    24    26    20    1
    25    27    25   ar
    26    28    27    1
    27    29    26   ar
    28    30    29    1
    29    31    27   ar
    30    32    31    1
    31    33    29   ar
    32    34    33    1
    33    35    31   ar
    34    36    35    1
    35    37    33   ar
    36    38    37    1
    37    39    35   ar
    38    40    39    1
    39    41    37   ar
    40    42    41    1
    41    43    25   ar
    42    44    43    1
    43    45    26   ar
    44    46    45    1
    45    47    48    1
    46    49    50    1
    47    51    47   ar
    48    52    51    1
    49    53    49   ar
    50    54    53    1
    51    55    51   ar
    52    56    55    1
    53    57    53   ar
    54    58    57    1
    55    59    55   ar
    56    60    59    1
    57    61    57   ar
    58    62    61    1
    59    63    23   ar
    60    64    63    1
    61    65    24   ar
    62    66    65    1
    63    67    68    1
    64    68     1   ar
    65    69     2   ar
    66    70    19    2
    67    71    20    2
    68    72    21    2
    69    73    22    2
    70    74    21    1
    71    75    22    1
    72    15    68   ar
    73    17    69   ar
    74    39    43   ar
    75    41    45   ar
    76    59    63   ar
    77    61    65   ar
    78    67    69    1
    79    67    70    1
    80    67    71    1
    81    67    74    1
    82    67    75    1
    83    70    72    1
    84    71    73    1
@<TRIPOS>SUBSTRUCTURE
     1 RES1        1 GROUP             0 ****  ****    0  
@<TRIPOS>CRYSIN
   11.0310   12.3160   12.4990   66.6600   83.0800   81.1400     2     1
