@<TRIPOS>MOLECULE
HUQKOV01
    97   104     1     0     0
SMALL
NO_CHARGES
****
Generated from the CSD

@<TRIPOS>ATOM
     1 Fe1     -0.1610  -0.0503   3.7114   Fe        1 RES1   0.0000
     2 O1      -1.2855  -1.5805   2.8496   O.3       1 RES1   0.0000
     3 O2      -1.0057  -5.3242  -1.8772   O.3       1 RES1   0.0000
     4 O3      -3.2384  -6.3778  -0.8457   O.3       1 RES1   0.0000
     5 O4      -4.3291  -5.4345   1.3875   O.3       1 RES1   0.0000
     6 O5      -1.5483   1.4890   3.8206   O.3       1 RES1   0.0000
     7 O6      -4.3254   4.9022   7.9550   O.3       1 RES1   0.0000
     8 O7      -5.4947   6.0364   5.8442   O.3       1 RES1   0.0000
     9 O8      -4.8272   5.3830   3.3548   O.3       1 RES1   0.0000
    10 N1       1.5009   1.3664   3.5532   N.ar      1 RES1   0.0000
    11 N2       0.7496  -0.4542   1.8983   N.2       1 RES1   0.0000
    12 N3       0.2988  -1.5280   1.1553   N.2       1 RES1   0.0000
    13 N4       1.1363  -1.4887   4.7649   N.ar      1 RES1   0.0000
    14 N5      -0.4349   0.2989   5.7330   N.2       1 RES1   0.0000
    15 N6      -1.2552   1.3495   6.1088   N.2       1 RES1   0.0000
    16 C1       1.7964   2.3509   4.4131   C.ar      1 RES1   0.0000
    17 H1       1.3292   2.3929   5.2166   H         1 RES1   0.0000
    18 C2       2.7534   3.2939   4.1654   C.ar      1 RES1   0.0000
    19 H2       2.9155   3.9751   4.7775   H         1 RES1   0.0000
    20 C3       3.4594   3.2206   3.0157   C.ar      1 RES1   0.0000
    21 H3       4.1256   3.8457   2.8384   H         1 RES1   0.0000
    22 C4       3.1885   2.2122   2.0982   C.ar      1 RES1   0.0000
    23 H4       3.6693   2.1487   1.3059   H         1 RES1   0.0000
    24 C5       2.1812   1.2997   2.3951   C.ar      1 RES1   0.0000
    25 C6       1.7769   0.2158   1.4720   C.2       1 RES1   0.0000
    26 C7       2.4787  -0.0811   0.1928   C.3       1 RES1   0.0000
    27 H5       2.8873   0.7301  -0.1478   H         1 RES1   0.0000
    28 H6       1.8372  -0.3931  -0.4644   H         1 RES1   0.0000
    29 C8       3.5485  -1.1378   0.3997   C.3       1 RES1   0.0000
    30 H7       4.1873  -0.8229   1.0582   H         1 RES1   0.0000
    31 H8       3.1369  -1.9461   0.7458   H         1 RES1   0.0000
    32 C9       4.2469  -1.4455  -0.8415   C.3       1 RES1   0.0000
    33 H9       4.9201  -2.1096  -0.6741   H         1 RES1   0.0000
    34 H10      4.6599  -0.6495  -1.1821   H         1 RES1   0.0000
    35 H11      3.6197  -1.7825  -1.4860   H         1 RES1   0.0000
    36 C10     -0.7808  -2.0095   1.7689   C.2       1 RES1   0.0000
    37 C11     -1.4178  -3.1862   1.0737   C.ar      1 RES1   0.0000
    38 C12     -0.8616  -3.6855  -0.0816   C.ar      1 RES1   0.0000
    39 H12     -0.0893  -3.3036  -0.4334   H         1 RES1   0.0000
    40 C13     -1.4616  -4.7592  -0.7191   C.ar      1 RES1   0.0000
    41 C14     -2.6224  -5.3332  -0.1942   C.ar      1 RES1   0.0000
    42 C15     -3.1814  -4.8163   0.9597   C.ar      1 RES1   0.0000
    43 C16     -2.5855  -3.7397   1.6028   C.ar      1 RES1   0.0000
    44 H13     -2.9603  -3.3915   2.3782   H         1 RES1   0.0000
    45 C17      0.1245  -4.7223  -2.4908   C.3       1 RES1   0.0000
    46 H14      0.3515  -5.2082  -3.2873   H         1 RES1   0.0000
    47 H15      0.8664  -4.7418  -1.8815   H         1 RES1   0.0000
    48 H16     -0.0801  -3.8140  -2.7174   H         1 RES1   0.0000
    49 C18     -2.7022  -7.6423  -0.5038   C.3       1 RES1   0.0000
    50 H17     -3.1625  -8.3287  -0.9935   H         1 RES1   0.0000
    51 H18     -2.8138  -7.7940   0.4376   H         1 RES1   0.0000
    52 H19     -1.7687  -7.6646  -0.7219   H         1 RES1   0.0000
    53 C19     -4.9499  -4.9689   2.5611   C.3       1 RES1   0.0000
    54 H20     -5.7395  -5.4865   2.7328   H         1 RES1   0.0000
    55 H21     -5.1905  -4.0459   2.4500   H         1 RES1   0.0000
    56 H22     -4.3436  -5.0544   3.2999   H         1 RES1   0.0000
    57 C20      1.8570  -2.4615   4.2273   C.ar      1 RES1   0.0000
    58 H23      1.9411  -2.4783   3.3013   H         1 RES1   0.0000
    59 C21      2.4844  -3.4411   4.9436   C.ar      1 RES1   0.0000
    60 H24      2.9736  -4.1070   4.5172   H         1 RES1   0.0000
    61 C22      2.3741  -3.4135   6.2931   C.ar      1 RES1   0.0000
    62 H25      2.7881  -4.0679   6.8082   H         1 RES1   0.0000
    63 C23      1.6471  -2.4124   6.9024   C.ar      1 RES1   0.0000
    64 H26      1.5805  -2.3758   7.8284   H         1 RES1   0.0000
    65 C24      1.0109  -1.4545   6.1074   C.ar      1 RES1   0.0000
    66 C25      0.1357  -0.4095   6.6463   C.2       1 RES1   0.0000
    67 C26     -0.0958  -0.2005   8.1380   C.3       1 RES1   0.0000
    68 H27     -0.9702   0.1929   8.2815   H         1 RES1   0.0000
    69 H28     -0.0682  -1.0548   8.5967   H         1 RES1   0.0000
    70 C27      0.9409   0.6861   8.6784   C.3       1 RES1   0.0000
    71 H29      0.9691   1.5139   8.1732   H         1 RES1   0.0000
    72 H30      1.8093   0.2588   8.6178   H         1 RES1   0.0000
    73 C28      0.5820   0.9816  10.1911   C.3       1 RES1   0.0000
    74 H31      1.2389   1.5749  10.5654   H         1 RES1   0.0000
    75 H32      0.5753   0.1587  10.6851   H         1 RES1   0.0000
    76 H33     -0.2836   1.3942  10.2404   H         1 RES1   0.0000
    77 C29     -1.7766   1.8918   5.0013   C.2       1 RES1   0.0000
    78 C30     -2.7231   3.0189   5.2377   C.ar      1 RES1   0.0000
    79 C31     -3.0543   3.4069   6.5239   C.ar      1 RES1   0.0000
    80 H34     -2.6790   2.9642   7.2500   H         1 RES1   0.0000
    81 C32     -3.9378   4.4471   6.7406   C.ar      1 RES1   0.0000
    82 C33     -4.5208   5.0732   5.6331   C.ar      1 RES1   0.0000
    83 C34     -4.1864   4.6883   4.3568   C.ar      1 RES1   0.0000
    84 C35     -3.2756   3.6643   4.1344   C.ar      1 RES1   0.0000
    85 H35     -3.0403   3.4160   3.2704   H         1 RES1   0.0000
    86 C36     -3.7671   4.2652   9.1047   C.3       1 RES1   0.0000
    87 H36     -4.1180   4.6735   9.8998   H         1 RES1   0.0000
    88 H37     -2.8120   4.3609   9.0921   H         1 RES1   0.0000
    89 H38     -3.9957   3.3329   9.0977   H         1 RES1   0.0000
    90 C37     -4.9917   7.3471   5.8625   C.3       1 RES1   0.0000
    91 H39     -5.7086   7.9649   6.0215   H         1 RES1   0.0000
    92 H40     -4.5819   7.5425   5.0153   H         1 RES1   0.0000
    93 H41     -4.3380   7.4302   6.5605   H         1 RES1   0.0000
    94 C38     -4.4379   5.1618   2.0194   C.3       1 RES1   0.0000
    95 H42     -4.9636   5.7136   1.4368   H         1 RES1   0.0000
    96 H43     -4.5764   4.2388   1.7956   H         1 RES1   0.0000
    97 H44     -3.5096   5.3791   1.9166   H         1 RES1   0.0000
@<TRIPOS>BOND
     1     1     2    1
     2     2    36    1
     3     3    40    1
     4     4    41    1
     5     5    42    1
     6     6     1    1
     7     7    81    1
     8     8    82    1
     9     9    83    1
    10    10     1    1
    11    11     1    1
    12    12    11    1
    13    13     1    1
    14    14     1    1
    15    15    14    1
    16    16    10   ar
    17    17    16    1
    18    18    16   ar
    19    19    18    1
    20    20    18   ar
    21    21    20    1
    22    22    20   ar
    23    23    22    1
    24    24    10   ar
    25    25    11    2
    26    26    25    1
    27    27    26    1
    28    28    26    1
    29    29    26    1
    30    30    29    1
    31    31    29    1
    32    32    29    1
    33    33    32    1
    34    34    32    1
    35    35    32    1
    36    36    12    2
    37    37    36    1
    38    38    37   ar
    39    39    38    1
    40    40    38   ar
    41    41    40   ar
    42    42    41   ar
    43    43    37   ar
    44    44    43    1
    45    45     3    1
    46    46    45    1
    47    47    45    1
    48    48    45    1
    49    49     4    1
    50    50    49    1
    51    51    49    1
    52    52    49    1
    53    53     5    1
    54    54    53    1
    55    55    53    1
    56    56    53    1
    57    57    13   ar
    58    58    57    1
    59    59    57   ar
    60    60    59    1
    61    61    59   ar
    62    62    61    1
    63    63    61   ar
    64    64    63    1
    65    65    13   ar
    66    66    14    2
    67    67    66    1
    68    68    67    1
    69    69    67    1
    70    70    67    1
    71    71    70    1
    72    72    70    1
    73    73    70    1
    74    74    73    1
    75    75    73    1
    76    76    73    1
    77    77     6    1
    78    78    77    1
    79    79    78   ar
    80    80    79    1
    81    81    79   ar
    82    82    81   ar
    83    83    82   ar
    84    84    78   ar
    85    85    84    1
    86    86     7    1
    87    87    86    1
    88    88    86    1
    89    89    86    1
    90    90     8    1
    91    91    90    1
    92    92    90    1
    93    93    90    1
    94    94     9    1
    95    95    94    1
    96    96    94    1
    97    97    94    1
    98    15    77    2
    99    22    24   ar
   100    24    25    1
   101    42    43   ar
   102    63    65   ar
   103    65    66    1
   104    83    84   ar
@<TRIPOS>SUBSTRUCTURE
     1 RES1        1 GROUP             0 ****  ****    0  
@<TRIPOS>CRYSIN
   11.0035   24.4172   14.9090   90.0000  109.2870   90.0000    14     1
