@<TRIPOS>MOLECULE
HUQKOV
    97   104     1     0     0
SMALL
NO_CHARGES
****
Generated from the CSD

@<TRIPOS>ATOM
     1 Fe1      5.5609  -0.0100   3.8882   Fe        1 RES1   0.0000
     2 O1       4.2963  -1.4489   3.2661   O.3       1 RES1   0.0000
     3 O2       4.2883  -5.1047  -1.5702   O.3       1 RES1   0.0000
     4 O3       2.0951  -6.1782  -0.4604   O.3       1 RES1   0.0000
     5 O4       1.0843  -5.2512   1.8070   O.3       1 RES1   0.0000
     6 O5       4.1693   1.4349   3.6977   O.3       1 RES1   0.0000
     7 O6       1.1733   4.8874   7.6854   O.3       1 RES1   0.0000
     8 O7       0.0123   5.9367   5.5130   O.3       1 RES1   0.0000
     9 O8       0.7356   5.2555   3.0639   O.3       1 RES1   0.0000
    10 N1       6.9383   1.3829   3.8256   N.ar      1 RES1   0.0000
    11 N2       6.1889  -0.2793   2.1531   N.2       1 RES1   0.0000
    12 N3       5.6832  -1.3299   1.4120   N.2       1 RES1   0.0000
    13 N4       6.6727  -1.3991   4.6989   N.ar      1 RES1   0.0000
    14 N5       5.0828   0.2357   5.6764   N.2       1 RES1   0.0000
    15 N6       4.2259   1.2643   6.0134   N.2       1 RES1   0.0000
    16 C1       7.1872   2.3330   4.7377   C.ar      1 RES1   0.0000
    17 H1       6.7521   2.2877   5.5579   H         1 RES1   0.0000
    18 C2       8.0657   3.3809   4.5133   C.ar      1 RES1   0.0000
    19 H2       8.1834   4.0434   5.1538   H         1 RES1   0.0000
    20 C3       8.7603   3.4241   3.3276   C.ar      1 RES1   0.0000
    21 H3       9.3717   4.1054   3.1669   H         1 RES1   0.0000
    22 C4       8.5423   2.4425   2.3744   C.ar      1 RES1   0.0000
    23 H4       9.0151   2.4499   1.5743   H         1 RES1   0.0000
    24 C5       7.6023   1.4406   2.6307   C.ar      1 RES1   0.0000
    25 C6       7.1833   0.4258   1.6728   C.2       1 RES1   0.0000
    26 C7       7.8167   0.1808   0.3557   C.3       1 RES1   0.0000
    27 H5       8.2543   0.9971   0.0636   H         1 RES1   0.0000
    28 H6       7.1234  -0.0286  -0.2897   H         1 RES1   0.0000
    29 C8       8.8359  -0.9435   0.3555   C.3       1 RES1   0.0000
    30 H7       9.4898  -0.7872   1.0542   H         1 RES1   0.0000
    31 H8       8.3901  -1.7843   0.5427   H         1 RES1   0.0000
    32 C9       9.5375  -1.0320  -0.9807   C.3       1 RES1   0.0000
    33 H9      10.1764  -1.7486  -0.9609   H         1 RES1   0.0000
    34 H10      9.9905  -0.2052  -1.1602   H         1 RES1   0.0000
    35 H11      8.8919  -1.1975  -1.6718   H         1 RES1   0.0000
    36 C10      4.6795  -1.8600   2.1124   C.2       1 RES1   0.0000
    37 C11      3.9942  -3.0081   1.4483   C.ar      1 RES1   0.0000
    38 C12      4.5030  -3.4950   0.2476   C.ar      1 RES1   0.0000
    39 H12      5.2616  -3.1083  -0.1272   H         1 RES1   0.0000
    40 C13      3.8812  -4.5527  -0.3883   C.ar      1 RES1   0.0000
    41 C14      2.7355  -5.1295   0.1728   C.ar      1 RES1   0.0000
    42 C15      2.2153  -4.6247   1.3648   C.ar      1 RES1   0.0000
    43 C16      2.8497  -3.5661   2.0115   C.ar      1 RES1   0.0000
    44 H13      2.5121  -3.2347   2.8122   H         1 RES1   0.0000
    45 C17      5.3926  -4.4802  -2.2397   C.3       1 RES1   0.0000
    46 H14      5.5843  -4.9546  -3.0510   H         1 RES1   0.0000
    47 H15      6.1639  -4.4966  -1.6689   H         1 RES1   0.0000
    48 H16      5.1674  -3.5711  -2.4476   H         1 RES1   0.0000
    49 C18      2.7901  -7.4150  -0.2732   C.3       1 RES1   0.0000
    50 H17      2.3186  -8.1178  -0.7264   H         1 RES1   0.0000
    51 H18      2.8390  -7.6145   0.6642   H         1 RES1   0.0000
    52 H19      3.6765  -7.3401  -0.6317   H         1 RES1   0.0000
    53 C19      0.5147  -4.7972   3.0304   C.3       1 RES1   0.0000
    54 H20     -0.2690  -5.3148   3.2305   H         1 RES1   0.0000
    55 H21      0.2747  -3.8716   2.9478   H         1 RES1   0.0000
    56 H22      1.1543  -4.8998   3.7392   H         1 RES1   0.0000
    57 C20      7.4241  -2.3232   4.0863   C.ar      1 RES1   0.0000
    58 H23      7.5375  -2.2614   3.1655   H         1 RES1   0.0000
    59 C21      8.0410  -3.3654   4.7595   C.ar      1 RES1   0.0000
    60 H24      8.5439  -3.9957   4.2974   H         1 RES1   0.0000
    61 C22      7.8962  -3.4494   6.1279   C.ar      1 RES1   0.0000
    62 H25      8.2961  -4.1436   6.6008   H         1 RES1   0.0000
    63 C23      7.1505  -2.4928   6.7885   C.ar      1 RES1   0.0000
    64 H26      7.0678  -2.5215   7.7144   H         1 RES1   0.0000
    65 C24      6.5224  -1.4847   6.0579   C.ar      1 RES1   0.0000
    66 C25      5.6321  -0.4893   6.6223   C.2       1 RES1   0.0000
    67 C26      5.3933  -0.3015   8.0816   C.3       1 RES1   0.0000
    68 H27      5.4225  -1.1665   8.5199   H         1 RES1   0.0000
    69 H28      4.5061   0.0668   8.2118   H         1 RES1   0.0000
    70 C27      6.4138   0.6200   8.7364   C.3       1 RES1   0.0000
    71 H29      7.3047   0.2672   8.5948   H         1 RES1   0.0000
    72 H30      6.3690   1.4957   8.3221   H         1 RES1   0.0000
    73 C28      6.1554   0.7519  10.2247   C.3       1 RES1   0.0000
    74 H31      6.8121   1.3335  10.6128   H         1 RES1   0.0000
    75 H32      6.2106  -0.1145  10.6368   H         1 RES1   0.0000
    76 H33      5.2783   1.1188  10.3669   H         1 RES1   0.0000
    77 C29      3.8072   1.8163   4.8694   C.2       1 RES1   0.0000
    78 C30      2.8528   2.9506   5.0325   C.ar      1 RES1   0.0000
    79 C31      2.4937   3.3626   6.3138   C.ar      1 RES1   0.0000
    80 H34      2.8672   2.9485   7.0573   H         1 RES1   0.0000
    81 C32      1.5820   4.3888   6.4788   C.ar      1 RES1   0.0000
    82 C33      0.9940   4.9845   5.3588   C.ar      1 RES1   0.0000
    83 C34      1.3684   4.5813   4.0779   C.ar      1 RES1   0.0000
    84 C35      2.3014   3.5615   3.9075   C.ar      1 RES1   0.0000
    85 H35      2.5527   3.2920   3.0538   H         1 RES1   0.0000
    86 C36      1.6955   4.2700   8.8678   C.3       1 RES1   0.0000
    87 H36      1.3360   4.7089   9.6434   H         1 RES1   0.0000
    88 H37      2.6522   4.3463   8.8732   H         1 RES1   0.0000
    89 H38      1.4477   3.3421   8.8803   H         1 RES1   0.0000
    90 C37      0.5197   7.2459   5.7284   C.3       1 RES1   0.0000
    91 H39     -0.2103   7.8602   5.8293   H         1 RES1   0.0000
    92 H40      1.0575   7.5095   4.9771   H         1 RES1   0.0000
    93 H41      1.0566   7.2542   6.5245   H         1 RES1   0.0000
    94 C38      1.0630   4.8929   1.7280   C.3       1 RES1   0.0000
    95 H42      0.5588   5.4341   1.1164   H         1 RES1   0.0000
    96 H43      0.8496   3.9671   1.5856   H         1 RES1   0.0000
    97 H44      2.0006   5.0310   1.5799   H         1 RES1   0.0000
@<TRIPOS>BOND
     1     1     2    1
     2     2    36    1
     3     3    40    1
     4     4    41    1
     5     5    42    1
     6     6     1    1
     7     7    81    1
     8     8    82    1
     9     9    83    1
    10    10     1    1
    11    11     1    1
    12    12    11    1
    13    13     1    1
    14    14     1    1
    15    15    14    1
    16    16    10   ar
    17    17    16    1
    18    18    16   ar
    19    19    18    1
    20    20    18   ar
    21    21    20    1
    22    22    20   ar
    23    23    22    1
    24    24    10   ar
    25    25    11    2
    26    26    25    1
    27    27    26    1
    28    28    26    1
    29    29    26    1
    30    30    29    1
    31    31    29    1
    32    32    29    1
    33    33    32    1
    34    34    32    1
    35    35    32    1
    36    36    12    2
    37    37    36    1
    38    38    37   ar
    39    39    38    1
    40    40    38   ar
    41    41    40   ar
    42    42    41   ar
    43    43    37   ar
    44    44    43    1
    45    45     3    1
    46    46    45    1
    47    47    45    1
    48    48    45    1
    49    49     4    1
    50    50    49    1
    51    51    49    1
    52    52    49    1
    53    53     5    1
    54    54    53    1
    55    55    53    1
    56    56    53    1
    57    57    13   ar
    58    58    57    1
    59    59    57   ar
    60    60    59    1
    61    61    59   ar
    62    62    61    1
    63    63    61   ar
    64    64    63    1
    65    65    13   ar
    66    66    14    2
    67    67    66    1
    68    68    67    1
    69    69    67    1
    70    70    67    1
    71    71    70    1
    72    72    70    1
    73    73    70    1
    74    74    73    1
    75    75    73    1
    76    76    73    1
    77    77     6    1
    78    78    77    1
    79    79    78   ar
    80    80    79    1
    81    81    79   ar
    82    82    81   ar
    83    83    82   ar
    84    84    78   ar
    85    85    84    1
    86    86     7    1
    87    87    86    1
    88    88    86    1
    89    89    86    1
    90    90     8    1
    91    91    90    1
    92    92    90    1
    93    93    90    1
    94    94     9    1
    95    95    94    1
    96    96    94    1
    97    97    94    1
    98    15    77    2
    99    22    24   ar
   100    24    25    1
   101    42    43   ar
   102    63    65   ar
   103    65    66    1
   104    83    84   ar
@<TRIPOS>SUBSTRUCTURE
     1 RES1        1 GROUP             0 ****  ****    0  
@<TRIPOS>CRYSIN
   10.8304   23.8548   14.8977   90.0000  108.4550   90.0000    14     1
