@<TRIPOS>MOLECULE
HUSNIU
    77    86     3     0     0
SMALL
USER_CHARGES
****
Generated from the CSD

@<TRIPOS>ATOM
     1 Fe1     -5.4519 -10.8962  -6.2988   Fe        1 RES1   1.0000
     2 N1      -8.5948  -8.9376  -7.7809   N.pl3     1 RES1   0.0000
     3 H1      -8.9048  -8.1595  -8.0538   H         1 RES1   0.0000
     4 N2      -7.2659 -10.5203  -6.9147   N.2       1 RES1   0.0000
     5 N3      -5.3211  -9.0906  -6.4657   N.2       1 RES1   0.0000
     6 N4      -4.1421  -8.4006  -6.1722   N.2       1 RES1   0.0000
     7 N5      -3.6410 -10.6417  -5.7231   N.ar      1 RES1   0.0000
     8 N6      -2.8890 -11.6358  -5.2504   N.ar      1 RES1   0.0000
     9 C1      -9.2428 -10.1662  -7.8262   C.ar      1 RES1   0.0000
    10 C2     -10.4886 -10.5203  -8.3319   C.ar      1 RES1   0.0000
    11 H2     -11.0517  -9.8570  -8.7150   H         1 RES1   0.0000
    12 C3     -10.9111 -11.8437  -8.2762   C.ar      1 RES1   0.0000
    13 H3     -11.7624 -12.0847  -8.6213   H         1 RES1   0.0000
    14 C4     -10.0877 -12.8129  -7.7160   C.ar      1 RES1   0.0000
    15 H4     -10.3769 -13.7173  -7.6779   H         1 RES1   0.0000
    16 C5      -8.8419 -12.4588  -7.2103   C.ar      1 RES1   0.0000
    17 H5      -8.2798 -13.1221  -6.8272   H         1 RES1   0.0000
    18 C6      -8.4194 -11.1354  -7.2659   C.ar      1 RES1   0.0000
    19 C7      -7.3379  -9.2019  -7.2021   C.2       1 RES1   0.0000
    20 C8      -6.2912  -8.3142  -6.9137   C.2       1 RES1   0.0000
    21 C9      -6.3411  -6.8196  -7.0610   C.3       1 RES1   0.0000
    22 H6      -5.4880  -6.4339  -6.7736   H         1 RES1   0.0000
    23 H7      -7.0652  -6.4605  -6.5069   H         1 RES1   0.0000
    24 H8      -6.5040  -6.5885  -8.0002   H         1 RES1   0.0000
    25 C10     -3.2875  -9.3449  -5.7386   C.ar      1 RES1   0.0000
    26 C11     -1.9886  -8.9825  -5.2875   C.ar      1 RES1   0.0000
    27 C12     -1.5284  -7.6708  -5.2813   C.ar      1 RES1   0.0000
    28 H9      -2.0892  -6.9692  -5.5923   H         1 RES1   0.0000
    29 C13     -0.2491  -7.3865  -4.8199   C.ar      1 RES1   0.0000
    30 H10      0.0649  -6.4887  -4.8158   H         1 RES1   0.0000
    31 C14      0.5700  -8.4123  -4.3647   C.ar      1 RES1   0.0000
    32 H11      1.4449  -8.2177  -4.0485   H         1 RES1   0.0000
    33 C15      0.1098  -9.7240  -4.3709   C.ar      1 RES1   0.0000
    34 H12      0.6697 -10.4255  -4.0598   H         1 RES1   0.0000
    35 C16     -1.1695 -10.0083  -4.8323   C.ar      1 RES1   0.0000
    36 C17     -1.6820 -11.3200  -4.8323   C.ar      1 RES1   0.0000
    37 H13     -1.1231 -12.0182  -4.5109   H         1 RES1   0.0000
    38 N7      -4.1866 -13.0490  -9.3659   N.pl3     1 RES1   0.0000
    39 H14     -3.9812 -13.8520  -9.6635   H         1 RES1   0.0000
    40 N8      -4.8670 -11.4147  -8.0898   N.2       1 RES1   0.0000
    41 N9      -5.5498 -12.8179  -6.0228   N.2       1 RES1   0.0000
    42 N10     -5.9313 -13.2950  -4.8487   N.2       1 RES1   0.0000
    43 N11     -6.0636 -11.0124  -4.5264   N.ar      1 RES1   0.0000
    44 N12     -6.2923  -9.9068  -3.7787   N.ar      1 RES1   0.0000
    45 C18     -3.9551 -11.9550 -10.1764   C.ar      1 RES1   0.0000
    46 C19     -3.4179 -11.6724 -11.4267   C.ar      1 RES1   0.0000
    47 H15     -3.1264 -12.3806 -11.9890   H         1 RES1   0.0000
    48 C20     -3.3076 -10.3541 -11.8541   C.ar      1 RES1   0.0000
    49 H16     -2.9400 -10.1612 -12.7089   H         1 RES1   0.0000
    50 C21     -3.7336  -9.3183 -11.0302   C.ar      1 RES1   0.0000
    51 H17     -3.6585  -8.4189 -11.3227   H         1 RES1   0.0000
    52 C22     -4.2709  -9.6009  -9.7799   C.ar      1 RES1   0.0000
    53 H18     -4.5624  -8.8944  -9.2176   H         1 RES1   0.0000
    54 C23     -4.3821 -10.9193  -9.3525   C.ar      1 RES1   0.0000
    55 C24     -4.7249 -12.9243  -8.1104   C.2       1 RES1   0.0000
    56 C25     -5.0659 -13.4962  -6.9703   C.2       1 RES1   0.0000
    57 C26     -4.9888 -14.9392  -6.9343   C.3       1 RES1   0.0000
    58 H19     -5.1904 -15.2551  -6.0290   H         1 RES1   0.0000
    59 H20     -4.0840 -15.2235  -7.1845   H         1 RES1   0.0000
    60 H21     -5.6356 -15.3183  -7.5646   H         1 RES1   0.0000
    61 C27     -6.2455 -12.1279  -3.9538   C.ar      1 RES1   0.0000
    62 C28     -6.5854 -12.5352  -2.7539   C.ar      1 RES1   0.0000
    63 C29     -6.7644 -13.8087  -2.2246   C.ar      1 RES1   0.0000
    64 H22     -6.5814 -14.5735  -2.7560   H         1 RES1   0.0000
    65 C30     -7.2126 -13.9600  -0.9176   C.ar      1 RES1   0.0000
    66 H23     -7.3359 -14.8295  -0.5551   H         1 RES1   0.0000
    67 C31     -7.4817 -12.8395  -0.1401   C.ar      1 RES1   0.0000
    68 H24     -7.7880 -12.9442   0.7529   H         1 RES1   0.0000
    69 C32     -7.3017 -11.5677  -0.6694   C.ar      1 RES1   0.0000
    70 H25     -7.4857 -10.8013  -0.1380   H         1 RES1   0.0000
    71 C33     -6.8535 -11.4147  -1.9764   C.ar      1 RES1   0.0000
    72 C34     -6.7180 -10.0797  -2.5366   C.ar      1 RES1   0.0000
    73 H26     -6.9365  -9.3233  -2.0052   H         1 RES1   0.0000
    74 Cl1     -7.3506  -7.2601 -10.6357   Cl        2 RES2  -1.0000
    75 O1      -9.4110  -6.3192  -8.5759   O.3       3 RES3   0.0000
    76 H27     -8.8962  -6.6666  -9.1146   H         3 RES3   0.0000
    77 H28     -9.9526  -5.9185  -9.0425   H         3 RES3   0.0000
@<TRIPOS>BOND
     1     1     4    1
     2     2     3    1
     3     4    18    1
     4     5     1    1
     5     6     5    2
     6     7     1    1
     7     8     7   ar
     8     9     2    1
     9    10     9   ar
    10    11    10    1
    11    12    10   ar
    12    13    12    1
    13    14    12   ar
    14    15    14    1
    15    16    14   ar
    16    17    16    1
    17    18     9   ar
    18    19     2    1
    19    20     5    1
    20    21    20    1
    21    22    21    1
    22    23    21    1
    23    24    21    1
    24    25     6    1
    25    26    25   ar
    26    27    26   ar
    27    28    27    1
    28    29    27   ar
    29    30    29    1
    30    31    29   ar
    31    32    31    1
    32    33    31   ar
    33    34    33    1
    34    35    26   ar
    35    36     8   ar
    36    37    36    1
    37    38    39    1
    38    40     1    1
    39    41     1    1
    40    42    41    2
    41    43     1    1
    42    44    43   ar
    43    45    38    1
    44    46    45   ar
    45    47    46    1
    46    48    46   ar
    47    49    48    1
    48    50    48   ar
    49    51    50    1
    50    52    50   ar
    51    53    52    1
    52    54    40    1
    53    55    38    1
    54    56    41    1
    55    57    56    1
    56    58    57    1
    57    59    57    1
    58    60    57    1
    59    61    42    1
    60    62    61   ar
    61    63    62   ar
    62    64    63    1
    63    65    63   ar
    64    66    65    1
    65    67    65   ar
    66    68    67    1
    67    69    67   ar
    68    70    69    1
    69    71    62   ar
    70    72    44   ar
    71    73    72    1
    72     4    19    1
    73     7    25   ar
    74    16    18   ar
    75    19    20    2
    76    33    35   ar
    77    35    36   ar
    78    40    55    1
    79    43    61   ar
    80    45    54   ar
    81    52    54   ar
    82    55    56    2
    83    69    71   ar
    84    71    72   ar
    85    75    76    1
    86    77    75    1
@<TRIPOS>SUBSTRUCTURE
     1 RES1        1 GROUP             0 ****  ****    0  
     2 RES2       74 GROUP             0 ****  ****    0  
     3 RES3       75 GROUP             0 ****  ****    0  
@<TRIPOS>CRYSIN
    9.8750   16.6250   10.2990   90.0000   89.8210   90.0000     4     1
