@<TRIPOS>MOLECULE
HUTCAC01
    89    97     1     0     0
SMALL
NO_CHARGES
****
Generated from the CSD

@<TRIPOS>ATOM
     1 Fe1      2.9695   3.4066  11.0821   Fe        1 RES1   0.0000
     2 O1       2.3940   4.4993   8.4353   O.3       1 RES1   0.0000
     3 O2       4.7163   1.1344  11.5355   O.3       1 RES1   0.0000
     4 O3       3.0735   6.1419  10.1254   O.3       1 RES1   0.0000
     5 O4       4.2705   2.4954  13.5264   O.3       1 RES1   0.0000
     6 O5       0.8307   5.1586  10.1780   O.3       1 RES1   0.0000
     7 O6       2.5459   1.0016  12.6772   O.3       1 RES1   0.0000
     8 O7       0.8263  10.9697   5.5236   O.3       1 RES1   0.0000
     9 O8      -1.0406   9.6185   5.1355   O.3       1 RES1   0.0000
    10 O9       7.3604  -3.7142  15.6250   O.3       1 RES1   0.0000
    11 O10      6.4247  -2.8309  17.5298   O.3       1 RES1   0.0000
    12 N1       2.9649   3.4769   9.1705   N.2       1 RES1   0.0000
    13 N2       4.1790   2.0091  10.6130   N.2       1 RES1   0.0000
    14 N3       3.5278   5.2304  11.0525   N.2       1 RES1   0.0000
    15 N4       3.9315   3.5648  12.7275   N.2       1 RES1   0.0000
    16 N5       1.1884   4.0789  10.9608   N.2       1 RES1   0.0000
    17 N6       1.9681   2.0435  11.9680   N.2       1 RES1   0.0000
    18 C1       3.7111   2.6118   6.9979   C.3       1 RES1   0.0000
    19 H1       4.2741   1.8698   6.6923   H         1 RES1   0.0000
    20 H2       4.0929   3.4598   6.6893   H         1 RES1   0.0000
    21 H3       2.8076   2.5084   6.6315   H         1 RES1   0.0000
    22 C2       3.6476   2.6066   8.4786   C.2       1 RES1   0.0000
    23 C3       4.3193   1.6690   9.3604   C.2       1 RES1   0.0000
    24 C4       5.0462   0.4471   8.9149   C.3       1 RES1   0.0000
    25 H4       4.8206   0.2554   7.9800   H         1 RES1   0.0000
    26 H5       4.7854  -0.3127   9.4759   H         1 RES1   0.0000
    27 H6       6.0120   0.5943   8.9940   H         1 RES1   0.0000
    28 C5       4.5173   7.1696  12.2322   C.3       1 RES1   0.0000
    29 H7       5.4452   7.2553  12.5347   H         1 RES1   0.0000
    30 H8       3.9195   7.5795  12.8920   H         1 RES1   0.0000
    31 H9       4.4119   7.6250  11.3702   H         1 RES1   0.0000
    32 C6       4.1746   5.7236  12.0787   C.2       1 RES1   0.0000
    33 C7       4.4892   4.7011  13.0395   C.2       1 RES1   0.0000
    34 C8       5.3637   4.8616  14.2344   C.3       1 RES1   0.0000
    35 H10      5.7132   5.7773  14.2618   H         1 RES1   0.0000
    36 H11      6.1091   4.2296  14.1797   H         1 RES1   0.0000
    37 H12      4.8430   4.6865  15.0447   H         1 RES1   0.0000
    38 C9      -1.2320   3.7221  11.1893   C.3       1 RES1   0.0000
    39 H13     -1.8092   3.1060  11.6864   H         1 RES1   0.0000
    40 H14     -1.4299   3.6540  10.2315   H         1 RES1   0.0000
    41 H15     -1.3966   4.6402  11.4918   H         1 RES1   0.0000
    42 C10      0.2002   3.3672  11.4295   C.2       1 RES1   0.0000
    43 C11      0.6742   2.2019  12.1395   C.2       1 RES1   0.0000
    44 C12     -0.1677   1.3155  12.9863   C.3       1 RES1   0.0000
    45 H16     -1.1119   1.4480  12.7613   H         1 RES1   0.0000
    46 H17     -0.0233   1.5336  13.9304   H         1 RES1   0.0000
    47 H18      0.0779   0.3798  12.8251   H         1 RES1   0.0000
    48 C13      1.4238   6.8211   8.3844   C.ar      1 RES1   0.0000
    49 C14      0.6650   6.5791   7.2472   C.ar      1 RES1   0.0000
    50 H19      0.4834   5.6821   6.9918   H         1 RES1   0.0000
    51 C15      0.1633   7.6245   6.4688   C.ar      1 RES1   0.0000
    52 H20     -0.3576   7.4331   5.6980   H         1 RES1   0.0000
    53 C16      0.4220   8.9421   6.8185   C.ar      1 RES1   0.0000
    54 C17      1.2262   9.2004   7.9192   C.ar      1 RES1   0.0000
    55 H21      1.4429  10.0966   8.1457   H         1 RES1   0.0000
    56 C18      1.7167   8.1584   8.6945   C.ar      1 RES1   0.0000
    57 H22      2.2618   8.3536   9.4470   H         1 RES1   0.0000
    58 C19     -0.1586  10.1137   6.0401   C.3       1 RES1   0.0000
    59 H23     -0.6918  10.6535   6.6908   H         1 RES1   0.0000
    60 C20      1.6041  10.3358   4.5183   C.3       1 RES1   0.0000
    61 H24      2.2783  10.9639   4.1838   H         1 RES1   0.0000
    62 H25      2.0488   9.5493   4.8968   H         1 RES1   0.0000
    63 H26      1.0209  10.0594   3.7809   H         1 RES1   0.0000
    64 C21     -1.8267  10.6549   4.5228   C.3       1 RES1   0.0000
    65 H27     -2.4483  10.2559   3.8782   H         1 RES1   0.0000
    66 H28     -2.3336  11.1321   5.2131   H         1 RES1   0.0000
    67 H29     -1.2348  11.2845   4.0592   H         1 RES1   0.0000
    68 C22      4.6043   0.0237  13.7753   C.ar      1 RES1   0.0000
    69 C23      5.4153  -0.9738  13.2386   C.ar      1 RES1   0.0000
    70 H30      5.6050  -0.9624  12.3082   H         1 RES1   0.0000
    71 C24      5.9565  -1.9859  14.0246   C.ar      1 RES1   0.0000
    72 H31      6.5086  -2.6503  13.6293   H         1 RES1   0.0000
    73 C25      5.6925  -2.0283  15.3838   C.ar      1 RES1   0.0000
    74 C26      4.8940  -1.0396  15.9432   C.ar      1 RES1   0.0000
    75 H32      4.7073  -1.0540  16.8752   H         1 RES1   0.0000
    76 C27      4.3636  -0.0237  15.1436   C.ar      1 RES1   0.0000
    77 H33      3.8267   0.6495  15.5434   H         1 RES1   0.0000
    78 C28      6.1864  -3.2027  16.2184   C.3       1 RES1   0.0000
    79 H34      5.4862  -3.9170  16.2108   H         1 RES1   0.0000
    80 C29      7.7329  -5.0035  16.1211   C.3       1 RES1   0.0000
    81 H35      8.5510  -5.3025  15.6726   H         1 RES1   0.0000
    82 H36      7.8911  -4.9488  17.0865   H         1 RES1   0.0000
    83 H37      7.0117  -5.6436  15.9447   H         1 RES1   0.0000
    84 C30      5.5840  -3.4638  18.4730   C.3       1 RES1   0.0000
    85 H38      5.8112  -3.1520  19.3745   H         1 RES1   0.0000
    86 H39      4.6494  -3.2421  18.2769   H         1 RES1   0.0000
    87 H40      5.7067  -4.4346  18.4213   H         1 RES1   0.0000
    88 B1       1.9478   5.6287   9.3026   B         1 RES1   0.0000
    89 B2       4.0067   1.1850  12.8555   B         1 RES1   0.0000
@<TRIPOS>BOND
     1     1    12    1
     2     2    12    1
     3     3    13    1
     4     4    14    1
     5     5    15    1
     6     6    16    1
     7     7    17    1
     8     8    58    1
     9     9    58    1
    10    10    78    1
    11    11    78    1
    12    12    22    2
    13    13     1    1
    14    14     1    1
    15    15     1    1
    16    16     1    1
    17    17     1    1
    18    18    19    1
    19    20    18    1
    20    21    18    1
    21    22    18    1
    22    23    13    2
    23    24    23    1
    24    25    24    1
    25    26    24    1
    26    27    24    1
    27    28    29    1
    28    30    28    1
    29    31    28    1
    30    32    14    2
    31    33    15    2
    32    34    33    1
    33    35    34    1
    34    36    34    1
    35    37    34    1
    36    38    39    1
    37    40    38    1
    38    41    38    1
    39    42    16    2
    40    43    17    2
    41    44    43    1
    42    45    44    1
    43    46    44    1
    44    47    44    1
    45    48    49   ar
    46    49    50    1
    47    51    49   ar
    48    52    51    1
    49    53    51   ar
    50    54    53   ar
    51    55    54    1
    52    56    48   ar
    53    57    56    1
    54    58    53    1
    55    59    58    1
    56    60     8    1
    57    61    60    1
    58    62    60    1
    59    63    60    1
    60    64     9    1
    61    65    64    1
    62    66    64    1
    63    67    64    1
    64    68    69   ar
    65    69    70    1
    66    71    69   ar
    67    72    71    1
    68    73    71   ar
    69    74    73   ar
    70    75    74    1
    71    76    68   ar
    72    77    76    1
    73    78    73    1
    74    79    78    1
    75    80    10    1
    76    81    80    1
    77    82    80    1
    78    83    80    1
    79    84    11    1
    80    85    84    1
    81    86    84    1
    82    87    84    1
    83    88     2    1
    84    89     3    1
    85     4    88    1
    86     5    89    1
    87     6    88    1
    88     7    89    1
    89    22    23    1
    90    28    32    1
    91    32    33    1
    92    38    42    1
    93    42    43    1
    94    48    88    1
    95    54    56   ar
    96    68    89    1
    97    74    76   ar
@<TRIPOS>SUBSTRUCTURE
     1 RES1        1 GROUP             0 ****  ****    0  
@<TRIPOS>CRYSIN
    8.4920   13.2533   16.1526  100.3640  102.5250  107.8920     2     1
