@<TRIPOS>MOLECULE
HUTCIK
   101   112     1     0     0
SMALL
NO_CHARGES
****
Generated from the CSD

@<TRIPOS>ATOM
     1 Fe1      8.2445   5.8557  10.6084   Fe        1 RES1   0.0000
     2 O1       5.3647   6.2142  10.3810   O.3       1 RES1   0.0000
     3 O2      10.1764   6.8528   8.6654   O.3       1 RES1   0.0000
     4 O3       6.0530   4.4831  11.9806   O.3       1 RES1   0.0000
     5 O4      -0.3183   7.8174  12.5652   O.3       1 RES1   0.0000
     6 O5      -0.2030   6.0882  11.0207   O.3       1 RES1   0.0000
     7 N1       6.5959   6.3413   9.7885   N.2       1 RES1   0.0000
     8 N2       8.8574   6.7919   9.0541   N.2       1 RES1   0.0000
     9 N3       7.2589   4.3744  11.3257   N.2       1 RES1   0.0000
    10 C1       6.6360   6.9866   8.6353   C.2       1 RES1   0.0000
    11 C2       7.9779   7.1813   8.1795   C.2       1 RES1   0.0000
    12 C3       8.3017   7.7388   6.8224   C.3       1 RES1   0.0000
    13 H1       8.5581   7.0003   6.2151   H         1 RES1   0.0000
    14 H2       9.0715   8.3585   6.8941   H         1 RES1   0.0000
    15 C4       7.1060   8.4792   6.2448   C.3       1 RES1   0.0000
    16 H3       7.2680   8.6711   5.2872   H         1 RES1   0.0000
    17 H4       6.9940   9.3438   6.7158   H         1 RES1   0.0000
    18 C5       5.8275   7.6575   6.3863   C.3       1 RES1   0.0000
    19 H5       5.9574   6.7682   5.9704   H         1 RES1   0.0000
    20 H6       5.0864   8.1127   5.9110   H         1 RES1   0.0000
    21 C6       5.4506   7.4783   7.8700   C.3       1 RES1   0.0000
    22 H7       5.1475   8.3430   8.2449   H         1 RES1   0.0000
    23 H8       4.7088   6.8276   7.9507   H         1 RES1   0.0000
    24 C7       7.6367   3.1588  10.9896   C.2       1 RES1   0.0000
    25 C8       6.8935   1.9112  11.3340   C.3       1 RES1   0.0000
    26 H9       5.9386   2.0163  11.0992   H         1 RES1   0.0000
    27 H10      6.9566   1.7430  12.3072   H         1 RES1   0.0000
    28 C9       7.4874   0.7239  10.5646   C.3       1 RES1   0.0000
    29 H11      7.1348  -0.1216  10.9408   H         1 RES1   0.0000
    30 H12      7.2122   0.7751   9.6155   H         1 RES1   0.0000
    31 C10      4.0203   5.8962  12.5138   C.ar      1 RES1   0.0000
    32 C11      2.9076   6.4373  11.8659   C.ar      1 RES1   0.0000
    33 H13      2.9993   6.7408  10.9705   H         1 RES1   0.0000
    34 C12      1.6651   6.5461  12.4897   C.ar      1 RES1   0.0000
    35 C13      1.5225   6.1229  13.8178   C.ar      1 RES1   0.0000
    36 H14      0.6876   6.2097  14.2620   H         1 RES1   0.0000
    37 C14      2.6079   5.5772  14.4770   C.ar      1 RES1   0.0000
    38 H15      2.5139   5.2784  15.3737   H         1 RES1   0.0000
    39 C15      3.8400   5.4639  13.8338   C.ar      1 RES1   0.0000
    40 H16      4.5743   5.0846  14.3016   H         1 RES1   0.0000
    41 C16      0.5166   7.1054  11.7131   C.3       1 RES1   0.0000
    42 H17      0.8836   7.7434  11.0342   H         1 RES1   0.0000
    43 C17     -1.3019   8.5751  11.8744   C.3       1 RES1   0.0000
    44 H18     -0.8703   9.1172  11.1813   H         1 RES1   0.0000
    45 H19     -1.7648   9.1638  12.5080   H         1 RES1   0.0000
    46 H20     -1.9485   7.9673  11.4585   H         1 RES1   0.0000
    47 C18     -0.8247   5.1211  11.8588   C.3       1 RES1   0.0000
    48 H21     -1.3098   5.5763  12.5788   H         1 RES1   0.0000
    49 H22     -0.1400   4.5353  12.2464   H         1 RES1   0.0000
    50 H23     -1.4509   4.5846  11.3298   H         1 RES1   0.0000
    51 B1       5.4643   5.8569  11.8348   B         1 RES1   0.0000
    52 O1A     11.1243   6.2142  10.8359   O.3       1 RES1   0.0000
    53 O2A      6.3126   6.8528  12.5515   O.3       1 RES1   0.0000
    54 O3A     10.4360   4.4831   9.2363   O.3       1 RES1   0.0000
    55 O4A     16.8072   7.8174   8.6517   O.3       1 RES1   0.0000
    56 O5A     16.6920   6.0882  10.1961   O.3       1 RES1   0.0000
    57 N1A      9.8931   6.3413  11.4284   N.2       1 RES1   0.0000
    58 N2A      7.6315   6.7919  12.1628   N.2       1 RES1   0.0000
    59 N3A      9.2301   4.3744   9.8912   N.2       1 RES1   0.0000
    60 C1A      9.8530   6.9866  12.5816   C.2       1 RES1   0.0000
    61 C2A      8.5111   7.1813  13.0373   C.2       1 RES1   0.0000
    62 C3A      8.1872   7.7388  14.3945   C.3       1 RES1   0.0000
    63 H1A      7.9308   7.0003  15.0017   H         1 RES1   0.0000
    64 H2A      7.4175   8.3585  14.3228   H         1 RES1   0.0000
    65 C4A      9.3830   8.4792  14.9720   C.3       1 RES1   0.0000
    66 H3A      9.2209   8.6711  15.9296   H         1 RES1   0.0000
    67 H4A      9.4949   9.3438  14.5010   H         1 RES1   0.0000
    68 C5A     10.6614   7.6575  14.8306   C.3       1 RES1   0.0000
    69 H5A     10.5315   6.7682  15.2464   H         1 RES1   0.0000
    70 H6A     11.4025   8.1127  15.3058   H         1 RES1   0.0000
    71 C6A     11.0384   7.4783  13.3468   C.3       1 RES1   0.0000
    72 H7A     11.3415   8.3430  12.9720   H         1 RES1   0.0000
    73 H8A     11.7802   6.8276  13.2662   H         1 RES1   0.0000
    74 C7A      8.8523   3.1588  10.2272   C.2       1 RES1   0.0000
    75 C8A      9.5954   1.9112   9.8828   C.3       1 RES1   0.0000
    76 H9A     10.5504   2.0163  10.1176   H         1 RES1   0.0000
    77 H10A     9.5324   1.7430   8.9097   H         1 RES1   0.0000
    78 C9A      9.0015   0.7239  10.6523   C.3       1 RES1   0.0000
    79 H11A     9.3542  -0.1216  10.2760   H         1 RES1   0.0000
    80 H12A     9.2768   0.7751  11.6014   H         1 RES1   0.0000
    81 C10A    12.4687   5.8962   8.7030   C.ar      1 RES1   0.0000
    82 C11A    13.5814   6.4373   9.3510   C.ar      1 RES1   0.0000
    83 H13A    13.4896   6.7408  10.2463   H         1 RES1   0.0000
    84 C12A    14.8239   6.5461   8.7272   C.ar      1 RES1   0.0000
    85 C13A    14.9665   6.1229   7.3990   C.ar      1 RES1   0.0000
    86 H14A    15.8014   6.2097   6.9549   H         1 RES1   0.0000
    87 C14A    13.8811   5.5772   6.7399   C.ar      1 RES1   0.0000
    88 H15A    13.9751   5.2784   5.8431   H         1 RES1   0.0000
    89 C15A    12.6490   5.4639   7.3830   C.ar      1 RES1   0.0000
    90 H16A    11.9147   5.0846   6.9153   H         1 RES1   0.0000
    91 C16A    15.9724   7.1054   9.5037   C.3       1 RES1   0.0000
    92 H17A    15.6054   7.7434  10.1827   H         1 RES1   0.0000
    93 C17A    17.7909   8.5751   9.3425   C.3       1 RES1   0.0000
    94 H18A    17.3593   9.1172  10.0356   H         1 RES1   0.0000
    95 H19A    18.2538   9.1638   8.7088   H         1 RES1   0.0000
    96 H20A    18.4374   7.9673   9.7583   H         1 RES1   0.0000
    97 C18A    17.3137   5.1211   9.3581   C.3       1 RES1   0.0000
    98 H21A    17.7988   5.5763   8.6381   H         1 RES1   0.0000
    99 H22A    16.6290   4.5353   8.9705   H         1 RES1   0.0000
   100 H23A    17.9399   4.5846   9.8871   H         1 RES1   0.0000
   101 B1A     11.0247   5.8569   9.3821   B         1 RES1   0.0000
@<TRIPOS>BOND
     1     1     7    1
     2     2     7    1
     3     3     8    1
     4     4     9    1
     5     5    41    1
     6     6    41    1
     7     7    10    2
     8     8     1    1
     9     9     1    1
    10    10    11    1
    11    11     8    2
    12    12    11    1
    13    13    12    1
    14    14    12    1
    15    15    12    1
    16    16    15    1
    17    17    15    1
    18    18    15    1
    19    19    18    1
    20    20    18    1
    21    21    10    1
    22    22    21    1
    23    23    21    1
    24    24     9    2
    25    25    24    1
    26    26    25    1
    27    27    25    1
    28    28    25    1
    29    29    28    1
    30    30    28    1
    31    31    32   ar
    32    32    33    1
    33    34    32   ar
    34    35    34   ar
    35    36    35    1
    36    37    35   ar
    37    38    37    1
    38    39    31   ar
    39    40    39    1
    40    41    34    1
    41    42    41    1
    42    43     5    1
    43    44    43    1
    44    45    43    1
    45    46    43    1
    46    47     6    1
    47    48    47    1
    48    49    47    1
    49    50    47    1
    50    51     2    1
    51    52    57    1
    52    53    51    1
    53    54    59    1
    54    55    91    1
    55    56    91    1
    56    57     1    1
    57    58     1    1
    58    59     1    1
    59    60    57    2
    60    61    58    2
    61    62    61    1
    62    63    62    1
    63    64    62    1
    64    65    62    1
    65    66    65    1
    66    67    65    1
    67    68    65    1
    68    69    68    1
    69    70    68    1
    70    71    60    1
    71    72    71    1
    72    73    71    1
    73    74    24    1
    74    75    74    1
    75    76    75    1
    76    77    75    1
    77    78    28    1
    78    79    78    1
    79    80    78    1
    80    81    82   ar
    81    82    83    1
    82    84    82   ar
    83    85    84   ar
    84    86    85    1
    85    87    85   ar
    86    88    87    1
    87    89    81   ar
    88    90    89    1
    89    91    84    1
    90    92    91    1
    91    93    55    1
    92    94    93    1
    93    95    93    1
    94    96    93    1
    95    97    56    1
    96    98    97    1
    97    99    97    1
    98   100    97    1
    99   101     3    1
   100     4    51    1
   101    18    21    1
   102    31    51    1
   103    37    39   ar
   104    52   101    1
   105    53    58    1
   106    54   101    1
   107    59    74    2
   108    60    61    1
   109    68    71    1
   110    75    78    1
   111    81   101    1
   112    87    89   ar
@<TRIPOS>SUBSTRUCTURE
     1 RES1        1 GROUP             0 ****  ****    0  
@<TRIPOS>CRYSIN
   28.6400    9.1400   16.3000   90.0000  119.8000   90.0000    15     1
