@<TRIPOS>MOLECULE
HUTCOQ
   101   112     1     0     0
SMALL
NO_CHARGES
****
Generated from the CSD

@<TRIPOS>ATOM
     1 Fe1      6.8563  11.2873  10.4827   Fe        1 RES1   0.0000
     2 O1       4.3263  12.5033  11.2989   O.3       1 RES1   0.0000
     3 O2       9.1012  10.2372   8.9771   O.3       1 RES1   0.0000
     4 O3       7.0377   8.9365   8.7637   O.3       1 RES1   0.0000
     5 O4       6.2628  13.1467  12.6383   O.3       1 RES1   0.0000
     6 O5       8.3424   8.8011  10.8225   O.3       1 RES1   0.0000
     7 O6       5.9694  14.0616  10.3729   O.3       1 RES1   0.0000
     8 N1       6.2331   9.8927   9.3341   N.2       1 RES1   0.0000
     9 N2       4.9553  11.4559  10.6601   N.2       1 RES1   0.0000
    10 N3       6.7851  13.0769   9.8656   N.2       1 RES1   0.0000
    11 N4       7.7396   9.8914  11.4170   N.2       1 RES1   0.0000
    12 N5       8.3691  11.3421   9.3274   N.2       1 RES1   0.0000
    13 N6       6.9057  11.9915  12.2504   N.2       1 RES1   0.0000
    14 C1       9.5921   7.7991   7.3452   C.ar      1 RES1   0.0000
    15 H1       9.2660   8.5112   6.8083   H         1 RES1   0.0000
    16 O7      12.5200   4.0124   7.7317   O.3       1 RES1   0.0000
    17 O8       2.1657  17.8055  15.4982   O.3       1 RES1   0.0000
    18 C2       7.6774  13.4903   9.0013   C.2       1 RES1   0.0000
    19 C3       9.2743   7.7719   8.7100   C.ar      1 RES1   0.0000
    20 C4       7.1718  11.4592  14.6769   C.3       1 RES1   0.0000
    21 H2       6.2498  11.7694  14.8594   H         1 RES1   0.0000
    22 H3       7.7997  12.1649  14.9722   H         1 RES1   0.0000
    23 O9      12.2605   5.1384   5.7374   O.3       1 RES1   0.0000
    24 C5       8.5603  12.4194   8.6080   C.2       1 RES1   0.0000
    25 O10      2.7440  19.3079  13.8502   O.3       1 RES1   0.0000
    26 C6       4.3185   8.5407   8.5436   C.3       1 RES1   0.0000
    27 H4       4.6735   7.6918   8.9060   H         1 RES1   0.0000
    28 H5       4.5457   8.5822   7.5814   H         1 RES1   0.0000
    29 C7       3.0347  15.6608  14.0273   C.ar      1 RES1   0.0000
    30 H6       2.5455  15.4971  14.8245   H         1 RES1   0.0000
    31 C8       4.9497   9.6688   9.2415   C.2       1 RES1   0.0000
    32 C9       4.1948  10.6845   9.9488   C.2       1 RES1   0.0000
    33 C10      8.6010   8.9983  13.5697   C.3       1 RES1   0.0000
    34 H7       9.5274   8.8634  13.2462   H         1 RES1   0.0000
    35 H8       8.1243   8.1334  13.4986   H         1 RES1   0.0000
    36 C11     10.8325   5.7402   7.5116   C.ar      1 RES1   0.0000
    37 C12      2.2558  18.0355  14.1307   C.3       1 RES1   0.0000
    38 H9       1.3292  17.9856  13.7603   H         1 RES1   0.0000
    39 C13     11.6383   4.6436   6.8714   C.3       1 RES1   0.0000
    40 H10     10.9876   3.9492   6.5641   H         1 RES1   0.0000
    41 C14      7.7730  14.8646   8.4483   C.3       1 RES1   0.0000
    42 H11      6.9251  15.0906   7.9920   H         1 RES1   0.0000
    43 H12      7.8965  15.5051   9.1932   H         1 RES1   0.0000
    44 C15      3.0521  16.9230  13.4945   C.ar      1 RES1   0.0000
    45 C16      9.7390   6.6239   9.4348   C.ar      1 RES1   0.0000
    46 H13      9.5030   6.5310  10.3501   H         1 RES1   0.0000
    47 C17     10.3700   6.8123   6.7560   C.ar      1 RES1   0.0000
    48 H14     10.5887   6.8701   5.8340   H         1 RES1   0.0000
    49 C18      3.7208  14.6229  13.4221   C.ar      1 RES1   0.0000
    50 H15      3.6808  13.7532  13.8032   H         1 RES1   0.0000
    51 C19      4.4722  14.8280  12.2531   C.ar      1 RES1   0.0000
    52 B1       8.4327   8.9555   9.3516   B         1 RES1   0.0000
    53 C20      9.5070  12.5510   7.4646   C.3       1 RES1   0.0000
    54 H16      9.4066  11.7784   6.8540   H         1 RES1   0.0000
    55 H17     10.4385  12.5639   7.8001   H         1 RES1   0.0000
    56 C21      7.9168  10.0126  12.7014   C.2       1 RES1   0.0000
    57 C22      7.3381  11.2224  13.2140   C.2       1 RES1   0.0000
    58 B2       5.2821  13.6217  11.6223   B         1 RES1   0.0000
    59 C23      4.3924  16.1370  11.6626   C.ar      1 RES1   0.0000
    60 H18      4.7870  16.3017  10.8144   H         1 RES1   0.0000
    61 C24      2.8002   8.5651   8.7074   C.3       1 RES1   0.0000
    62 H19      2.3896   8.0036   8.0041   H         1 RES1   0.0000
    63 H20      2.5617   8.1774   9.5851   H         1 RES1   0.0000
    64 C25     10.4990   5.6779   8.8563   C.ar      1 RES1   0.0000
    65 H21     10.8144   4.9509   9.3797   H         1 RES1   0.0000
    66 C26      2.7160  10.7960   9.8173   C.3       1 RES1   0.0000
    67 H22      2.4609  11.7424   9.6790   H         1 RES1   0.0000
    68 H23      2.2795  10.4747  10.6453   H         1 RES1   0.0000
    69 C27      3.7470  17.1423  12.3242   C.ar      1 RES1   0.0000
    70 H24      3.7782  18.0218  11.9673   H         1 RES1   0.0000
    71 C28      2.2475   9.9479   8.6161   C.3       1 RES1   0.0000
    72 H25      1.2583   9.9074   8.6027   H         1 RES1   0.0000
    73 H26      2.5490  10.3701   7.7733   H         1 RES1   0.0000
    74 C29      8.8862  15.0096   7.4982   C.3       1 RES1   0.0000
    75 H27      8.6682  15.7502   6.8781   H         1 RES1   0.0000
    76 H28      9.6938  15.2770   8.0055   H         1 RES1   0.0000
    77 C30      9.2102  13.8454   6.7144   C.3       1 RES1   0.0000
    78 H29      9.9994  14.0618   6.1574   H         1 RES1   0.0000
    79 H30      8.4558  13.6726   6.0970   H         1 RES1   0.0000
    80 C31      8.6369   9.4331  15.0178   C.3       1 RES1   0.0000
    81 H31      8.7288   8.6292  15.5882   H         1 RES1   0.0000
    82 H32      9.4368   9.9978  15.1614   H         1 RES1   0.0000
    83 C32     12.8179   4.1836   4.7066   C.3       1 RES1   0.0000
    84 H33     13.0313   4.6758   3.8866   H         1 RES1   0.0000
    85 H34     12.1527   3.4918   4.5094   H         1 RES1   0.0000
    86 H35     13.6313   3.7634   5.0569   H         1 RES1   0.0000
    87 C33      7.4403  10.1856  15.4486   C.3       1 RES1   0.0000
    88 H36      7.5408  10.4148  16.4055   H         1 RES1   0.0000
    89 H37      6.6502   9.5948  15.3640   H         1 RES1   0.0000
    90 C34     13.5329   4.8972   8.2658   C.3       1 RES1   0.0000
    91 H38     13.9474   5.3990   7.5330   H         1 RES1   0.0000
    92 H39     14.2176   4.3695   8.7275   H         1 RES1   0.0000
    93 H40     13.1204   5.5218   8.8979   H         1 RES1   0.0000
    94 C35      1.1387  18.5308  16.2324   C.3       1 RES1   0.0000
    95 H41      0.3436  18.6323  15.6687   H         1 RES1   0.0000
    96 H42      1.4787  19.4161  16.4806   H         1 RES1   0.0000
    97 H43      0.9037  18.0321  17.0430   H         1 RES1   0.0000
    98 C36      4.0628  19.5607  14.4447   C.3       1 RES1   0.0000
    99 H44      4.4716  20.3400  14.0139   H         1 RES1   0.0000
   100 H45      4.6361  18.7772  14.3145   H         1 RES1   0.0000
   101 H46      3.9596  19.7329  15.4043   H         1 RES1   0.0000
@<TRIPOS>BOND
     1     1     8    1
     2     2     9    1
     3     3    12    1
     4     4     8    1
     5     5    13    1
     6     6    11    1
     7     7    10    1
     8     8    31    2
     9     9     1    1
    10    10     1    1
    11    11     1    1
    12    12     1    1
    13    13     1    1
    14    14    15    1
    15    16    39    1
    16    17    37    1
    17    18    10    2
    18    19    14   ar
    19    20    21    1
    20    22    20    1
    21    23    39    1
    22    24    12    2
    23    25    37    1
    24    26    27    1
    25    28    26    1
    26    29    30    1
    27    31    26    1
    28    32     9    2
    29    33    34    1
    30    35    33    1
    31    36    39    1
    32    37    38    1
    33    39    40    1
    34    41    18    1
    35    42    41    1
    36    43    41    1
    37    44    29   ar
    38    45    19   ar
    39    46    45    1
    40    47    14   ar
    41    48    47    1
    42    49    29   ar
    43    50    49    1
    44    51    49   ar
    45    52     3    1
    46    53    24    1
    47    54    53    1
    48    55    53    1
    49    56    11    2
    50    57    13    2
    51    58     2    1
    52    59    51   ar
    53    60    59    1
    54    61    26    1
    55    62    61    1
    56    63    61    1
    57    64    36   ar
    58    65    64    1
    59    66    32    1
    60    67    66    1
    61    68    66    1
    62    69    44   ar
    63    70    69    1
    64    71    61    1
    65    72    71    1
    66    73    71    1
    67    74    41    1
    68    75    74    1
    69    76    74    1
    70    77    53    1
    71    78    77    1
    72    79    77    1
    73    80    33    1
    74    81    80    1
    75    82    80    1
    76    83    23    1
    77    84    83    1
    78    85    83    1
    79    86    83    1
    80    87    20    1
    81    88    87    1
    82    89    87    1
    83    90    16    1
    84    91    90    1
    85    92    90    1
    86    93    90    1
    87    94    17    1
    88    95    94    1
    89    96    94    1
    90    97    94    1
    91    98    25    1
    92    99    98    1
    93   100    98    1
    94   101    98    1
    95     4    52    1
    96     5    58    1
    97     6    52    1
    98     7    58    1
    99    18    24    1
   100    19    52    1
   101    20    57    1
   102    31    32    1
   103    33    56    1
   104    36    47   ar
   105    37    44    1
   106    45    64   ar
   107    51    58    1
   108    56    57    1
   109    59    69   ar
   110    66    71    1
   111    74    77    1
   112    80    87    1
@<TRIPOS>SUBSTRUCTURE
     1 RES1        1 GROUP             0 ****  ****    0  
@<TRIPOS>CRYSIN
   10.2550   14.0390   14.6070   66.8040   82.3820   74.1960     2     1
