@<TRIPOS>MOLECULE
HUTCAC
    89    97     1     0     0
SMALL
NO_CHARGES
****
Generated from the CSD

@<TRIPOS>ATOM
     1 Fe1      5.8757   6.4103   2.8476   Fe        1 RES1   0.0000
     2 O1       8.0421   6.0044   0.9442   O.3       1 RES1   0.0000
     3 O2       3.5313   8.0430   2.3362   O.3       1 RES1   0.0000
     4 O3       8.0112   4.4409   2.8261   O.3       1 RES1   0.0000
     5 O4       3.0607   5.7631   3.1298   O.3       1 RES1   0.0000
     6 O5       8.7307   6.7599   3.1738   O.3       1 RES1   0.0000
     7 O6       3.8813   7.4555   4.6909   O.3       1 RES1   0.0000
     8 O7      14.1603   2.4097   0.7214   O.3       1 RES1   0.0000
     9 O8      15.0984   4.5740   0.8018   O.3       1 RES1   0.0000
    10 O9      -3.1570   7.1560   5.3662   O.3       1 RES1   0.0000
    11 O10     -3.1849   9.4201   4.8919   O.3       1 RES1   0.0000
    12 N1       6.7868   6.5194   1.1725   N.2       1 RES1   0.0000
    13 N2       4.7568   7.6070   1.8773   N.2       1 RES1   0.0000
    14 N3       6.6627   4.6855   3.0073   N.2       1 RES1   0.0000
    15 N4       4.3333   5.2804   2.9727   N.2       1 RES1   0.0000
    16 N5       7.4726   7.0952   3.6213   N.2       1 RES1   0.0000
    17 N6       5.2197   7.2750   4.4260   N.2       1 RES1   0.0000
    18 C1       6.9554   7.4805  -1.0942   C.3       1 RES1   0.0000
    19 H1       7.8627   7.8250  -0.9556   H         1 RES1   0.0000
    20 H2       6.4395   8.1229  -1.6250   H         1 RES1   0.0000
    21 H3       7.0006   6.6251  -1.5706   H         1 RES1   0.0000
    22 C2       6.2929   7.2816   0.2280   C.2       1 RES1   0.0000
    23 C3       5.0427   7.8841   0.6259   C.2       1 RES1   0.0000
    24 C4       4.1709   8.7070  -0.2597   C.3       1 RES1   0.0000
    25 H4       3.7594   8.1328  -0.9390   H         1 RES1   0.0000
    26 H5       4.7099   9.3976  -0.6978   H         1 RES1   0.0000
    27 H6       3.4698   9.1330   0.2767   H         1 RES1   0.0000
    28 C5       6.4187   2.2400   2.9675   C.3       1 RES1   0.0000
    29 H7       6.7468   2.0761   2.0578   H         1 RES1   0.0000
    30 H8       5.7014   1.6068   3.1742   H         1 RES1   0.0000
    31 H9       7.1537   2.1218   3.6047   H         1 RES1   0.0000
    32 C6       5.8975   3.6329   3.0633   C.2       1 RES1   0.0000
    33 C7       4.5048   3.9932   3.1622   C.2       1 RES1   0.0000
    34 C8       3.4063   3.0396   3.5040   C.3       1 RES1   0.0000
    35 H10      3.3848   2.9015   4.4728   H         1 RES1   0.0000
    36 H11      3.5643   2.1834   3.0560   H         1 RES1   0.0000
    37 H12      2.5487   3.4099   3.2074   H         1 RES1   0.0000
    38 C9       8.6195   8.1894   5.5102   C.3       1 RES1   0.0000
    39 H13      8.8893   7.4905   6.1427   H         1 RES1   0.0000
    40 H14      8.4094   9.0107   6.0008   H         1 RES1   0.0000
    41 H15      9.3520   8.3642   4.8844   H         1 RES1   0.0000
    42 C10      7.4236   7.7409   4.7588   C.2       1 RES1   0.0000
    43 C11      6.0543   7.9331   5.1772   C.2       1 RES1   0.0000
    44 C12      5.6540   8.8202   6.3106   C.3       1 RES1   0.0000
    45 H16      4.6872   8.9691   6.2823   H         1 RES1   0.0000
    46 H17      6.1183   9.6797   6.2326   H         1 RES1   0.0000
    47 H18      5.8943   8.3950   7.1598   H         1 RES1   0.0000
    48 C13     10.2247   5.1773   1.9445   C.ar      1 RES1   0.0000
    49 C14     11.2309   5.4269   2.8776   C.ar      1 RES1   0.0000
    50 H19     11.0232   5.9295   3.6568   H         1 RES1   0.0000
    51 C15     12.5268   4.9593   2.6995   C.ar      1 RES1   0.0000
    52 H20     13.1945   5.1473   3.3493   H         1 RES1   0.0000
    53 C16     12.8488   4.2179   1.5703   C.ar      1 RES1   0.0000
    54 C17     11.8625   3.9766   0.6183   C.ar      1 RES1   0.0000
    55 H21     12.0739   3.4798  -0.1632   H         1 RES1   0.0000
    56 C18     10.5742   4.4558   0.8009   C.ar      1 RES1   0.0000
    57 H22      9.9174   4.2911   0.1348   H         1 RES1   0.0000
    58 C19     14.2468   3.6795   1.4121   C.3       1 RES1   0.0000
    59 H23     14.6069   3.4989   2.3275   H         1 RES1   0.0000
    60 C20     15.4361   1.7307   0.6197   C.3       1 RES1   0.0000
    61 H24     16.0597   2.2833   0.1017   H         1 RES1   0.0000
    62 H25     15.3123   0.8687   0.1679   H         1 RES1   0.0000
    63 H26     15.7994   1.5801   1.5162   H         1 RES1   0.0000
    64 C21     14.7508   4.7995  -0.5771   C.3       1 RES1   0.0000
    65 H27     14.7289   3.9424  -1.0526   H         1 RES1   0.0000
    66 H28     15.4198   5.3853  -0.9911   H         1 RES1   0.0000
    67 H29     13.8709   5.2239  -0.6292   H         1 RES1   0.0000
    68 C22      1.5394   7.6328   3.8521   C.ar      1 RES1   0.0000
    69 C23      1.2764   8.4981   4.9250   C.ar      1 RES1   0.0000
    70 H30      2.0037   8.9283   5.3598   H         1 RES1   0.0000
    71 C24     -0.0107   8.7444   5.3690   C.ar      1 RES1   0.0000
    72 H31     -0.1505   9.3452   6.0930   H         1 RES1   0.0000
    73 C25     -1.0967   8.1304   4.7770   C.ar      1 RES1   0.0000
    74 C26     -0.8671   7.3091   3.6662   C.ar      1 RES1   0.0000
    75 H32     -1.6011   6.9113   3.2145   H         1 RES1   0.0000
    76 C27      0.4365   7.0694   3.2090   C.ar      1 RES1   0.0000
    77 H33      0.5699   6.5136   2.4505   H         1 RES1   0.0000
    78 C28     -2.4509   8.3392   5.4331   C.3       1 RES1   0.0000
    79 H34     -2.2904   8.5389   6.4005   H         1 RES1   0.0000
    80 C29     -4.2754   7.1310   6.2657   C.3       1 RES1   0.0000
    81 H35     -4.8892   7.8608   6.0434   H         1 RES1   0.0000
    82 H36     -3.9560   7.2417   7.1858   H         1 RES1   0.0000
    83 H37     -4.7422   6.2740   6.1829   H         1 RES1   0.0000
    84 C30     -3.5541   9.2270   3.5740   C.3       1 RES1   0.0000
    85 H38     -2.7994   9.4442   2.9874   H         1 RES1   0.0000
    86 H39     -4.3134   9.8087   3.3587   H         1 RES1   0.0000
    87 H40     -3.8114   8.2909   3.4392   H         1 RES1   0.0000
    88 B1       8.7196   5.6166   2.2201   B         1 RES1   0.0000
    89 B2       3.0310   7.2184   3.4817   B         1 RES1   0.0000
@<TRIPOS>BOND
     1     1    12    1
     2     2    12    1
     3     3    13    1
     4     4    14    1
     5     5    15    1
     6     6    16    1
     7     7    17    1
     8     8    58    1
     9     9    58    1
    10    10    78    1
    11    11    78    1
    12    12    22    2
    13    13     1    1
    14    14     1    1
    15    15     1    1
    16    16     1    1
    17    17     1    1
    18    18    19    1
    19    20    18    1
    20    21    18    1
    21    22    18    1
    22    23    13    2
    23    24    23    1
    24    25    24    1
    25    26    24    1
    26    27    24    1
    27    28    29    1
    28    30    28    1
    29    31    28    1
    30    32    14    2
    31    33    15    2
    32    34    33    1
    33    35    34    1
    34    36    34    1
    35    37    34    1
    36    38    39    1
    37    40    38    1
    38    41    38    1
    39    42    16    2
    40    43    17    2
    41    44    43    1
    42    45    44    1
    43    46    44    1
    44    47    44    1
    45    48    49   ar
    46    49    50    1
    47    51    49   ar
    48    52    51    1
    49    53    51   ar
    50    54    53   ar
    51    55    54    1
    52    56    48   ar
    53    57    56    1
    54    58    53    1
    55    59    58    1
    56    60     8    1
    57    61    60    1
    58    62    60    1
    59    63    60    1
    60    64     9    1
    61    65    64    1
    62    66    64    1
    63    67    64    1
    64    68    69   ar
    65    69    70    1
    66    71    69   ar
    67    72    71    1
    68    73    71   ar
    69    74    73   ar
    70    75    74    1
    71    76    68   ar
    72    77    76    1
    73    78    73    1
    74    79    78    1
    75    80    10    1
    76    81    80    1
    77    82    80    1
    78    83    80    1
    79    84    11    1
    80    85    84    1
    81    86    84    1
    82    87    84    1
    83    88     2    1
    84    89     3    1
    85     4    88    1
    86     5    89    1
    87     6    88    1
    88     7    89    1
    89    22    23    1
    90    28    32    1
    91    32    33    1
    92    38    42    1
    93    42    43    1
    94    48    88    1
    95    54    56   ar
    96    68    89    1
    97    74    76   ar
@<TRIPOS>SUBSTRUCTURE
     1 RES1        1 GROUP             0 ****  ****    0  
@<TRIPOS>CRYSIN
   16.5811    8.3209   31.3678   90.0000  131.0570   90.0000    14     1
