@<TRIPOS>MOLECULE
IBETUF
   107   120     3     0     0
SMALL
NO_CHARGES
****
Generated from the CSD

@<TRIPOS>ATOM
     1 Fe1     -1.2868  -3.8703  -3.7643   Fe        1 RES1   0.0000
     2 S1      -3.1780  -7.3662  -1.8482   S.3       1 RES1   0.0000
     3 S2      -3.4834  -7.3808  -5.3149   S.3       1 RES1   0.0000
     4 O1      -1.9929  -4.9008  -1.1418   O.3       1 RES1   0.0000
     5 O2      -2.0181  -5.1570  -6.2629   O.3       1 RES1   0.0000
     6 O3      -1.1492  -2.5877  -1.1822   O.3       1 RES1   0.0000
     7 O4      -2.6654  -2.8135  -6.0626   O.3       1 RES1   0.0000
     8 O5       0.3759  -4.4690  -1.4805   O.3       1 RES1   0.0000
     9 O6      -0.3152  -3.4013  -6.4349   O.3       1 RES1   0.0000
    10 N1      -2.1532  -5.0171  -2.4919   N.2       1 RES1   0.0000
    11 N2      -1.9786  -5.2421  -4.9040   N.2       1 RES1   0.0000
    12 N3      -1.5166  -2.4643  -2.4944   N.2       1 RES1   0.0000
    13 N4      -2.4032  -2.6597  -4.7258   N.2       1 RES1   0.0000
    14 N5       0.3347  -4.2910  -2.8420   N.2       1 RES1   0.0000
    15 N6       0.0292  -3.5829  -5.1185   N.2       1 RES1   0.0000
    16 N7      -4.3075  -9.7395  -4.8638   N.ar      1 RES1   0.0000
    17 B1      -0.8562  -3.9870  -0.8022   B         1 RES1   0.0000
    18 B2      -1.7263  -3.7591  -6.7253   B         1 RES1   0.0000
    19 F1      -0.6580  -4.0554   0.5347   F         1 RES1   0.0000
    20 F2      -1.9258  -3.6935  -8.0507   F         1 RES1   0.0000
    21 C1      -2.6566  -6.1275  -2.9279   C.2       1 RES1   0.0000
    22 C2      -2.6473  -6.2119  -4.3598   C.2       1 RES1   0.0000
    23 C3      -2.2568  -1.4304  -2.8099   C.2       1 RES1   0.0000
    24 C4      -2.7363  -1.5136  -4.1869   C.2       1 RES1   0.0000
    25 C5       1.4812  -4.1413  -3.4522   C.2       1 RES1   0.0000
    26 C6       1.2901  -3.8219  -4.8558   C.2       1 RES1   0.0000
    27 C7      -3.5454  -8.7520  -2.8314   C.ar      1 RES1   0.0000
    28 C8      -4.2013 -11.0113  -2.8574   C.ar      1 RES1   0.0000
    29 C9      -4.4484 -12.1932  -2.1593   C.ar      1 RES1   0.0000
    30 H1      -4.1434 -12.2875  -1.2855   H         1 RES1   0.0000
    31 C10     -5.1406 -13.2145  -2.7565   C.ar      1 RES1   0.0000
    32 H2      -5.3117 -13.9972  -2.2830   H         1 RES1   0.0000
    33 C11     -5.5873 -13.0853  -4.0599   C.ar      1 RES1   0.0000
    34 H3      -6.0732 -13.7774  -4.4472   H         1 RES1   0.0000
    35 C12     -5.3218 -11.9485  -4.7971   C.ar      1 RES1   0.0000
    36 H4      -5.6172 -11.8706  -5.6741   H         1 RES1   0.0000
    37 C13     -4.5962 -10.9141  -4.1885   C.ar      1 RES1   0.0000
    38 C14     -3.7881  -8.7096  -4.2357   C.ar      1 RES1   0.0000
    39 C15     -2.5576  -0.2993  -1.8918   C.ar      1 RES1   0.0000
    40 C16     -1.4856   0.3800  -1.3112   C.ar      1 RES1   0.0000
    41 H5      -0.6189   0.0629  -1.4173   H         1 RES1   0.0000
    42 C17     -1.7226   1.5318  -0.5741   C.ar      1 RES1   0.0000
    43 H6      -1.0085   2.0000  -0.2050   H         1 RES1   0.0000
    44 C18     -3.0103   1.9837  -0.3870   C.ar      1 RES1   0.0000
    45 H7      -3.1640   2.7554   0.1090   H         1 RES1   0.0000
    46 C19     -4.0725   1.2947  -0.9324   C.ar      1 RES1   0.0000
    47 H8      -4.9417   1.5898  -0.7827   H         1 RES1   0.0000
    48 C20     -3.8502   0.1626  -1.7029   C.ar      1 RES1   0.0000
    49 H9      -4.5663  -0.2845  -2.0910   H         1 RES1   0.0000
    50 C21     -3.4899  -0.4378  -4.8615   C.ar      1 RES1   0.0000
    51 C22     -3.1006   0.8802  -4.7370   C.ar      1 RES1   0.0000
    52 H10     -2.3341   1.0917  -4.2552   H         1 RES1   0.0000
    53 C23     -3.8479   1.8931  -5.3280   C.ar      1 RES1   0.0000
    54 H11     -3.5859   2.7803  -5.2315   H         1 RES1   0.0000
    55 C24     -4.9708   1.5837  -6.0533   C.ar      1 RES1   0.0000
    56 H12     -5.4641   2.2588  -6.4585   H         1 RES1   0.0000
    57 C25     -5.3673   0.2622  -6.1809   C.ar      1 RES1   0.0000
    58 H13     -6.1307   0.0554  -6.6716   H         1 RES1   0.0000
    59 C26     -4.6444  -0.7443  -5.5894   C.ar      1 RES1   0.0000
    60 H14     -4.9224  -1.6276  -5.6725   H         1 RES1   0.0000
    61 C27      2.7851  -4.2286  -2.7634   C.ar      1 RES1   0.0000
    62 C28      3.0405  -5.2352  -1.8402   C.ar      1 RES1   0.0000
    63 H15      2.4002  -5.8890  -1.6760   H         1 RES1   0.0000
    64 C29      4.2487  -5.2647  -1.1661   C.ar      1 RES1   0.0000
    65 H16      4.4212  -5.9413  -0.5516   H         1 RES1   0.0000
    66 C30      5.1987  -4.2897  -1.4059   C.ar      1 RES1   0.0000
    67 H17      5.9976  -4.2943  -0.9308   H         1 RES1   0.0000
    68 C31      4.9682  -3.3165  -2.3416   C.ar      1 RES1   0.0000
    69 H18      5.6234  -2.6786  -2.5141   H         1 RES1   0.0000
    70 C32      3.7676  -3.2711  -3.0349   C.ar      1 RES1   0.0000
    71 H19      3.6173  -2.6129  -3.6727   H         1 RES1   0.0000
    72 C33      2.3820  -3.7925  -5.8584   C.ar      1 RES1   0.0000
    73 C34      3.3642  -4.7856  -5.8509   C.ar      1 RES1   0.0000
    74 H20      3.3203  -5.4769  -5.2299   H         1 RES1   0.0000
    75 C35      4.4010  -4.7453  -6.7644   C.ar      1 RES1   0.0000
    76 H21      5.0427  -5.4168  -6.7676   H         1 RES1   0.0000
    77 C36      4.4843  -3.7040  -7.6740   C.ar      1 RES1   0.0000
    78 H22      5.1837  -3.6790  -8.2859   H         1 RES1   0.0000
    79 C37      3.5372  -2.7115  -7.6756   C.ar      1 RES1   0.0000
    80 H23      3.6070  -2.0064  -8.2793   H         1 RES1   0.0000
    81 C38      2.4767  -2.7497  -6.7841   C.ar      1 RES1   0.0000
    82 H24      1.8285  -2.0826  -6.8018   H         1 RES1   0.0000
    83 N8      -3.7316  -9.8349  -2.1219   N.ar      1 RES1   0.0000
    84 C39      1.9001  -4.4619   3.0250   C.ar      2 RES2   0.0000
    85 H25      2.0449  -4.3070   2.1203   H         2 RES2   0.0000
    86 C40      2.8113  -5.2217   3.7491   C.ar      2 RES2   0.0000
    87 H26      3.5593  -5.5745   3.3244   H         2 RES2   0.0000
    88 C41      2.6132  -5.4556   5.0883   C.ar      2 RES2   0.0000
    89 H27      3.2251  -5.9645   5.5684   H         2 RES2   0.0000
    90 C42      1.5026  -4.9337   5.7197   C.ar      2 RES2   0.0000
    91 H28      1.3703  -5.0775   6.6293   H         2 RES2   0.0000
    92 C43      0.5805  -4.1895   4.9858   C.ar      2 RES2   0.0000
    93 H29     -0.1816  -3.8564   5.4008   H         2 RES2   0.0000
    94 C44      0.7951  -3.9429   3.6336   C.ar      2 RES2   0.0000
    95 H30      0.1908  -3.4273   3.1503   H         2 RES2   0.0000
    96 C45      1.1867   1.3439  -8.6097   C.ar      3 RES3   0.0000
    97 H31      1.9673   1.7352  -8.9286   H         3 RES3   0.0000
    98 C46      0.2181   2.1253  -8.0109   C.ar      3 RES3   0.0000
    99 H32      0.3410   3.0431  -7.9262   H         3 RES3   0.0000
   100 C47      0.9997  -0.0112  -8.7350   C.ar      3 RES3   0.0000
   101 H33      1.6546  -0.5310  -9.1418   H         3 RES3   0.0000
   102 C47A    -0.9375   1.5285  -7.5373   C.ar      3 RES3   0.0000
   103 C45A    -1.1245   0.1734  -7.6626   C.ar      3 RES3   0.0000
   104 H31A    -1.9051  -0.2179  -7.3437   H         3 RES3   0.0000
   105 C46A    -0.1560  -0.6080  -8.2614   C.ar      3 RES3   0.0000
   106 H32A    -0.2788  -1.5258  -8.3461   H         3 RES3   0.0000
   107 H33A    -1.5924   2.0483  -7.1305   H         3 RES3   0.0000
@<TRIPOS>BOND
     1     1    10    1
     2     2    21    1
     3     3    22    1
     4     4    10    1
     5     5    11    1
     6     6    12    1
     7     7    13    1
     8     8    14    1
     9     9    15    1
    10    10    21    2
    11    11     1    1
    12    12     1    1
    13    13     1    1
    14    14     1    1
    15    15     1    1
    16    16    37   ar
    17    17     4    1
    18    18     5    1
    19    19    17    1
    20    20    18    1
    21    21    22    1
    22    22    11    2
    23    23    12    2
    24    24    13    2
    25    25    14    2
    26    26    15    2
    27    27     2    1
    28    28    29   ar
    29    29    30    1
    30    31    29   ar
    31    32    31    1
    32    33    31   ar
    33    34    33    1
    34    35    33   ar
    35    36    35    1
    36    37    28   ar
    37    38     3    1
    38    39    23    1
    39    40    39   ar
    40    41    40    1
    41    42    40   ar
    42    43    42    1
    43    44    42   ar
    44    45    44    1
    45    46    44   ar
    46    47    46    1
    47    48    39   ar
    48    49    48    1
    49    50    24    1
    50    51    50   ar
    51    52    51    1
    52    53    51   ar
    53    54    53    1
    54    55    53   ar
    55    56    55    1
    56    57    55   ar
    57    58    57    1
    58    59    50   ar
    59    60    59    1
    60    61    25    1
    61    62    61   ar
    62    63    62    1
    63    64    62   ar
    64    65    64    1
    65    66    64   ar
    66    67    66    1
    67    68    66   ar
    68    69    68    1
    69    70    61   ar
    70    71    70    1
    71    72    26    1
    72    73    72   ar
    73    74    73    1
    74    75    73   ar
    75    76    75    1
    76    77    75   ar
    77    78    77    1
    78    79    77   ar
    79    80    79    1
    80    81    72   ar
    81    82    81    1
    82    83    27   ar
    83     6    17    1
    84     7    18    1
    85     8    17    1
    86     9    18    1
    87    16    38   ar
    88    23    24    1
    89    25    26    1
    90    27    38   ar
    91    28    83   ar
    92    35    37   ar
    93    46    48   ar
    94    57    59   ar
    95    68    70   ar
    96    79    81   ar
    97    84    85    1
    98    86    84   ar
    99    87    86    1
   100    88    86   ar
   101    89    88    1
   102    90    88   ar
   103    91    90    1
   104    92    90   ar
   105    93    92    1
   106    94    84   ar
   107    95    94    1
   108    92    94   ar
   109    96    97    1
   110    98    96   ar
   111    99    98    1
   112   100    96   ar
   113   101   100    1
   114   102    98   ar
   115   103   102   ar
   116   104   103    1
   117   105   100   ar
   118   106   105    1
   119   107   102    1
   120   103   105   ar
@<TRIPOS>SUBSTRUCTURE
     1 RES1        1 GROUP             0 ****  ****    0  
     2 RES2       84 GROUP             0 ****  ****    0  
     3 RES3       96 GROUP             0 ****  ****    0  
@<TRIPOS>CRYSIN
   10.3368   13.2770   16.3430   95.0870   90.2180  105.0520     2     1
