@<TRIPOS>MOLECULE
IBEWAP
    75    83     4     0     0
SMALL
USER_CHARGES
****
Generated from the CSD

@<TRIPOS>ATOM
     1 C1       5.4916  11.4902  -0.1069   C.2       1 RES1   0.0000
     2 H1       5.3703  10.7818   0.5136   H         1 RES1   0.0000
     3 C2       6.4364  11.4578  -1.0737   C.2       1 RES1   0.0000
     4 H2       7.0349  10.7338  -1.2181   H         1 RES1   0.0000
     5 C3       5.1246  13.4946  -1.0304   C.2       1 RES1   0.0000
     6 C4       3.7690  15.3073  -0.5728   C.2       1 RES1   0.0000
     7 C5       3.4188  16.7321  -0.6869   C.ar      1 RES1   0.0000
     8 C6       3.9161  17.7404  -1.5003   C.ar      1 RES1   0.0000
     9 H3       4.6059  17.5761  -2.1331   H         1 RES1   0.0000
    10 C7       3.3524  19.0048  -1.3431   C.ar      1 RES1   0.0000
    11 H4       3.6666  19.7207  -1.8824   H         1 RES1   0.0000
    12 C8       2.3400  19.2475  -0.4154   C.ar      1 RES1   0.0000
    13 H5       1.9721  20.1199  -0.3435   H         1 RES1   0.0000
    14 C9       1.8579  18.2337   0.4080   C.ar      1 RES1   0.0000
    15 H6       1.1777  18.3978   1.0499   H         1 RES1   0.0000
    16 C10      2.4188  16.9702   0.2477   C.ar      1 RES1   0.0000
    17 C11      2.1348  15.6936   0.9058   C.2       1 RES1   0.0000
    18 C12      0.8146  14.3284   2.2207   C.2       1 RES1   0.0000
    19 C13     -0.5035  12.5561   3.2275   C.2       1 RES1   0.0000
    20 H7      -1.1160  11.9856   3.6772   H         1 RES1   0.0000
    21 C14      0.5604  12.1297   2.5099   C.2       1 RES1   0.0000
    22 H8       0.7637  11.2089   2.3995   H         1 RES1   0.0000
    23 C15      1.5583  13.1583  -1.6520   C.2       1 RES1   0.0000
    24 H9       1.4871  14.0946  -1.5038   H         1 RES1   0.0000
    25 C16      1.1420  12.5753  -2.7974   C.2       1 RES1   0.0000
    26 H10      0.7754  13.0378  -3.5423   H         1 RES1   0.0000
    27 C17      2.0442  11.0377  -1.1302   C.2       1 RES1   0.0000
    28 C18      2.7593   9.9221   0.7612   C.2       1 RES1   0.0000
    29 C19      2.8689   8.7136   1.5901   C.ar      1 RES1   0.0000
    30 C20      2.6913   7.3733   1.2804   C.ar      1 RES1   0.0000
    31 H11      2.4694   7.0945   0.3996   H         1 RES1   0.0000
    32 C21      2.8518   6.4528   2.3134   C.ar      1 RES1   0.0000
    33 H12      2.7324   5.5271   2.1383   H         1 RES1   0.0000
    34 C22      3.1871   6.8734   3.6071   C.ar      1 RES1   0.0000
    35 H13      3.3034   6.2249   4.2907   H         1 RES1   0.0000
    36 C23      3.3548   8.2224   3.9128   C.ar      1 RES1   0.0000
    37 H14      3.5728   8.5072   4.7920   H         1 RES1   0.0000
    38 C24      3.1903   9.1303   2.8785   C.ar      1 RES1   0.0000
    39 C25      3.3548  10.5882   2.8238   C.2       1 RES1   0.0000
    40 C26      4.0852  12.5962   3.6732   C.2       1 RES1   0.0000
    41 C27      5.0920  14.7849   4.0546   C.2       1 RES1   0.0000
    42 H15      5.5098  15.5816   4.3590   H         1 RES1   0.0000
    43 C28      4.6182  14.5905   2.8058   C.2       1 RES1   0.0000
    44 H16      4.6921  15.2505   2.1261   H         1 RES1   0.0000
    45 Fe1      3.0367  12.8622   0.9486   Fe        1 RES1   1.0000
    46 N1       1.3342  13.1350   1.9445   N.2       1 RES1   0.0000
    47 N2       1.1748  15.5623   1.7662   N.2       1 RES1   0.0000
    48 N3       2.9742  14.7081   0.3945   N.2       1 RES1   0.0000
    49 N4       4.7166  14.7671  -1.2828   N.2       1 RES1   0.0000
    50 N5       4.7123  12.6398  -0.0917   N.2       1 RES1   0.0000
    51 N6       2.0977  12.2962  -0.7039   N.2       1 RES1   0.0000
    52 N7       2.3505   9.8828  -0.4717   N.2       1 RES1   0.0000
    53 N8       3.0850  11.0315   1.5307   N.2       1 RES1   0.0000
    54 N9       3.7405  11.2892   3.8399   N.2       1 RES1   0.0000
    55 N10      4.0153  13.3618   2.5846   N.2       1 RES1   0.0000
    56 S1       1.3714  10.8801  -2.7124   S.3       1 RES1   0.0000
    57 S2      -0.5921  14.2644   3.2135   S.3       1 RES1   0.0000
    58 S3       6.4099  12.8922  -2.0000   S.3       1 RES1   0.0000
    59 S4       4.8330  13.3931   5.0104   S.3       1 RES1   0.0000
    60 C29      0.5155   0.6109   6.3354   C.3       2 RES2   0.0000
    61 H17      1.4290   0.2584   6.3712   H         2 RES2   0.0000
    62 H18     -0.1170  -0.1300   6.2275   H         2 RES2   0.0000
    63 H19      0.3183   1.0909   7.1669   H         2 RES2   0.0000
    64 O4       0.3947   1.4963   5.2393   O.3       2 RES2   0.0000
    65 H23      1.1483   1.6092   4.8866   H         2 RES2   0.0000
    66 C30      4.9625   0.8173   7.2279   C.3       3 RES3   0.0000
    67 H20      5.5423   0.0603   7.4561   H         3 RES3   0.0000
    68 H21      4.1605   0.4890   6.7708   H         3 RES3   0.0000
    69 H22      4.7016   1.2889   8.0468   H         3 RES3   0.0000
    70 O5       5.6586   1.7016   6.3792   O.3       3 RES3   0.0000
    71 H24      5.1160   2.0750   5.8594   H         3 RES3   0.0000
    72 N11      3.2695   3.0156   4.2311   N.pl3     4 RES4   0.0000
    73 O1       3.1551   1.9287   4.8595   O.3       4 RES4  -1.0000
    74 O2       2.3411   3.4066   3.5009   O.2       4 RES4   0.0000
    75 O3       4.3082   3.6885   4.3774   O.2       4 RES4   0.0000
@<TRIPOS>BOND
     1     1     2    1
     2     3     1    2
     3     4     3    1
     4     5    49    1
     5     6     7    1
     6     7     8   ar
     7     8     9    1
     8    10     8   ar
     9    11    10    1
    10    12    10   ar
    11    13    12    1
    12    14    12   ar
    13    15    14    1
    14    16     7   ar
    15    17    16    1
    16    18    46    2
    17    19    20    1
    18    21    19    2
    19    22    21    1
    20    23    24    1
    21    25    23    2
    22    26    25    1
    23    27    51    2
    24    28    29    1
    25    29    30   ar
    26    30    31    1
    27    32    30   ar
    28    33    32    1
    29    34    32   ar
    30    35    34    1
    31    36    34   ar
    32    37    36    1
    33    38    29   ar
    34    39    38    1
    35    40    54    1
    36    41    42    1
    37    43    41    2
    38    44    43    1
    39    45    46    1
    40    46    21    1
    41    47    17    2
    42    48     6    1
    43    49     6    2
    44    50     1    1
    45    51    23    1
    46    52    27    1
    47    53    28    1
    48    54    39    2
    49    55    40    2
    50    56    25    1
    51    57    18    1
    52    58     3    1
    53    59    40    1
    54     5    50    2
    55     5    58    1
    56    14    16   ar
    57    17    48    1
    58    18    47    1
    59    19    57    1
    60    27    56    1
    61    28    52    2
    62    36    38   ar
    63    39    53    1
    64    41    59    1
    65    43    55    1
    66    45    48    1
    67    45    50    1
    68    45    51    1
    69    45    53    1
    70    45    55    1
    71    60    61    1
    72    62    60    1
    73    63    60    1
    74    64    60    1
    75    65    64    1
    76    66    67    1
    77    68    66    1
    78    69    66    1
    79    70    66    1
    80    71    70    1
    81    72    73    1
    82    74    72    2
    83    75    72    2
@<TRIPOS>SUBSTRUCTURE
     1 RES1        1 GROUP             0 ****  ****    0  
     2 RES2       60 GROUP             0 ****  ****    0  
     3 RES3       66 GROUP             0 ****  ****    0  
     4 RES4       72 GROUP             0 ****  ****    0  
@<TRIPOS>CRYSIN
   12.0797   15.4733   17.5335   90.0000   91.5210   90.0000    14     1
