@<TRIPOS>MOLECULE
IBUHEU
    83    94     3     0     0
SMALL
USER_CHARGES
****
Generated from the CSD

@<TRIPOS>ATOM
     1 As1      9.0735  10.1422   3.8474   As        1 RES1   0.0000
     2 Se1      6.8609  10.3328   4.8039   Se        1 RES1   0.0000
     3 Se2      9.5513   7.8355   4.3611   Se        1 RES1   0.0000
     4 Se3      8.3079   9.8123   1.7351   Se        1 RES1  -1.0000
     5 As1A     7.8184   8.1652   7.6140   As        1 RES1   0.0000
     6 Se1A    10.0309   7.9746   6.6575   Se        1 RES1   0.0000
     7 Se2A     7.3406  10.4719   7.1003   Se        1 RES1   0.0000
     8 Se3A     8.5839   8.4951   9.7263   Se        1 RES1  -1.0000
     9 As2      1.9556  10.9073  -0.9582   As        2 RES2   0.0000
    10 Se4      3.4964  12.5842  -2.0883   Se        2 RES2   0.0000
    11 Se5      3.1388  10.7975   1.0934   Se        2 RES2   0.0000
    12 Se6      2.8186   8.9647  -1.7966   Se        2 RES2  -1.0000
    13 As2A     4.0185  14.4811   0.9582   As        2 RES2   0.0000
    14 Se4A     2.4778  12.8042   2.0883   Se        2 RES2   0.0000
    15 Se5A     2.8354  14.5909  -1.0934   Se        2 RES2   0.0000
    16 Se6A     3.1555  16.4236   1.7966   Se        2 RES2  -1.0000
    17 Fe1      1.2721   5.4946   3.1321   Fe        3 RES3   2.0000
    18 N1      -0.3988   4.5045   3.4797   N.ar      3 RES3   0.0000
    19 N2       1.7742   3.8258   2.1845   N.ar      3 RES3   0.0000
    20 N3       2.1456   4.8221   4.7553   N.ar      3 RES3   0.0000
    21 N4       3.0349   6.3088   2.7989   N.ar      3 RES3   0.0000
    22 N5       0.4797   6.3754   1.5404   N.ar      3 RES3   0.0000
    23 N6       0.6653   7.1545   4.0333   N.ar      3 RES3   0.0000
    24 C1      -1.4933   4.8995   4.1101   C.ar      3 RES3   0.0000
    25 H1      -1.5107   5.7473   4.4906   H         3 RES3   0.0000
    26 C2      -2.6351   4.0758   4.2270   C.ar      3 RES3   0.0000
    27 H2      -3.3989   4.3979   4.6487   H         3 RES3   0.0000
    28 C3      -2.6195   2.7861   3.7112   C.ar      3 RES3   0.0000
    29 H3      -3.3605   2.2287   3.7834   H         3 RES3   0.0000
    30 C4      -1.4631   2.3627   3.0877   C.ar      3 RES3   0.0000
    31 C5      -1.3087   1.0446   2.4802   C.ar      3 RES3   0.0000
    32 H4      -2.0095   0.4345   2.5227   H         3 RES3   0.0000
    33 C6      -0.1707   0.6980   1.8659   C.ar      3 RES3   0.0000
    34 H5      -0.0937  -0.1638   1.5267   H         3 RES3   0.0000
    35 C7       0.9326   1.5955   1.7077   C.ar      3 RES3   0.0000
    36 C8       2.1282   1.3113   1.0602   C.ar      3 RES3   0.0000
    37 H6       2.2571   0.4814   0.6590   H         3 RES3   0.0000
    38 C9       3.1013   2.2471   1.0166   C.ar      3 RES3   0.0000
    39 H7       3.9102   2.0483   0.6029   H         3 RES3   0.0000
    40 C10      2.9126   3.4970   1.5805   C.ar      3 RES3   0.0000
    41 H8       3.5983   4.1232   1.5347   H         3 RES3   0.0000
    42 C11      0.7772   2.8766   2.2785   C.ar      3 RES3   0.0000
    43 C12     -0.3882   3.2341   2.9307   C.ar      3 RES3   0.0000
    44 C13      1.6678   4.0224   5.7456   C.ar      3 RES3   0.0000
    45 H9       0.8044   3.6808   5.6780   H         3 RES3   0.0000
    46 C14      2.4430   3.7007   6.8642   C.ar      3 RES3   0.0000
    47 H10      2.0677   3.2142   7.5634   H         3 RES3   0.0000
    48 C15      3.7454   4.0933   6.9376   C.ar      3 RES3   0.0000
    49 H11      4.2636   3.8459   7.6688   H         3 RES3   0.0000
    50 C16      4.3002   4.8551   5.9347   C.ar      3 RES3   0.0000
    51 C17      5.6374   5.2717   5.8912   C.ar      3 RES3   0.0000
    52 H12      6.2138   5.0171   6.5766   H         3 RES3   0.0000
    53 C18      6.1206   6.0425   4.8654   C.ar      3 RES3   0.0000
    54 H13      7.0103   6.3142   4.8757   H         3 RES3   0.0000
    55 C19      5.2781   6.4358   3.7788   C.ar      3 RES3   0.0000
    56 C20      5.6955   7.2167   2.6957   C.ar      3 RES3   0.0000
    57 H14      6.5739   7.5171   2.6430   H         3 RES3   0.0000
    58 C21      4.7984   7.5286   1.7204   C.ar      3 RES3   0.0000
    59 H15      5.0601   8.0587   1.0040   H         3 RES3   0.0000
    60 C22      3.4694   7.0487   1.7903   C.ar      3 RES3   0.0000
    61 H16      2.8787   7.2621   1.1037   H         3 RES3   0.0000
    62 C23      3.9489   5.9993   3.7765   C.ar      3 RES3   0.0000
    63 C24      3.4626   5.1813   4.8539   C.ar      3 RES3   0.0000
    64 C25      0.3741   5.9392   0.3129   C.ar      3 RES3   0.0000
    65 H17      0.6784   5.0843   0.1146   H         3 RES3   0.0000
    66 C26     -0.1852   6.7183  -0.7221   C.ar      3 RES3   0.0000
    67 H18     -0.2743   6.3630  -1.5771   H         3 RES3   0.0000
    68 C27     -0.5958   7.9927  -0.4630   C.ar      3 RES3   0.0000
    69 H19     -0.9334   8.5270  -1.1450   H         3 RES3   0.0000
    70 C28     -0.4972   8.4866   0.8539   C.ar      3 RES3   0.0000
    71 C29     -0.8714   9.8075   1.2390   C.ar      3 RES3   0.0000
    72 H20     -1.1913  10.4027   0.5983   H         3 RES3   0.0000
    73 C30     -0.7633  10.1984   2.5089   C.ar      3 RES3   0.0000
    74 H21     -1.0325  11.0605   2.7347   H         3 RES3   0.0000
    75 C31     -0.2573   9.3528   3.5324   C.ar      3 RES3   0.0000
    76 C32     -0.1961   9.6616   4.8860   C.ar      3 RES3   0.0000
    77 H22     -0.4833  10.4950   5.1828   H         3 RES3   0.0000
    78 C33      0.2760   8.7613   5.7720   C.ar      3 RES3   0.0000
    79 H23      0.3244   8.9732   6.6763   H         3 RES3   0.0000
    80 C34      0.7026   7.4798   5.3066   C.ar      3 RES3   0.0000
    81 H24      1.0144   6.8564   5.9233   H         3 RES3   0.0000
    82 C35      0.1793   8.0834   3.1668   C.ar      3 RES3   0.0000
    83 C36      0.0530   7.6344   1.8120   C.ar      3 RES3   0.0000
@<TRIPOS>BOND
     1     1     2    1
     2     2     7    1
     3     3     1    1
     4     4     1    1
     5     5     6    1
     6     6     3    1
     7     7     5    1
     8     8     5    1
     9     9    10    1
    10    10    15    1
    11    11     9    1
    12    12     9    1
    13    13    14    1
    14    14    11    1
    15    15    13    1
    16    16    13    1
    17    17    18    1
    18    18    24   ar
    19    19    17    1
    20    20    17    1
    21    21    17    1
    22    22    17    1
    23    23    17    1
    24    24    25    1
    25    26    24   ar
    26    27    26    1
    27    28    26   ar
    28    29    28    1
    29    30    28   ar
    30    31    30   ar
    31    32    31    1
    32    33    31   ar
    33    34    33    1
    34    35    33   ar
    35    36    35   ar
    36    37    36    1
    37    38    36   ar
    38    39    38    1
    39    40    19   ar
    40    41    40    1
    41    42    19   ar
    42    43    18   ar
    43    44    20   ar
    44    45    44    1
    45    46    44   ar
    46    47    46    1
    47    48    46   ar
    48    49    48    1
    49    50    48   ar
    50    51    50   ar
    51    52    51    1
    52    53    51   ar
    53    54    53    1
    54    55    53   ar
    55    56    55   ar
    56    57    56    1
    57    58    56   ar
    58    59    58    1
    59    60    21   ar
    60    61    60    1
    61    62    21   ar
    62    63    20   ar
    63    64    22   ar
    64    65    64    1
    65    66    64   ar
    66    67    66    1
    67    68    66   ar
    68    69    68    1
    69    70    68   ar
    70    71    70   ar
    71    72    71    1
    72    73    71   ar
    73    74    73    1
    74    75    73   ar
    75    76    75   ar
    76    77    76    1
    77    78    76   ar
    78    79    78    1
    79    80    23   ar
    80    81    80    1
    81    82    23   ar
    82    83    22   ar
    83    30    43   ar
    84    35    42   ar
    85    38    40   ar
    86    42    43   ar
    87    50    63   ar
    88    55    62   ar
    89    58    60   ar
    90    62    63   ar
    91    70    83   ar
    92    75    82   ar
    93    78    80   ar
    94    82    83   ar
@<TRIPOS>SUBSTRUCTURE
     1 RES1        1 GROUP             0 ****  ****    0  
     2 RES2        9 GROUP             0 ****  ****    0  
     3 RES3       17 GROUP             0 ****  ****    0  
@<TRIPOS>CRYSIN
   13.1258   13.1882   13.6521  117.0900   99.3080  105.7320     2     1
