@<TRIPOS>MOLECULE
IDABEU
    50    56     3     0     0
SMALL
NO_CHARGES
****
Generated from the CSD

@<TRIPOS>ATOM
     1 Fe1     -1.2397   2.4139   4.3942   Fe        1 RES1   0.0000
     2 O1      -0.0335   1.6874   2.8802   O.3       1 RES1   0.0000
     3 O2      -0.3217   0.5555   4.6793   O.3       1 RES1   0.0000
     4 O3       1.1032  -0.1575   3.1821   O.2       1 RES1   0.0000
     5 O4       2.0569   4.0157   6.1873   O.2       1 RES1   0.0000
     6 O5       2.0251   2.2494   4.9416   O.2       1 RES1   0.0000
     7 O6       0.2095   3.4434   5.2602   O.3       1 RES1   0.0000
     8 N1       0.2953   0.6482   3.5526   N.pl3     1 RES1   0.0000
     9 N2       1.4813   3.2243   5.4584   N.pl3     1 RES1   0.0000
    10 N3      -3.6355   3.0038   5.9433   N.ar      1 RES1   0.0000
    11 N4      -2.3960   2.4309   6.0881   N.ar      1 RES1   0.0000
    12 N5      -3.1026   4.6453   4.1106   N.ar      1 RES1   0.0000
    13 N6      -1.8204   4.2962   3.7523   N.ar      1 RES1   0.0000
    14 N7      -4.0914   2.4241   3.5617   N.ar      1 RES1   0.0000
    15 N8      -2.9556   1.6660   3.3864   N.ar      1 RES1   0.0000
    16 C3      -4.3179   2.8654   7.0868   C.ar      1 RES1   0.0000
    17 C4      -3.5269   2.2049   7.9940   C.ar      1 RES1   0.0000
    18 C5      -2.3286   1.9325   7.3415   C.ar      1 RES1   0.0000
    19 C6      -3.2421   5.9615   4.0100   C.ar      1 RES1   0.0000
    20 C7      -2.0527   6.5080   3.5754   C.ar      1 RES1   0.0000
    21 C8      -1.1788   5.4369   3.4260   C.ar      1 RES1   0.0000
    22 C9      -5.0683   1.9675   2.7856   C.ar      1 RES1   0.0000
    23 C10     -4.5905   0.9081   2.0645   C.ar      1 RES1   0.0000
    24 C11     -3.2739   0.7267   2.4639   C.ar      1 RES1   0.0000
    25 C12     -1.1822   1.1868   7.8751   C.ar      1 RES1   0.0000
    26 C13     -1.3851  -0.0950   8.3676   C.ar      1 RES1   0.0000
    27 C14     -0.3487  -0.8052   8.9302   C.ar      1 RES1   0.0000
    28 C15      0.9082  -0.2596   9.0003   C.ar      1 RES1   0.0000
    29 C16      1.1237   1.0058   8.5216   C.ar      1 RES1   0.0000
    30 C17      0.0883   1.7290   7.9590   C.ar      1 RES1   0.0000
    31 C18      0.2193   5.4636   2.9701   C.ar      1 RES1   0.0000
    32 C19      0.6664   4.6236   1.9592   C.ar      1 RES1   0.0000
    33 C20      1.9769   4.7008   1.5201   C.ar      1 RES1   0.0000
    34 C21      2.8438   5.6143   2.0782   C.ar      1 RES1   0.0000
    35 C22      2.4054   6.4443   3.0769   C.ar      1 RES1   0.0000
    36 C23      1.0990   6.3748   3.5236   C.ar      1 RES1   0.0000
    37 C24     -2.3604  -0.3680   2.0660   C.ar      1 RES1   0.0000
    38 C25     -2.0431  -1.3719   2.9595   C.ar      1 RES1   0.0000
    39 C26     -1.2335  -2.4260   2.5844   C.ar      1 RES1   0.0000
    40 C27     -0.7540  -2.5064   1.3036   C.ar      1 RES1   0.0000
    41 C28     -1.0719  -1.5236   0.3995   C.ar      1 RES1   0.0000
    42 C29     -1.8826  -0.4549   0.7685   C.ar      1 RES1   0.0000
    43 B1      -4.1005   3.5685   4.5955   B         1 RES1   0.0000
    44 H1      -4.9727   3.9376   4.6732   H         1 RES1   0.0000
    45 Cl1     -0.4178   8.4122   9.4745   Cl        2 RES2   0.0000
    46 Cl2      1.4642  10.5568   9.7154   Cl        2 RES2   0.0000
    47 C2       1.1911   8.8877   9.6163   C.3       2 RES2   0.0000
    48 Cl3     -0.1786   9.3937   1.6497   Cl        3 RES3   0.0000
    49 Cl4     -0.4120   7.5140  -0.5154   Cl        3 RES3   0.0000
    50 C1       0.6445   8.3526   0.5062   C.3       3 RES3   0.0000
@<TRIPOS>BOND
     1     1     2    1
     2     2     8    1
     3     3     1    1
     4     4     8    2
     5     5     9    2
     6     6     9    2
     7     7     1    1
     8     8     3    1
     9     9     7    1
    10    10    11   ar
    11    11     1    1
    12    12    13   ar
    13    13     1    1
    14    14    15   ar
    15    15     1    1
    16    16    10   ar
    17    17    16   ar
    18    18    11   ar
    19    19    12   ar
    20    20    19   ar
    21    21    13   ar
    22    22    14   ar
    23    23    22   ar
    24    24    15   ar
    25    25    18    1
    26    26    25   ar
    27    27    26   ar
    28    28    27   ar
    29    29    28   ar
    30    30    25   ar
    31    31    21    1
    32    32    31   ar
    33    33    32   ar
    34    34    33   ar
    35    35    34   ar
    36    36    31   ar
    37    37    24    1
    38    38    37   ar
    39    39    38   ar
    40    40    39   ar
    41    41    40   ar
    42    42    37   ar
    43    43    10    1
    44    44    43    1
    45    12    43    1
    46    14    43    1
    47    17    18   ar
    48    20    21   ar
    49    23    24   ar
    50    29    30   ar
    51    35    36   ar
    52    41    42   ar
    53    45    47    1
    54    46    47    1
    55    48    50    1
    56    49    50    1
@<TRIPOS>SUBSTRUCTURE
     1 RES1        1 GROUP             0 ****  ****    0  
     2 RES2       45 GROUP             0 ****  ****    0  
     3 RES3       48 GROUP             0 ****  ****    0  
@<TRIPOS>CRYSIN
    9.4010   12.3360   15.7980  101.7200   95.9800  105.6600     2     1
