@<TRIPOS>MOLECULE
IDADEY
   124   129     3     0     0
SMALL
USER_CHARGES
****
Generated from the CSD

@<TRIPOS>ATOM
     1 Fe1      4.2915  10.7609   6.1562   Fe        1 RES1   0.0000
     2 P1       3.0253  10.6371   7.9710   P.3       1 RES1   0.0000
     3 P2       8.6867  10.5939   5.9156   P.3       1 RES1   0.0000
     4 P3       5.1106   8.7484   5.6065   P.3       1 RES1   0.0000
     5 Si1      1.5713  12.1069   3.0147   Si        1 RES1   0.0000
     6 N1       3.5228  11.2317   4.7472   N.2       1 RES1   0.0000
     7 C1       6.1414  11.5992   6.7497   C.ar      1 RES1   0.0000
     8 C2       2.3158   9.0203   8.6116   C.3       1 RES1   0.0000
     9 H1       1.9359   8.5327   7.8259   H         1 RES1   0.0000
    10 C3       6.5860   9.1020   7.8686   C.ar      1 RES1   0.0000
    11 C4       6.3220   8.1630   6.8621   C.ar      1 RES1   0.0000
    12 C5       6.1443   8.8264   4.0348   C.3       1 RES1   0.0000
    13 H2       6.6716   9.6747   4.0965   H         1 RES1   0.0000
    14 C6       5.6201  12.0437  11.4714   C.ar      1 RES1   0.0000
    15 H3       6.2057  12.3182  12.1664   H         1 RES1   0.0000
    16 C7       3.9353  11.2385   9.4389   C.ar      1 RES1   0.0000
    17 C8       3.4331   8.1516   9.1847   C.3       1 RES1   0.0000
    18 H4       3.7520   8.5417  10.0259   H         1 RES1   0.0000
    19 H5       4.1737   8.1074   8.5445   H         1 RES1   0.0000
    20 H6       3.0912   7.2489   9.3534   H         1 RES1   0.0000
    21 C9       5.3190  11.0854   9.2480   C.ar      1 RES1   0.0000
    22 N2       3.1498  11.6366   3.6146   N.2       1 RES1   0.0000
    23 C10      7.2662  11.7749   5.8255   C.ar      1 RES1   0.0000
    24 C11      6.1378  11.4960  10.3141   C.ar      1 RES1   0.0000
    25 H7       7.0782  11.3928  10.2354   H         1 RES1   0.0000
    26 C12      7.4752   8.7187   8.8802   C.ar      1 RES1   0.0000
    27 H8       7.6356   9.3186   9.5994   H         1 RES1   0.0000
    28 C13      0.3654  10.6953   3.0873   C.3       1 RES1   0.0000
    29 H9       0.7448   9.9174   2.6266   H         1 RES1   0.0000
    30 H10     -0.4718  10.9584   2.6496   H         1 RES1   0.0000
    31 H11      0.1877  10.4662   4.0234   H         1 RES1   0.0000
    32 C14      4.2507  12.1968  11.6240   C.ar      1 RES1   0.0000
    33 H12      3.8965  12.5767  12.4200   H         1 RES1   0.0000
    34 C15      1.8689  13.1800   7.6657   C.3       1 RES1   0.0000
    35 H13      2.3355  13.2458   6.8056   H         1 RES1   0.0000
    36 H14      2.4512  13.5157   8.3793   H         1 RES1   0.0000
    37 H15      1.0487  13.7165   7.6338   H         1 RES1   0.0000
    38 C16      5.2905   8.9545   2.7645   C.3       1 RES1   0.0000
    39 H16      5.8462   9.2857   2.0290   H         1 RES1   0.0000
    40 H17      4.5569   9.5839   2.9263   H         1 RES1   0.0000
    41 H18      4.9228   8.0779   2.5286   H         1 RES1   0.0000
    42 C17      3.4059  11.7920  10.6056   C.ar      1 RES1   0.0000
    43 H19      2.4664  11.8895  10.7004   H         1 RES1   0.0000
    44 C19      9.4873  11.2794   7.4555   C.3       1 RES1   0.0000
    45 H22      8.7663  11.2907   8.1487   H         1 RES1   0.0000
    46 C20      6.9756   6.9291   6.8564   C.ar      1 RES1   0.0000
    47 H23      6.7918   6.3008   6.1677   H         1 RES1   0.0000
    48 C21      1.5117  11.7160   7.9429   C.3       1 RES1   0.0000
    49 H24      1.0807  11.6672   8.8443   H         1 RES1   0.0000
    50 C22      9.8353  11.1229   4.5290   C.3       1 RES1   0.0000
    51 H25      9.9793  12.1129   4.5634   H         1 RES1   0.0000
    52 C23      8.1268   7.5075   8.8721   C.ar      1 RES1   0.0000
    53 H26      8.7348   7.2863   9.5686   H         1 RES1   0.0000
    54 C24      5.1953  13.7131   5.7977   C.ar      1 RES1   0.0000
    55 H27      4.4651  14.3118   5.7604   H         1 RES1   0.0000
    56 C25      0.5118  11.2022   6.9123   C.3       1 RES1   0.0000
    57 H28     -0.2442  11.8237   6.8518   H         1 RES1   0.0000
    58 H29      0.1862  10.3188   7.1842   H         1 RES1   0.0000
    59 H30      0.9496  11.1342   6.0390   H         1 RES1   0.0000
    60 C26      5.1349  12.6436   6.7442   C.ar      1 RES1   0.0000
    61 H31      4.6535  12.8489   7.5396   H         1 RES1   0.0000
    62 B1       5.8693  10.5263   7.8398   B         1 RES1  -1.0000
    63 C27      9.2300  10.7293   3.1797   C.3       1 RES1   0.0000
    64 H32      9.8264  11.0163   2.4575   H         1 RES1   0.0000
    65 H33      8.3578  11.1614   3.0743   H         1 RES1   0.0000
    66 H34      9.1181   9.7563   3.1434   H         1 RES1   0.0000
    67 C28     11.1770  10.3903   4.7023   C.3       1 RES1   0.0000
    68 H35     11.0097   9.4467   4.9092   H         1 RES1   0.0000
    69 H36     11.6819  10.8008   5.4357   H         1 RES1   0.0000
    70 H37     11.6959  10.4560   3.8736   H         1 RES1   0.0000
    71 C29      7.1683   7.7150   3.8334   C.3       1 RES1   0.0000
    72 H38      6.7148   6.8463   3.8447   H         1 RES1   0.0000
    73 H39      7.8310   7.7468   4.5538   H         1 RES1   0.0000
    74 H40      7.6163   7.8375   2.9705   H         1 RES1   0.0000
    75 C30      7.8909   6.6172   7.8474   C.ar      1 RES1   0.0000
    76 H41      8.3565   5.7894   7.8202   H         1 RES1   0.0000
    77 C31      1.2017   9.1349   9.6540   C.3       1 RES1   0.0000
    78 H42      0.9361   8.2389   9.9472   H         1 RES1   0.0000
    79 H43      0.4301   9.5919   9.2593   H         1 RES1   0.0000
    80 H44      1.5263   9.6486  10.4237   H         1 RES1   0.0000
    81 C33      1.8412  12.5824   1.2389   C.3       1 RES1   0.0000
    82 H47      2.5042  13.3037   1.1913   H         1 RES1   0.0000
    83 H48      0.9955  12.8897   0.8512   H         1 RES1   0.0000
    84 H49      2.1675  11.8056   0.7378   H         1 RES1   0.0000
    85 C34      0.9472  13.5860   3.9351   C.3       1 RES1   0.0000
    86 H50      0.8306  13.3570   4.8804   H         1 RES1   0.0000
    87 H51      0.0861  13.8662   3.5585   H         1 RES1   0.0000
    88 H52      1.5931  14.3175   3.8544   H         1 RES1   0.0000
    89 C35      7.3099  12.8761   4.9943   C.ar      1 RES1   0.0000
    90 H53      8.0690  12.9850   4.4385   H         1 RES1   0.0000
    91 C36      6.2496  13.8310   4.9572   C.ar      1 RES1   0.0000
    92 H54      6.2219  14.5500   4.3924   H         1 RES1   0.0000
    93 C37     10.5670  10.3370   8.0002   C.3       1 RES1   0.0000
    94 H55     11.3615  10.3880   7.4301   H         1 RES1   0.0000
    95 H56     10.2272   9.4184   8.0046   H         1 RES1   0.0000
    96 H57     10.8017  10.6035   8.9134   H         1 RES1   0.0000
    97 C38      4.0045   7.2897   5.1705   C.3       1 RES1   0.0000
    98 H58      4.4874   6.7760   4.4615   H         1 RES1   0.0000
    99 C39      9.9767  12.7173   7.3529   C.3       1 RES1   0.0000
   100 H59     10.2935  13.0179   8.2294   H         1 RES1   0.0000
   101 H60      9.2407  13.2923   7.0554   H         1 RES1   0.0000
   102 H61     10.7114  12.7661   6.7057   H         1 RES1   0.0000
   103 C40      2.7100   7.7865   4.5307   C.3       1 RES1   0.0000
   104 H62      2.1653   7.0187   4.2579   H         1 RES1   0.0000
   105 H63      2.9218   8.3331   3.7468   H         1 RES1   0.0000
   106 H64      2.2118   8.3263   5.1801   H         1 RES1   0.0000
   107 C41      3.6845   6.3144   6.2465   C.3       1 RES1   0.0000
   108 H65      3.1160   6.7443   6.9190   H         1 RES1   0.0000
   109 H66      4.5138   6.0082   6.6673   H         1 RES1   0.0000
   110 H67      3.2107   5.5478   5.8603   H         1 RES1   0.0000
   111 Na1      5.5118  11.8294   3.4051   Na        2 RES2   1.0000
   112 O1       6.4044  12.2342   1.3834   O.3       3 RES3   0.0000
   113 C18      5.4467  11.9314   0.3576   C.3       3 RES3   0.0000
   114 H20      4.5633  11.7216   0.7513   H         3 RES3   0.0000
   115 H21      5.7457  11.1626  -0.1883   H         3 RES3   0.0000
   116 C32      6.8327  13.6121  -0.5130   C.3       3 RES3   0.0000
   117 H45      6.9034  14.5965  -0.5956   H         3 RES3   0.0000
   118 H46      7.3086  13.1891  -1.2701   H         3 RES3   0.0000
   119 C42      5.3828  13.1698  -0.4592   C.3       3 RES3   0.0000
   120 H68      4.8146  13.8548  -0.0269   H         3 RES3   0.0000
   121 H69      5.0331  12.9827  -1.3661   H         3 RES3   0.0000
   122 C43      7.3929  13.1267   0.8339   C.3       3 RES3   0.0000
   123 H70      8.2523  12.6527   0.7013   H         3 RES3   0.0000
   124 H71      7.5435  13.8922   1.4430   H         3 RES3   0.0000
@<TRIPOS>BOND
     1     1     2    1
     2     2     8    1
     3     3    23    1
     4     4     1    1
     5     5    22    1
     6     6     1    1
     7     7     1   un
     8     8     9    1
     9    10    11   ar
    10    11     4    1
    11    12     4    1
    12    13    12    1
    13    14    15    1
    14    16     2    1
    15    17     8    1
    16    18    17    1
    17    19    17    1
    18    20    17    1
    19    21    16   ar
    20    22     6    2
    21    23     7   ar
    22    24    14   ar
    23    25    24    1
    24    26    10   ar
    25    27    26    1
    26    28     5    1
    27    29    28    1
    28    30    28    1
    29    31    28    1
    30    32    14   ar
    31    33    32    1
    32    34    35    1
    33    36    34    1
    34    37    34    1
    35    38    12    1
    36    39    38    1
    37    40    38    1
    38    41    38    1
    39    42    16   ar
    40    43    42    1
    41    44     3    1
    42    45    44    1
    43    46    11   ar
    44    47    46    1
    45    48     2    1
    46    49    48    1
    47    50     3    1
    48    51    50    1
    49    52    26   ar
    50    53    52    1
    51    54    55    1
    52    56    48    1
    53    57    56    1
    54    58    56    1
    55    59    56    1
    56    60     1   un
    57    61    60    1
    58    62     1   un
    59    63    50    1
    60    64    63    1
    61    65    63    1
    62    66    63    1
    63    67    50    1
    64    68    67    1
    65    69    67    1
    66    70    67    1
    67    71    12    1
    68    72    71    1
    69    73    71    1
    70    74    71    1
    71    75    46   ar
    72    76    75    1
    73    77     8    1
    74    78    77    1
    75    79    77    1
    76    80    77    1
    77    81     5    1
    78    82    81    1
    79    83    81    1
    80    84    81    1
    81    85     5    1
    82    86    85    1
    83    87    85    1
    84    88    85    1
    85    89    23   ar
    86    90    89    1
    87    91    54   ar
    88    92    91    1
    89    93    44    1
    90    94    93    1
    91    95    93    1
    92    96    93    1
    93    97     4    1
    94    98    97    1
    95    99    44    1
    96   100    99    1
    97   101    99    1
    98   102    99    1
    99   103    97    1
   100   104   103    1
   101   105   103    1
   102   106   103    1
   103   107    97    1
   104   108   107    1
   105   109   107    1
   106   110   107    1
   107     7    60   ar
   108     7    62    1
   109    10    62    1
   110    21    24   ar
   111    21    62    1
   112    32    42   ar
   113    34    48    1
   114    52    75   ar
   115    54    60   ar
   116    89    91   ar
   117   112   113    1
   118   113   114    1
   119   115   113    1
   120   116   117    1
   121   118   116    1
   122   119   113    1
   123   120   119    1
   124   121   119    1
   125   122   112    1
   126   123   122    1
   127   124   122    1
   128   116   119    1
   129   116   122    1
@<TRIPOS>SUBSTRUCTURE
     1 RES1        1 GROUP             0 ****  ****    0  
     2 RES2      111 GROUP             0 ****  ****    0  
     3 RES3      112 GROUP             0 ****  ****    0  
@<TRIPOS>CRYSIN
   20.6183   11.3406   19.2147   90.0000   90.4390   90.0000    14     1
