@<TRIPOS>MOLECULE
IDAVOB
   119   125     4     0     0
SMALL
USER_CHARGES
****
Generated from the CSD

@<TRIPOS>ATOM
     1 Fe1      6.5552   4.0983   4.8785   Fe        1 RES1   1.0000
     2 P1       4.7330   6.2595   3.1099   P.3       1 RES1   0.0000
     3 P2       4.4273   4.3191   5.2009   P.3       1 RES1   0.0000
     4 P3       7.6802   7.1646   4.1558   P.3       1 RES1   0.0000
     5 P4       8.6741   4.5831   4.8842   P.3       1 RES1   0.0000
     6 C1       7.1153   8.2381   5.4865   C.ar      1 RES1   0.0000
     7 O1       6.3755   2.5560   2.3927   O.2       1 RES1   0.0000
     8 O2       6.7673   1.9297   6.8313   O.2       1 RES1   0.0000
     9 N1       8.9159   6.2505   4.7612   N.pl3     1 RES1   0.0000
    10 C2       9.7145   4.2020   6.3344   C.ar      1 RES1   0.0000
    11 N2       3.8072   5.6316   4.3218   N.pl3     1 RES1   0.0000
    12 C3       9.1646   4.2063   7.6073   C.ar      1 RES1   0.0000
    13 H1       8.2359   4.3702   7.7204   H         1 RES1   0.0000
    14 C4       4.2983   8.0135   3.0474   C.ar      1 RES1   0.0000
    15 C5       3.3601   2.9062   4.7227   C.ar      1 RES1   0.0000
    16 C6       3.7601   4.6573   6.8622   C.ar      1 RES1   0.0000
    17 C7       3.8917   1.6341   4.5380   C.ar      1 RES1   0.0000
    18 H2       4.8284   1.5006   4.6299   H         1 RES1   0.0000
    19 C8      11.8799   3.7338   7.3051   C.ar      1 RES1   0.0000
    20 H3      12.8111   3.5826   7.1984   H         1 RES1   0.0000
    21 C9       8.3728   8.2604   2.8868   C.ar      1 RES1   0.0000
    22 C10      6.6871   2.7891   6.0656   C.1       1 RES1   0.0000
    23 C11      4.5962  10.1913   2.0711   C.ar      1 RES1   0.0000
    24 H4       5.0159  10.7517   1.4297   H         1 RES1   0.0000
    25 C12      6.4599   3.1409   3.3777   C.1       1 RES1   0.0000
    26 C13      4.8725   8.8420   2.0862   C.ar      1 RES1   0.0000
    27 H5       5.4599   8.4743   1.4363   H         1 RES1   0.0000
    28 C14      9.6742   3.9090   3.5185   C.ar      1 RES1   0.0000
    29 C15      5.0421   5.5100   0.4374   C.ar      1 RES1   0.0000
    30 H6       5.9168   5.8768   0.5054   H         1 RES1   0.0000
    31 C16      1.7152   0.7472   4.0735   C.ar      1 RES1   0.0000
    32 H7       1.1549   0.0138   3.8502   H         1 RES1   0.0000
    33 C17      3.4334   8.5769   3.9766   C.ar      1 RES1   0.0000
    34 H8       3.0508   8.0324   4.6548   H         1 RES1   0.0000
    35 B1       6.5392   5.7771   3.4768   B         1 RES1   0.0000
    36 C18      8.2198   7.9728   1.5253   C.ar      1 RES1   0.0000
    37 H9       7.7427   7.1949   1.2601   H         1 RES1   0.0000
    38 C19      6.4529   9.4318   5.2347   C.ar      1 RES1   0.0000
    39 H10      6.3262   9.7203   4.3390   H         1 RES1   0.0000
    40 C20      4.1957   5.5362   1.5409   C.ar      1 RES1   0.0000
    41 C21     11.3148   3.7122   8.5614   C.ar      1 RES1   0.0000
    42 H11     11.8514   3.5193   9.3213   H         1 RES1   0.0000
    43 C22      2.9189   4.9953   1.4254   C.ar      1 RES1   0.0000
    44 H12      2.3253   5.0159   2.1662   H         1 RES1   0.0000
    45 C23      1.9828   3.0734   4.5835   C.ar      1 RES1   0.0000
    46 H13      1.5990   3.9322   4.7197   H         1 RES1   0.0000
    47 C24     10.5274   4.7093   2.7696   C.ar      1 RES1   0.0000
    48 H14     10.5860   5.6404   2.9508   H         1 RES1   0.0000
    49 C25      3.3439   5.9221   7.2629   C.ar      1 RES1   0.0000
    50 H15      3.4637   6.6650   6.6830   H         1 RES1   0.0000
    51 C26      3.1241   9.9235   3.9250   C.ar      1 RES1   0.0000
    52 H16      2.5028  10.2892   4.5434   H         1 RES1   0.0000
    53 C27      9.9641   3.9725   8.7162   C.ar      1 RES1   0.0000
    54 H17      9.5830   3.9907   9.5856   H         1 RES1   0.0000
    55 C28      3.0766   0.5608   4.2224   C.ar      1 RES1   0.0000
    56 H18      3.4534  -0.3041   4.1079   H         1 RES1   0.0000
    57 C29      9.5810   2.5519   3.2198   C.ar      1 RES1   0.0000
    58 H19      8.9957   1.9957   3.7205   H         1 RES1   0.0000
    59 C30     11.0827   3.9761   6.1972   C.ar      1 RES1   0.0000
    60 H20     11.4750   3.9883   5.3314   H         1 RES1   0.0000
    61 C31      1.1710   2.0076   4.2517   C.ar      1 RES1   0.0000
    62 H21      0.2366   2.1395   4.1461   H         1 RES1   0.0000
    63 C32      8.7562   8.8108   0.5611   C.ar      1 RES1   0.0000
    64 H22      8.6329   8.6151  -0.3607   H         1 RES1   0.0000
    65 C33      9.4665   9.9253   0.9379   C.ar      1 RES1   0.0000
    66 H23      9.8310  10.5019   0.2776   H         1 RES1   0.0000
    67 C34      9.6486  10.2050   2.2734   C.ar      1 RES1   0.0000
    68 H24     10.1558  10.9662   2.5286   H         1 RES1   0.0000
    69 C35      9.1034   9.3888   3.2444   C.ar      1 RES1   0.0000
    70 H25      9.2279   9.5988   4.1627   H         1 RES1   0.0000
    71 C36     10.3420   2.0099   2.1916   C.ar      1 RES1   0.0000
    72 H26     10.2701   1.0853   1.9833   H         1 RES1   0.0000
    73 C37     11.2006   2.8146   1.4736   C.ar      1 RES1   0.0000
    74 H27     11.7289   2.4393   0.7797   H         1 RES1   0.0000
    75 C38      3.6221   3.6044   7.7506   C.ar      1 RES1   0.0000
    76 H28      3.9304   2.7402   7.5026   H         1 RES1   0.0000
    77 C39      3.0430   3.7891   8.9926   C.ar      1 RES1   0.0000
    78 H29      2.9556   3.0560   9.5906   H         1 RES1   0.0000
    79 C40      2.7527   6.1054   8.5089   C.ar      1 RES1   0.0000
    80 H30      2.4585   6.9686   8.7727   H         1 RES1   0.0000
    81 C41      3.7096  10.7343   2.9849   C.ar      1 RES1   0.0000
    82 H31      3.5080  11.6622   2.9608   H         1 RES1   0.0000
    83 C42      5.9776  10.2032   6.2732   C.ar      1 RES1   0.0000
    84 H32      5.5398  11.0268   6.0928   H         1 RES1   0.0000
    85 C43      2.5937   5.0333   9.3590   C.ar      1 RES1   0.0000
    86 H33      2.1721   5.1549  10.2007   H         1 RES1   0.0000
    87 C44      7.2838   7.8229   6.8064   C.ar      1 RES1   0.0000
    88 H34      7.7328   7.0072   6.9922   H         1 RES1   0.0000
    89 C45      4.6198   4.9524  -0.7637   C.ar      1 RES1   0.0000
    90 H35      5.1993   4.9477  -1.5161   H         1 RES1   0.0000
    91 C46      2.5100   4.4229   0.2233   C.ar      1 RES1   0.0000
    92 H36      1.6427   4.0425   0.1496   H         1 RES1   0.0000
    93 C47      3.3612   4.4072  -0.8603   C.ar      1 RES1   0.0000
    94 H37      3.0771   4.0167  -1.6791   H         1 RES1   0.0000
    95 C48      6.7978   8.5964   7.8452   C.ar      1 RES1   0.0000
    96 H38      6.9194   8.3133   8.7444   H         1 RES1   0.0000
    97 C49     11.2965   4.1530   1.7554   C.ar      1 RES1   0.0000
    98 H39     11.8897   4.7001   1.2551   H         1 RES1   0.0000
    99 C50      6.1395   9.7753   7.5786   C.ar      1 RES1   0.0000
   100 H40      5.7945  10.2975   8.2939   H         1 RES1   0.0000
   101 H41      6.5001   5.1014   5.9698   H         1 RES1   0.0000
   102 H42      6.9722   5.5706   2.5469   H         1 RES1   0.0000
   103 H43      3.0815   5.8497   4.3988   H         1 RES1   0.0000
   104 H44      9.5811   6.5847   4.9873   H         1 RES1   0.0000
   105 F1      11.3755   7.1490   5.7369   F         2 RES2   0.0000
   106 F2      13.2578   6.4135   4.6846   F         2 RES2   0.0000
   107 F3      13.3138   8.2742   5.9858   F         2 RES2   0.0000
   108 F4      12.2411   8.3187   4.0073   F         2 RES2   0.0000
   109 B2      12.5459   7.5581   5.0984   B         2 RES2  -1.0000
   110 Cl1     10.0522  11.1648   6.3322   Cl        3 RES3   0.0000
   111 Cl2     12.1298  12.1544   4.5363   Cl        3 RES3   0.0000
   112 C51     11.7754  11.3145   6.0524   C.3       3 RES3   0.0000
   113 H45     12.1809  10.4115   6.0280   H         3 RES3   0.0000
   114 H46     12.1852  11.8125   6.8044   H         3 RES3   0.0000
   115 Cl3      1.9097   0.5925   0.5702   Cl        4 RES4   0.0000
   116 Cl4      4.3890   0.6786  -0.9288   Cl        4 RES4   0.0000
   117 C52      3.6519   0.9439   0.6314   C.3       4 RES4   0.0000
   118 H47      3.7901   1.8847   0.9060   H         4 RES4   0.0000
   119 H48      4.0842   0.3615   1.3050   H         4 RES4   0.0000
@<TRIPOS>BOND
     1     1     3    1
     2     2    11    1
     3     3    11    1
     4     4     6    1
     5     5     1    1
     6     6    38   ar
     7     7    25    3
     8     8    22    3
     9     9     4    1
    10    10     5    1
    11    11   103    1
    12    12    10   ar
    13    13    12    1
    14    14     2    1
    15    15     3    1
    16    16     3    1
    17    17    15   ar
    18    18    17    1
    19    19    20    1
    20    21     4    1
    21    22     1    1
    22    23    24    1
    23    25     1    1
    24    26    14   ar
    25    27    26    1
    26    28     5    1
    27    29    30    1
    28    31    32    1
    29    33    14   ar
    30    34    33    1
    31    35     1    1
    32    36    21   ar
    33    37    36    1
    34    38    39    1
    35    40     2    1
    36    41    19   ar
    37    42    41    1
    38    43    40   ar
    39    44    43    1
    40    45    15   ar
    41    46    45    1
    42    47    28   ar
    43    48    47    1
    44    49    16   ar
    45    50    49    1
    46    51    33   ar
    47    52    51    1
    48    53    12   ar
    49    54    53    1
    50    55    17   ar
    51    56    55    1
    52    57    28   ar
    53    58    57    1
    54    59    10   ar
    55    60    59    1
    56    61    31   ar
    57    62    61    1
    58    63    36   ar
    59    64    63    1
    60    65    63   ar
    61    66    65    1
    62    67    65   ar
    63    68    67    1
    64    69    21   ar
    65    70    69    1
    66    71    57   ar
    67    72    71    1
    68    73    71   ar
    69    74    73    1
    70    75    16   ar
    71    76    75    1
    72    77    75   ar
    73    78    77    1
    74    79    49   ar
    75    80    79    1
    76    81    23   ar
    77    82    81    1
    78    83    38   ar
    79    84    83    1
    80    85    77   ar
    81    86    85    1
    82    87     6   ar
    83    88    87    1
    84    89    29   ar
    85    90    89    1
    86    91    43   ar
    87    92    91    1
    88    93    89   ar
    89    94    93    1
    90    95    87   ar
    91    96    95    1
    92    97    47   ar
    93    98    97    1
    94    99    83   ar
    95   100    99    1
    96   101     1    1
    97   102    35    1
    98   104     9    1
    99     2    35   un
   100     4    35   un
   101     5     9    1
   102    19    59   ar
   103    23    26   ar
   104    29    40   ar
   105    31    55   ar
   106    41    53   ar
   107    45    61   ar
   108    51    81   ar
   109    67    69   ar
   110    73    97   ar
   111    79    85   ar
   112    91    93   ar
   113    95    99   ar
   114   105   109    1
   115   106   109    1
   116   107   109    1
   117   108   109    1
   118   110   112    1
   119   111   112    1
   120   112   113    1
   121   114   112    1
   122   115   117    1
   123   116   117    1
   124   117   118    1
   125   119   117    1
@<TRIPOS>SUBSTRUCTURE
     1 RES1        1 GROUP             0 ****  ****    0  
     2 RES2      105 GROUP             0 ****  ****    0  
     3 RES3      110 GROUP             0 ****  ****    0  
     4 RES4      115 GROUP             0 ****  ****    0  
@<TRIPOS>CRYSIN
   12.2566   13.5159   17.1754   75.8300   88.1970   69.7790     2     1
