@<TRIPOS>MOLECULE
IDUBEO
    94    98     3     0     0
SMALL
USER_CHARGES
****
Generated from the CSD

@<TRIPOS>ATOM
     1 Fe1      1.0201   4.6248  14.2752   Fe        1 RES1   0.0000
     2 Br1      1.5286   2.4090  13.3375   Br        1 RES1  -1.0000
     3 C1       0.6258   6.3054  14.9322   C.1       1 RES1   0.0000
     4 C2       0.4793   3.8788  15.8628   C.1       1 RES1   0.0000
     5 C3       1.7540   5.2809  12.7056   C.1       1 RES1   0.0000
     6 C4      -0.7529   4.5891  13.4981   C.1       1 RES1   0.0000
     7 C5       2.7879   4.7304  15.1061   C.1       1 RES1   0.0000
     8 O1       0.3496   7.2256  15.3003   O.2       1 RES1   0.0000
     9 O2       0.2189   3.4498  16.8138   O.2       1 RES1   0.0000
    10 O3       2.2593   5.5925  11.8568   O.2       1 RES1   0.0000
    11 N1      -1.7069   4.5522  13.1453   N.1       1 RES1   0.0000
    12 N2       3.6878   4.7990  15.5688   N.1       1 RES1   0.0000
    13 N3       4.9434  10.0417   4.9288   N.1       2 RES2   1.0000
    14 P1       5.9804   9.4481   3.8843   P.3       2 RES2   0.0000
    15 P2       3.5207   9.6731   5.5081   P.3       2 RES2   0.0000
    16 C6       5.8867   7.6573   3.6659   C.ar      2 RES2   0.0000
    17 C7       6.5644   6.8295   4.5505   C.ar      2 RES2   0.0000
    18 H1       7.1369   7.2071   5.2075   H         2 RES2   0.0000
    19 C8       6.4105   5.4486   4.4789   C.ar      2 RES2   0.0000
    20 H2       6.8776   4.8809   5.0822   H         2 RES2   0.0000
    21 C9       5.5715   4.9126   3.5202   C.ar      2 RES2   0.0000
    22 H3       5.4687   3.9713   3.4589   H         2 RES2   0.0000
    23 C10      4.8956   5.7153   2.6766   C.ar      2 RES2   0.0000
    24 H4       4.3046   5.3350   2.0375   H         2 RES2   0.0000
    25 C11      5.0584   7.1015   2.7277   C.ar      2 RES2   0.0000
    26 H5       4.5939   7.6587   2.1142   H         2 RES2   0.0000
    27 C12      5.7949  10.1803   2.2548   C.ar      2 RES2   0.0000
    28 C13      6.5085   9.6944   1.1811   C.ar      2 RES2   0.0000
    29 H6       7.0415   8.9155   1.2833   H         2 RES2   0.0000
    30 C14      6.4555  10.3229  -0.0358   C.ar      2 RES2   0.0000
    31 H7       6.9846  10.0034  -0.7567   H         2 RES2   0.0000
    32 C15      5.6430  11.4107  -0.2173   C.ar      2 RES2   0.0000
    33 H8       5.5811  11.8213  -1.0737   H         2 RES2   0.0000
    34 C16      4.9076  11.9124   0.8487   C.ar      2 RES2   0.0000
    35 H9       4.3602  12.6808   0.7311   H         2 RES2   0.0000
    36 C17      4.9736  11.2840   2.0988   C.ar      2 RES2   0.0000
    37 H10      4.4614  11.6101   2.8300   H         2 RES2   0.0000
    38 C18      7.6306   9.8687   4.4866   C.ar      2 RES2   0.0000
    39 C19      8.7536   9.6535   3.7043   C.ar      2 RES2   0.0000
    40 H11      8.6758   9.2482   2.8479   H         2 RES2   0.0000
    41 C20     10.0094  10.0430   4.1977   C.ar      2 RES2   0.0000
    42 H12     10.7812   9.9361   3.6532   H         2 RES2   0.0000
    43 C21     10.1303  10.5711   5.4452   C.ar      2 RES2   0.0000
    44 H13     10.9906  10.7995   5.7776   H         2 RES2   0.0000
    45 C22      9.0256  10.7757   6.2250   C.ar      2 RES2   0.0000
    46 H14      9.1166  11.1375   7.0993   H         2 RES2   0.0000
    47 C23      7.7808  10.4549   5.7341   C.ar      2 RES2   0.0000
    48 H15      7.0105  10.6384   6.2607   H         2 RES2   0.0000
    49 C24      2.7128  11.2378   5.9335   C.ar      2 RES2   0.0000
    50 C25      3.2149  12.4154   5.4734   C.ar      2 RES2   0.0000
    51 H16      4.0167  12.4194   4.9621   H         2 RES2   0.0000
    52 C26      2.5557  13.6274   5.7443   C.ar      2 RES2   0.0000
    53 H17      2.9116  14.4526   5.4350   H         2 RES2   0.0000
    54 C27      1.3971  13.5984   6.4601   C.ar      2 RES2   0.0000
    55 H18      0.9356  14.4077   6.6417   H         2 RES2   0.0000
    56 C28      0.9037  12.4352   6.9101   C.ar      2 RES2   0.0000
    57 H19      0.0900  12.4339   7.3984   H         2 RES2   0.0000
    58 C29      1.5513  11.2470   6.6774   C.ar      2 RES2   0.0000
    59 H20      1.2009  10.4364   7.0277   H         2 RES2   0.0000
    60 C30      3.6434   8.6317   6.9663   C.ar      2 RES2   0.0000
    61 C31      2.5112   8.0402   7.5441   C.ar      2 RES2   0.0000
    62 H21      1.6528   8.1933   7.1683   H         2 RES2   0.0000
    63 C32      2.6364   7.2349   8.6664   C.ar      2 RES2   0.0000
    64 H22      1.8654   6.8586   9.0728   H         2 RES2   0.0000
    65 C33      3.8917   6.9827   9.1930   C.ar      2 RES2   0.0000
    66 H23      3.9845   6.4018   9.9395   H         2 RES2   0.0000
    67 C34      5.0041   7.5676   8.6382   C.ar      2 RES2   0.0000
    68 H24      5.8587   7.4105   9.0243   H         2 RES2   0.0000
    69 C35      4.9005   8.3755   7.5364   C.ar      2 RES2   0.0000
    70 H25      5.6808   8.7650   7.1606   H         2 RES2   0.0000
    71 C36      2.4307   8.8231   4.3587   C.ar      2 RES2   0.0000
    72 C37      2.3430   7.4421   4.3460   C.ar      2 RES2   0.0000
    73 H26      2.7762   6.9272   5.0158   H         2 RES2   0.0000
    74 C38      1.6002   6.8058   3.3208   C.ar      2 RES2   0.0000
    75 H27      1.5296   5.8592   3.3080   H         2 RES2   0.0000
    76 C39      0.9894   7.5385   2.3596   C.ar      2 RES2   0.0000
    77 H28      0.5286   7.0949   1.6591   H         2 RES2   0.0000
    78 C40      1.0257   8.9208   2.3852   C.ar      2 RES2   0.0000
    79 H29      0.5581   9.4278   1.7307   H         2 RES2   0.0000
    80 C41      1.7687   9.5637   3.3924   C.ar      2 RES2   0.0000
    81 H30      1.8173  10.5130   3.4103   H         2 RES2   0.0000
    82 O4       3.6519   6.2711  -1.8279   O.3       3 RES3   0.0000
    83 C42      2.5654   6.8031  -2.5488   C.3       3 RES3   0.0000
    84 H31      1.8159   6.1576  -2.5283   H         3 RES3   0.0000
    85 H32      2.8329   6.9286  -3.4921   H         3 RES3   0.0000
    86 C43      2.0824   8.1537  -1.9761   C.3       3 RES3   0.0000
    87 H33      1.2403   8.0653  -1.4623   H         3 RES3   0.0000
    88 H34      1.9779   8.8442  -2.6792   H         3 RES3   0.0000
    89 C44      3.3559   8.4349  -1.0251   C.3       3 RES3   0.0000
    90 H35      4.0141   9.0172  -1.4827   H         3 RES3   0.0000
    91 H36      3.0764   8.8680  -0.1815   H         3 RES3   0.0000
    92 C45      3.9087   7.1411  -0.7746   C.3       3 RES3   0.0000
    93 H37      4.8866   7.2217  -0.6468   H         3 RES3   0.0000
    94 H38      3.5183   6.7728   0.0562   H         3 RES3   0.0000
@<TRIPOS>BOND
     1     1     2    1
     2     3     1    1
     3     4     1    1
     4     5     1    1
     5     6     1    1
     6     7     1    1
     7     8     3    3
     8     9     4    3
     9    10     5    3
    10    11     6    3
    11    12     7    3
    12    13    14    2
    13    14    16    1
    14    15    13    2
    15    16    17   ar
    16    17    18    1
    17    19    17   ar
    18    20    19    1
    19    21    19   ar
    20    22    21    1
    21    23    21   ar
    22    24    23    1
    23    25    16   ar
    24    26    25    1
    25    27    14    1
    26    28    27   ar
    27    29    28    1
    28    30    28   ar
    29    31    30    1
    30    32    30   ar
    31    33    32    1
    32    34    32   ar
    33    35    34    1
    34    36    27   ar
    35    37    36    1
    36    38    14    1
    37    39    38   ar
    38    40    39    1
    39    41    39   ar
    40    42    41    1
    41    43    41   ar
    42    44    43    1
    43    45    43   ar
    44    46    45    1
    45    47    38   ar
    46    48    47    1
    47    49    15    1
    48    50    49   ar
    49    51    50    1
    50    52    50   ar
    51    53    52    1
    52    54    52   ar
    53    55    54    1
    54    56    54   ar
    55    57    56    1
    56    58    49   ar
    57    59    58    1
    58    60    15    1
    59    61    60   ar
    60    62    61    1
    61    63    61   ar
    62    64    63    1
    63    65    63   ar
    64    66    65    1
    65    67    65   ar
    66    68    67    1
    67    69    60   ar
    68    70    69    1
    69    71    15    1
    70    72    71   ar
    71    73    72    1
    72    74    72   ar
    73    75    74    1
    74    76    74   ar
    75    77    76    1
    76    78    76   ar
    77    79    78    1
    78    80    71   ar
    79    81    80    1
    80    23    25   ar
    81    34    36   ar
    82    45    47   ar
    83    56    58   ar
    84    67    69   ar
    85    78    80   ar
    86    82    83    1
    87    83    84    1
    88    85    83    1
    89    86    83    1
    90    87    86    1
    91    88    86    1
    92    89    86    1
    93    90    89    1
    94    91    89    1
    95    92    82    1
    96    93    92    1
    97    94    92    1
    98    89    92    1
@<TRIPOS>SUBSTRUCTURE
     1 RES1        1 GROUP             0 ****  ****    0  
     2 RES2       13 GROUP             0 ****  ****    0  
     3 RES3       82 GROUP             0 ****  ****    0  
@<TRIPOS>CRYSIN
   12.2022   13.2023   25.5672   90.0000   90.8340   90.0000    14     1
