@<TRIPOS>MOLECULE
IDUBOY
    96   101     2     0     0
SMALL
USER_CHARGES
****
Generated from the CSD

@<TRIPOS>ATOM
     1 Fe1     -5.7757   3.1088  12.0915   Fe        1 RES1   0.0000
     2 N1      -3.1225   1.8070  11.4401   N.1       1 RES1   0.0000
     3 N2      -8.4692   4.2598  12.7888   N.1       1 RES1   0.0000
     4 N3      -4.5908   3.2339  16.0400   N.pl3     1 RES1   0.0000
     5 O1      -6.9600   0.9894  10.3770   O.2       1 RES1   0.0000
     6 O2      -5.3676   5.1840  10.0502   O.2       1 RES1   0.0000
     7 S1      -4.8102   4.4819  13.6716   S.2       1 RES1  -1.0000
     8 S2      -5.7753   1.8595  14.0548   S.2       1 RES1   0.0000
     9 C1      -6.5262   1.8388  11.0419   C.1       1 RES1   0.0000
    10 C2      -5.5663   4.3410  10.8165   C.1       1 RES1   0.0000
    11 C3      -4.0986   2.3192  11.6924   C.1       1 RES1   0.0000
    12 C4      -7.4917   3.8256  12.5445   C.1       1 RES1   0.0000
    13 C5      -5.0328   3.2052  14.8007   C.3       1 RES1   0.0000
    14 C6      -4.0852   4.4603  16.6397   C.3       1 RES1   0.0000
    15 H1      -3.6721   5.0043  15.9511   H         1 RES1   0.0000
    16 H2      -3.4041   4.2376  17.2919   H         1 RES1   0.0000
    17 C7      -5.1756   5.2620  17.3173   C.3       1 RES1   0.0000
    18 H3      -5.8509   5.4910  16.6746   H         1 RES1   0.0000
    19 H4      -4.7990   6.0653  17.6854   H         1 RES1   0.0000
    20 H5      -5.5665   4.7402  18.0202   H         1 RES1   0.0000
    21 C8      -4.6861   2.0345  16.8888   C.3       1 RES1   0.0000
    22 H6      -5.4707   1.5191  16.6429   H         1 RES1   0.0000
    23 H7      -4.7725   2.2954  17.8186   H         1 RES1   0.0000
    24 C9      -3.4597   1.2041  16.7064   C.3       1 RES1   0.0000
    25 H8      -3.4186   0.8892  15.8004   H         1 RES1   0.0000
    26 H9      -3.4883   0.4533  17.3046   H         1 RES1   0.0000
    27 H10     -2.6819   1.7354  16.8952   H         1 RES1   0.0000
    28 C10      3.8332   3.2418  16.8365   C.ar      2 RES2   0.0000
    29 C11      4.7716   2.2142  16.7809   C.ar      2 RES2   0.0000
    30 H11      5.2890   2.0917  16.0193   H         2 RES2   0.0000
    31 C12      4.9223   1.3743  17.8726   C.ar      2 RES2   0.0000
    32 H12      5.5714   0.7079  17.8504   H         2 RES2   0.0000
    33 C13      4.1379   1.5096  18.9769   C.ar      2 RES2   0.0000
    34 H13      4.2481   0.9321  19.6973   H         2 RES2   0.0000
    35 C14      3.1875   2.4910  19.0293   C.ar      2 RES2   0.0000
    36 H14      2.6342   2.5721  19.7735   H         2 RES2   0.0000
    37 C15      3.0576   3.3579  17.9726   C.ar      2 RES2   0.0000
    38 H15      2.4305   4.0419  18.0233   H         2 RES2   0.0000
    39 C16      2.1765   5.1379  15.3593   C.ar      2 RES2   0.0000
    40 C17      1.0232   4.3998  15.6449   C.ar      2 RES2   0.0000
    41 H16      1.1020   3.5520  16.0177   H         2 RES2   0.0000
    42 C18     -0.2294   4.9136  15.3799   C.ar      2 RES2   0.0000
    43 H17     -0.9906   4.4141  15.5624   H         2 RES2   0.0000
    44 C19     -0.3341   6.1687  14.8404   C.ar      2 RES2   0.0000
    45 H18     -1.1763   6.5234  14.6690   H         2 RES2   0.0000
    46 C20      0.7805   6.9131  14.5469   C.ar      2 RES2   0.0000
    47 H19      0.6902   7.7562  14.1661   H         2 RES2   0.0000
    48 C21      2.0260   6.4104  14.8198   C.ar      2 RES2   0.0000
    49 H20      2.7805   6.9258  14.6405   H         2 RES2   0.0000
    50 C22      4.9356   5.7694  16.0162   C.ar      2 RES2   0.0000
    51 C23      4.6541   6.4963  17.1808   C.ar      2 RES2   0.0000
    52 H21      3.8933   6.3182  17.6870   H         2 RES2   0.0000
    53 C24      5.5474   7.4969  17.5584   C.ar      2 RES2   0.0000
    54 H22      5.3631   8.0123  18.3089   H         2 RES2   0.0000
    55 C25      6.6746   7.7339  16.8571   C.ar      2 RES2   0.0000
    56 H23      7.2729   8.3861  17.1411   H         2 RES2   0.0000
    57 C26      6.9287   7.0244  15.7464   C.ar      2 RES2   0.0000
    58 H24      7.6994   7.2106  15.2625   H         2 RES2   0.0000
    59 C27      6.0830   6.0271  15.2974   C.ar      2 RES2   0.0000
    60 H25      6.2833   5.5419  14.5278   H         2 RES2   0.0000
    61 C28      3.8121   4.1612  11.4703   C.ar      2 RES2   0.0000
    62 C29      3.6022   3.6983  10.1930   C.ar      2 RES2   0.0000
    63 H26      3.4487   2.7885  10.0803   H         2 RES2   0.0000
    64 C30      3.6030   4.4825   9.0934   C.ar      2 RES2   0.0000
    65 H27      3.4795   4.1183   8.2477   H         2 RES2   0.0000
    66 C31      3.7884   5.8219   9.2568   C.ar      2 RES2   0.0000
    67 H28      3.7829   6.3786   8.5126   H         2 RES2   0.0000
    68 C32      3.9767   6.3500  10.4833   C.ar      2 RES2   0.0000
    69 H29      4.1076   7.2662  10.5722   H         2 RES2   0.0000
    70 C33      3.9777   5.5324  11.6289   C.ar      2 RES2   0.0000
    71 H30      4.0876   5.9030  12.4746   H         2 RES2   0.0000
    72 C34      4.9776   1.7545  12.5207   C.ar      2 RES2   0.0000
    73 C35      4.5842   0.6426  11.7495   C.ar      2 RES2   0.0000
    74 H31      3.7052   0.5615  11.4560   H         2 RES2   0.0000
    75 C36      5.5134  -0.3197  11.4354   C.ar      2 RES2   0.0000
    76 H32      5.2606  -1.0610  10.9324   H         2 RES2   0.0000
    77 C37      6.7829  -0.2020  11.8431   C.ar      2 RES2   0.0000
    78 H33      7.3926  -0.8621  11.6115   H         2 RES2   0.0000
    79 C38      7.2088   0.8542  12.5889   C.ar      2 RES2   0.0000
    80 H34      8.0924   0.9051  12.8729   H         2 RES2   0.0000
    81 C39      6.3026   1.8563  12.9189   C.ar      2 RES2   0.0000
    82 H35      6.5853   2.5944  13.4092   H         2 RES2   0.0000
    83 C40      2.2378   2.3860  13.0887   C.ar      2 RES2   0.0000
    84 C41      1.1190   2.9873  12.5746   C.ar      2 RES2   0.0000
    85 H36      1.2144   3.7540  12.0573   H         2 RES2   0.0000
    86 C42     -0.1344   2.4894  12.8031   C.ar      2 RES2   0.0000
    87 H37     -0.8825   2.9205  12.4556   H         2 RES2   0.0000
    88 C43     -0.2767   1.3505  13.5473   C.ar      2 RES2   0.0000
    89 H38     -1.1250   1.0021  13.6916   H         2 RES2   0.0000
    90 C44      0.8029   0.7238  14.0756   C.ar      2 RES2   0.0000
    91 H39      0.6890  -0.0398  14.5929   H         2 RES2   0.0000
    92 C45      2.0583   1.2137  13.8503   C.ar      2 RES2   0.0000
    93 H40      2.7988   0.7715  14.1994   H         2 RES2   0.0000
    94 N4       4.3942   3.8463  14.1550   N.1       2 RES2   1.0000
    95 P1       3.8456   3.0929  12.9091   P.3       2 RES2   0.0000
    96 P2       3.8131   4.4401  15.5121   P.3       2 RES2   0.0000
@<TRIPOS>BOND
     1     1     7    1
     2     2    11    3
     3     3    12    3
     4     4    13    1
     5     5     9    3
     6     6    10    3
     7     7    13   un
     8     8     1    1
     9     9     1    1
    10    10     1    1
    11    11     1    1
    12    12     1    1
    13    13     8   un
    14    14     4    1
    15    15    14    1
    16    16    14    1
    17    17    14    1
    18    18    17    1
    19    19    17    1
    20    20    17    1
    21    21     4    1
    22    22    21    1
    23    23    21    1
    24    24    21    1
    25    25    24    1
    26    26    24    1
    27    27    24    1
    28    28    29   ar
    29    29    30    1
    30    31    29   ar
    31    32    31    1
    32    33    31   ar
    33    34    33    1
    34    35    33   ar
    35    36    35    1
    36    37    28   ar
    37    38    37    1
    38    39    40   ar
    39    40    41    1
    40    42    40   ar
    41    43    42    1
    42    44    42   ar
    43    45    44    1
    44    46    44   ar
    45    47    46    1
    46    48    39   ar
    47    49    48    1
    48    50    51   ar
    49    51    52    1
    50    53    51   ar
    51    54    53    1
    52    55    53   ar
    53    56    55    1
    54    57    55   ar
    55    58    57    1
    56    59    50   ar
    57    60    59    1
    58    61    62   ar
    59    62    63    1
    60    64    62   ar
    61    65    64    1
    62    66    64   ar
    63    67    66    1
    64    68    66   ar
    65    69    68    1
    66    70    61   ar
    67    71    70    1
    68    72    73   ar
    69    73    74    1
    70    75    73   ar
    71    76    75    1
    72    77    75   ar
    73    78    77    1
    74    79    77   ar
    75    80    79    1
    76    81    72   ar
    77    82    81    1
    78    83    84   ar
    79    84    85    1
    80    86    84   ar
    81    87    86    1
    82    88    86   ar
    83    89    88    1
    84    90    88   ar
    85    91    90    1
    86    92    83   ar
    87    93    92    1
    88    94    95    2
    89    95    61    1
    90    96    28    1
    91    35    37   ar
    92    39    96    1
    93    46    48   ar
    94    50    96    1
    95    57    59   ar
    96    68    70   ar
    97    72    95    1
    98    79    81   ar
    99    83    95    1
   100    90    92   ar
   101    94    96    2
@<TRIPOS>SUBSTRUCTURE
     1 RES1        1 GROUP             0 ****  ****    0  
     2 RES2       28 GROUP             0 ****  ****    0  
@<TRIPOS>CRYSIN
   16.9820   15.9068   17.5760   90.0000  115.4760   90.0000   231     1
