@<TRIPOS>MOLECULE
IDUCAL
    89    95     2     0     0
SMALL
USER_CHARGES
****
Generated from the CSD

@<TRIPOS>ATOM
     1 Fe1      0.4904   2.0978   3.7383   Fe        1 RES1   0.0000
     2 S1       2.2996   1.3264   5.0328   S.3       1 RES1  -1.0000
     3 C1      -0.7168   1.1459   4.8418   C.1       1 RES1   0.0000
     4 C2       1.7242   3.0724   2.6233   C.1       1 RES1   0.0000
     5 C3       0.2399   3.6328   4.5815   C.1       1 RES1   0.0000
     6 C4      -0.8139   2.3946   2.5028   C.1       1 RES1   0.0000
     7 C5       2.1554   0.0870   3.8438   C.ar      1 RES1   0.0000
     8 C6       2.8908  -1.0654   3.6921   C.ar      1 RES1   0.0000
     9 H1       3.6045  -1.2698   4.2850   H         1 RES1   0.0000
    10 C7       2.5700  -1.9041   2.6717   C.ar      1 RES1   0.0000
    11 H2       3.0676  -2.7045   2.5528   H         1 RES1   0.0000
    12 C8       1.5245  -1.6114   1.7943   C.ar      1 RES1   0.0000
    13 H3       1.3130  -2.1915   1.0721   H         1 RES1   0.0000
    14 C9       0.8030  -0.4470   2.0115   C.ar      1 RES1   0.0000
    15 H4       0.0679  -0.2374   1.4462   H         1 RES1   0.0000
    16 O1       0.1388   4.6415   5.1124   O.2       1 RES1   0.0000
    17 O2      -1.6134   2.5819   1.7030   O.2       1 RES1   0.0000
    18 N1      -1.4590   0.5710   5.4987   N.1       1 RES1   0.0000
    19 N2       2.4060   3.7488   1.9796   N.1       1 RES1   0.0000
    20 N3       1.1312   0.3844   3.0056   N.ar      1 RES1   0.0000
    21 P1       9.9245   1.4397   2.9933   P.3       2 RES2   0.0000
    22 P2      10.0323   1.8920   5.9468   P.3       2 RES2   0.0000
    23 N4      10.4736   1.7317   4.4410   N.1       2 RES2   1.0000
    24 C10      8.2031   1.9067   2.7727   C.ar      2 RES2   0.0000
    25 C11      7.8684   3.2530   2.9675   C.ar      2 RES2   0.0000
    26 H5       8.5514   3.8978   3.1129   H         2 RES2   0.0000
    27 C12      6.5431   3.6407   2.9475   C.ar      2 RES2   0.0000
    28 H6       6.3130   4.5506   3.0957   H         2 RES2   0.0000
    29 C13      5.5657   2.7203   2.7148   C.ar      2 RES2   0.0000
    30 H7       4.6569   2.9959   2.7079   H         2 RES2   0.0000
    31 C14      5.8796   1.3938   2.4907   C.ar      2 RES2   0.0000
    32 H8       5.1910   0.7648   2.3132   H         2 RES2   0.0000
    33 C15      7.2142   0.9771   2.5235   C.ar      2 RES2   0.0000
    34 H9       7.4364   0.0659   2.3769   H         2 RES2   0.0000
    35 C16     10.8981   2.3682   1.8157   C.ar      2 RES2   0.0000
    36 C17     10.3906   2.6320   0.5378   C.ar      2 RES2   0.0000
    37 H10      9.5088   2.3603   0.3103   H         2 RES2   0.0000
    38 C18     11.1694   3.2834  -0.3844   C.ar      2 RES2   0.0000
    39 H11     10.8191   3.4667  -1.2479   H         2 RES2   0.0000
    40 C19     12.4241   3.6658  -0.0862   C.ar      2 RES2   0.0000
    41 H12     12.9535   4.1035  -0.7412   H         2 RES2   0.0000
    42 C20     12.9462   3.4245   1.1721   C.ar      2 RES2   0.0000
    43 H13     13.8317   3.6987   1.3789   H         2 RES2   0.0000
    44 C21     12.1753   2.7797   2.1305   C.ar      2 RES2   0.0000
    45 H14     12.5278   2.6227   2.9992   H         2 RES2   0.0000
    46 C22     10.0827  -0.3033   2.5677   C.ar      2 RES2   0.0000
    47 C23     10.5296  -0.7332   1.3207   C.ar      2 RES2   0.0000
    48 H15     10.7876  -0.0976   0.6636   H         2 RES2   0.0000
    49 C24     10.5983  -2.0874   1.0359   C.ar      2 RES2   0.0000
    50 H16     10.9048  -2.3775   0.1844   H         2 RES2   0.0000
    51 C25     10.2230  -3.0144   1.9839   C.ar      2 RES2   0.0000
    52 H17     10.2493  -3.9400   1.7754   H         2 RES2   0.0000
    53 C26      9.8094  -2.6016   3.2319   C.ar      2 RES2   0.0000
    54 H18      9.5675  -3.2451   3.8886   H         2 RES2   0.0000
    55 C27      9.7455  -1.2566   3.5302   C.ar      2 RES2   0.0000
    56 H19      9.4712  -0.9771   4.3954   H         2 RES2   0.0000
    57 C28     11.2729   1.0641   6.9516   C.ar      2 RES2   0.0000
    58 C29     12.3355   0.4272   6.3334   C.ar      2 RES2   0.0000
    59 H20     12.3641   0.3719   5.3865   H         2 RES2   0.0000
    60 C30     13.3584  -0.1292   7.0877   C.ar      2 RES2   0.0000
    61 H21     14.0866  -0.5617   6.6568   H         2 RES2   0.0000
    62 C31     13.3141  -0.0527   8.4563   C.ar      2 RES2   0.0000
    63 H22     14.0260  -0.4088   8.9751   H         2 RES2   0.0000
    64 C32     12.2420   0.5367   9.0803   C.ar      2 RES2   0.0000
    65 H23     12.2058   0.5551  10.0300   H         2 RES2   0.0000
    66 C33     11.2161   1.1024   8.3491   C.ar      2 RES2   0.0000
    67 H24     10.4808   1.5138   8.7890   H         2 RES2   0.0000
    68 C34      8.4235   1.1986   6.3614   C.ar      2 RES2   0.0000
    69 C35      7.2713   1.9397   6.0858   C.ar      2 RES2   0.0000
    70 H25      7.3438   2.8390   5.7881   H         2 RES2   0.0000
    71 C36      6.0202   1.3569   6.2474   C.ar      2 RES2   0.0000
    72 H26      5.2384   1.8553   6.0397   H         2 RES2   0.0000
    73 C37      5.9043   0.0699   6.7039   C.ar      2 RES2   0.0000
    74 H27      5.0448  -0.3178   6.8119   H         2 RES2   0.0000
    75 C38      7.0338  -0.6619   7.0067   C.ar      2 RES2   0.0000
    76 H28      6.9527  -1.5507   7.3342   H         2 RES2   0.0000
    77 C39      8.2952  -0.0936   6.8304   C.ar      2 RES2   0.0000
    78 H29      9.0728  -0.6000   7.0343   H         2 RES2   0.0000
    79 C40      9.9795   3.6302   6.4045   C.ar      2 RES2   0.0000
    80 C41     10.4294   4.6152   5.5311   C.ar      2 RES2   0.0000
    81 H30     10.7644   4.3752   4.6746   H         2 RES2   0.0000
    82 C42     10.3886   5.9430   5.9137   C.ar      2 RES2   0.0000
    83 H31     10.6787   6.6142   5.3072   H         2 RES2   0.0000
    84 C43      9.9344   6.3043   7.1549   C.ar      2 RES2   0.0000
    85 H32      9.9176   7.2208   7.4066   H         2 RES2   0.0000
    86 C44      9.5009   5.3351   8.0363   C.ar      2 RES2   0.0000
    87 H33      9.1992   5.5844   8.9027   H         2 RES2   0.0000
    88 C45      9.5050   4.0073   7.6655   C.ar      2 RES2   0.0000
    89 H34      9.1848   3.3467   8.2684   H         2 RES2   0.0000
@<TRIPOS>BOND
     1     1     2    1
     2     2     7    1
     3     3     1    1
     4     4     1    1
     5     5     1    1
     6     6     1    1
     7     7     8   ar
     8     8     9    1
     9    10     8   ar
    10    11    10    1
    11    12    10   ar
    12    13    12    1
    13    14    12   ar
    14    15    14    1
    15    16     5    3
    16    17     6    3
    17    18     3    3
    18    19     4    3
    19    20     1    1
    20     7    20   ar
    21    14    20   ar
    22    21    23    2
    23    22    23    2
    24    24    21    1
    25    25    24   ar
    26    26    25    1
    27    27    25   ar
    28    28    27    1
    29    29    27   ar
    30    30    29    1
    31    31    29   ar
    32    32    31    1
    33    33    24   ar
    34    34    33    1
    35    35    21    1
    36    36    35   ar
    37    37    36    1
    38    38    36   ar
    39    39    38    1
    40    40    38   ar
    41    41    40    1
    42    42    40   ar
    43    43    42    1
    44    44    35   ar
    45    45    44    1
    46    46    21    1
    47    47    46   ar
    48    48    47    1
    49    49    47   ar
    50    50    49    1
    51    51    49   ar
    52    52    51    1
    53    53    51   ar
    54    54    53    1
    55    55    46   ar
    56    56    55    1
    57    57    22    1
    58    58    57   ar
    59    59    58    1
    60    60    58   ar
    61    61    60    1
    62    62    60   ar
    63    63    62    1
    64    64    62   ar
    65    65    64    1
    66    66    57   ar
    67    67    66    1
    68    68    22    1
    69    69    68   ar
    70    70    69    1
    71    71    69   ar
    72    72    71    1
    73    73    71   ar
    74    74    73    1
    75    75    73   ar
    76    76    75    1
    77    77    68   ar
    78    78    77    1
    79    79    22    1
    80    80    79   ar
    81    81    80    1
    82    82    80   ar
    83    83    82    1
    84    84    82   ar
    85    85    84    1
    86    86    84   ar
    87    87    86    1
    88    88    79   ar
    89    89    88    1
    90    31    33   ar
    91    42    44   ar
    92    53    55   ar
    93    64    66   ar
    94    75    77   ar
    95    86    88   ar
@<TRIPOS>SUBSTRUCTURE
     1 RES1        1 GROUP             0 ****  ****    0  
     2 RES2       21 GROUP             0 ****  ****    0  
@<TRIPOS>CRYSIN
   17.6478   13.1862   17.8391   90.0000  104.9324   90.0000   231     1
