@<TRIPOS>MOLECULE
IDUHAT01
    83    91     1     0     0
SMALL
NO_CHARGES
****
Generated from the CSD

@<TRIPOS>ATOM
     1 Fe1      8.4660   2.3594  15.6578   Fe        1 RES1   0.0000
     2 N1       7.1468   3.0408  17.0154   N.ar      1 RES1   0.0000
     3 C1       6.2995   2.3503  17.7959   C.ar      1 RES1   0.0000
     4 H1       6.0832   1.4324  17.6733   H         1 RES1   0.0000
     5 C2       5.7811   3.1494  18.8042   C.ar      1 RES1   0.0000
     6 H2       5.1609   2.9055  19.4820   H         1 RES1   0.0000
     7 C3       6.3721   4.3813  18.5996   C.ar      1 RES1   0.0000
     8 H3       6.2307   5.1548  19.1311   H         1 RES1   0.0000
     9 N2       7.1796   4.3073  17.5268   N.ar      1 RES1   0.0000
    10 B1       7.9499   5.4717  16.8599   B         1 RES1   0.0000
    11 H4       7.9001   6.2853  17.4231   H         1 RES1   0.0000
    12 H5       7.5641   5.6774  15.9705   H         1 RES1   0.0000
    13 N3       9.4235   5.0011  16.7151   N.ar      1 RES1   0.0000
    14 N4       9.7447   3.7541  16.2548   N.ar      1 RES1   0.0000
    15 C4      11.0691   3.6281  16.4009   C.ar      1 RES1   0.0000
    16 H6      11.5655   2.8513  16.1743   H         1 RES1   0.0000
    17 C5      11.6193   4.7924  16.9295   C.ar      1 RES1   0.0000
    18 H7      12.5326   4.9690  17.1212   H         1 RES1   0.0000
    19 C6      10.5434   5.6302  17.1106   C.ar      1 RES1   0.0000
    20 H8      10.5853   6.5137  17.4592   H         1 RES1   0.0000
    21 N5       9.8854   1.7195  14.3693   N.ar      1 RES1   0.0000
    22 C7      10.5450   2.4194  13.4310   C.ar      1 RES1   0.0000
    23 H9      10.3481   3.3178  13.1944   H         1 RES1   0.0000
    24 C8      11.5530   1.6560  12.8525   C.ar      1 RES1   0.0000
    25 H10     12.1545   1.9105  12.1624   H         1 RES1   0.0000
    26 C9      11.4817   0.4439  13.5107   C.ar      1 RES1   0.0000
    27 H11     12.0451  -0.3039  13.3518   H         1 RES1   0.0000
    28 N6      10.4861   0.4942  14.4119   N.ar      1 RES1   0.0000
    29 B2      10.0664  -0.6223  15.4068   B         1 RES1   0.0000
    30 H12      9.1953  -1.0104  15.1397   H         1 RES1   0.0000
    31 H13     10.7434  -1.3453  15.4158   H         1 RES1   0.0000
    32 N7       9.9573   0.0316  16.8101   N.ar      1 RES1   0.0000
    33 N8       9.2291   1.1595  17.0645   N.ar      1 RES1   0.0000
    34 C10      9.3308   1.3852  18.3831   C.ar      1 RES1   0.0000
    35 H14      8.9278   2.1138  18.8421   H         1 RES1   0.0000
    36 C11     10.1090   0.4036  18.9845   C.ar      1 RES1   0.0000
    37 H15     10.3310   0.3233  19.9051   H         1 RES1   0.0000
    38 C12     10.4887  -0.4270  17.9556   C.ar      1 RES1   0.0000
    39 H16     11.0372  -1.1982  18.0397   H         1 RES1   0.0000
    40 N9       7.7056   3.4080  14.1769   N.ar      1 RES1   0.0000
    41 C13      8.1730   4.5673  13.6776   C.ar      1 RES1   0.0000
    42 H17      8.8962   4.9941  14.1232   H         1 RES1   0.0000
    43 C14      7.6496   5.1682  12.5445   C.ar      1 RES1   0.0000
    44 C15      6.5452   4.5886  11.9198   C.ar      1 RES1   0.0000
    45 H18      6.1464   4.9999  11.1613   H         1 RES1   0.0000
    46 C16      6.0440   3.4043  12.4247   C.ar      1 RES1   0.0000
    47 H19      5.2913   2.9907  12.0205   H         1 RES1   0.0000
    48 C17      6.6543   2.8257  13.5337   C.ar      1 RES1   0.0000
    49 C18      6.2647   1.5300  14.0917   C.ar      1 RES1   0.0000
    50 N10      7.0800   1.0884  15.0907   N.ar      1 RES1   0.0000
    51 C19      6.7517  -0.0701  15.6929   C.ar      1 RES1   0.0000
    52 H20      7.3138  -0.3988  16.3833   H         1 RES1   0.0000
    53 C20      5.6262  -0.8053  15.3469   C.ar      1 RES1   0.0000
    54 C21      4.8184  -0.3658  14.3022   C.ar      1 RES1   0.0000
    55 H21      4.0568  -0.8653  14.0355   H         1 RES1   0.0000
    56 C22      5.1488   0.8138  13.6629   C.ar      1 RES1   0.0000
    57 H22      4.6220   1.1324  12.9390   H         1 RES1   0.0000
    58 C23      8.3154   6.4020  12.0313   C.2       1 RES1   0.0000
    59 O1       9.2618   6.9144  12.5759   O.2       1 RES1   0.0000
    60 O2       7.7507   6.8454  10.8974   O.3       1 RES1   0.0000
    61 C24      8.3577   8.0423  10.2877   C.3       1 RES1   0.0000
    62 H23      8.6129   8.6894  11.0065   H         1 RES1   0.0000
    63 C25      7.2907   8.6577   9.4128   C.3       1 RES1   0.0000
    64 H24      7.0450   8.0274   8.7051   H         1 RES1   0.0000
    65 H25      7.6339   9.4830   9.0095   H         1 RES1   0.0000
    66 H26      6.5008   8.8617   9.9564   H         1 RES1   0.0000
    67 C26      9.5901   7.6356   9.5147   C.3       1 RES1   0.0000
    68 H27     10.2190   7.1834  10.1164   H         1 RES1   0.0000
    69 H28     10.0161   8.4320   9.1360   H         1 RES1   0.0000
    70 H29      9.3349   7.0266   8.7902   H         1 RES1   0.0000
    71 C27      5.3220  -2.0323  16.1506   C.2       1 RES1   0.0000
    72 O3       6.0757  -2.5046  16.9628   O.2       1 RES1   0.0000
    73 O4       4.1029  -2.5027  15.8614   O.3       1 RES1   0.0000
    74 C28      3.6424  -3.6866  16.6031   C.3       1 RES1   0.0000
    75 H30      4.3572  -4.3863  16.5975   H         1 RES1   0.0000
    76 C29      2.4367  -4.1823  15.8312   C.3       1 RES1   0.0000
    77 H31      1.7563  -3.4765  15.8002   H         1 RES1   0.0000
    78 H32      2.0659  -4.9728  16.2750   H         1 RES1   0.0000
    79 H33      2.7063  -4.4173  14.9178   H         1 RES1   0.0000
    80 C30      3.3120  -3.3108  18.0315   C.3       1 RES1   0.0000
    81 H34      4.1174  -2.9694  18.4732   H         1 RES1   0.0000
    82 H35      2.9869  -4.1018  18.5093   H         1 RES1   0.0000
    83 H36      2.6180  -2.6190  18.0345   H         1 RES1   0.0000
@<TRIPOS>BOND
     1     1     2    1
     2     2     3   ar
     3     3     4    1
     4     5     3   ar
     5     6     5    1
     6     7     5   ar
     7     8     7    1
     8     9     2   ar
     9    10     9    1
    10    11    10    1
    11    12    10    1
    12    13    10    1
    13    14     1    1
    14    15    14   ar
    15    16    15    1
    16    17    15   ar
    17    18    17    1
    18    19    13   ar
    19    20    19    1
    20    21     1    1
    21    22    21   ar
    22    23    22    1
    23    24    22   ar
    24    25    24    1
    25    26    24   ar
    26    27    26    1
    27    28    21   ar
    28    29    28    1
    29    30    29    1
    30    31    29    1
    31    32    29    1
    32    33     1    1
    33    34    33   ar
    34    35    34    1
    35    36    34   ar
    36    37    36    1
    37    38    32   ar
    38    39    38    1
    39    40     1    1
    40    41    40   ar
    41    42    41    1
    42    43    41   ar
    43    44    43   ar
    44    45    44    1
    45    46    44   ar
    46    47    46    1
    47    48    40   ar
    48    49    48    1
    49    50     1    1
    50    51    50   ar
    51    52    51    1
    52    53    51   ar
    53    54    53   ar
    54    55    54    1
    55    56    49   ar
    56    57    56    1
    57    58    43    1
    58    59    58    2
    59    60    58    1
    60    61    60    1
    61    62    61    1
    62    63    61    1
    63    64    63    1
    64    65    63    1
    65    66    63    1
    66    67    61    1
    67    68    67    1
    68    69    67    1
    69    70    67    1
    70    71    53    1
    71    72    71    2
    72    73    71    1
    73    74    73    1
    74    75    74    1
    75    76    74    1
    76    77    76    1
    77    78    76    1
    78    79    76    1
    79    80    74    1
    80    81    80    1
    81    82    80    1
    82    83    80    1
    83     7     9   ar
    84    13    14   ar
    85    17    19   ar
    86    26    28   ar
    87    32    33   ar
    88    36    38   ar
    89    46    48   ar
    90    49    50   ar
    91    54    56   ar
@<TRIPOS>SUBSTRUCTURE
     1 RES1        1 GROUP             0 ****  ****    0  
@<TRIPOS>CRYSIN
   13.1756   19.3571   25.8005   90.0000   90.0000   90.0000    61     1
