@<TRIPOS>MOLECULE
IDUHAT
    83    91     1     0     0
SMALL
NO_CHARGES
****
Generated from the CSD

@<TRIPOS>ATOM
     1 Fe1      8.7609   2.3987  16.1801   Fe        1 RES1   0.0000
     2 N1       7.3029   3.1204  17.6449   N.ar      1 RES1   0.0000
     3 C1       6.4961   2.4382  18.4622   C.ar      1 RES1   0.0000
     4 H1       6.2741   1.5412  18.3504   H         1 RES1   0.0000
     5 C2       6.0358   3.2268  19.4892   C.ar      1 RES1   0.0000
     6 H2       5.4613   2.9869  20.1807   H         1 RES1   0.0000
     7 C3       6.6118   4.4402  19.2637   C.ar      1 RES1   0.0000
     8 H3       6.4961   5.1964  19.7928   H         1 RES1   0.0000
     9 N2       7.3664   4.3757  18.1631   N.ar      1 RES1   0.0000
    10 B1       8.1000   5.5257  17.4406   B         1 RES1   0.0000
    11 H4       7.9870   6.3538  17.9334   H         1 RES1   0.0000
    12 H5       7.7310   5.6484  16.5520   H         1 RES1   0.0000
    13 N3       9.5996   5.1670  17.3452   N.ar      1 RES1   0.0000
    14 N4      10.0195   4.0108  16.7683   N.ar      1 RES1   0.0000
    15 C4      11.3503   4.0089  16.8631   C.ar      1 RES1   0.0000
    16 H6      11.9028   3.3259  16.5573   H         1 RES1   0.0000
    17 C5      11.7907   5.1604  17.4754   C.ar      1 RES1   0.0000
    18 H7      12.6694   5.4068  17.6518   H         1 RES1   0.0000
    19 C6      10.6625   5.8587  17.7652   C.ar      1 RES1   0.0000
    20 H8      10.6352   6.6869  18.1884   H         1 RES1   0.0000
    21 N5      10.3313   1.7113  14.7669   N.ar      1 RES1   0.0000
    22 C7      11.0043   2.3866  13.8303   C.ar      1 RES1   0.0000
    23 H9      10.8258   3.2655  13.5848   H         1 RES1   0.0000
    24 C8      11.9941   1.6129  13.2759   C.ar      1 RES1   0.0000
    25 H10     12.5904   1.8471  12.6020   H         1 RES1   0.0000
    26 C9      11.9028   0.4164  13.9395   C.ar      1 RES1   0.0000
    27 H11     12.4434  -0.3254  13.7894   H         1 RES1   0.0000
    28 N6      10.9171   0.4844  14.8360   N.ar      1 RES1   0.0000
    29 B2      10.4432  -0.6062  15.8274   B         1 RES1   0.0000
    30 H12     11.0505  -1.3619  15.8003   H         1 RES1   0.0000
    31 H13      9.5582  -0.9177  15.5771   H         1 RES1   0.0000
    32 N7      10.4073  -0.0092  17.2562   N.ar      1 RES1   0.0000
    33 N8       9.5618   1.0017  17.5979   N.ar      1 RES1   0.0000
    34 C10      9.7475   1.2139  18.9035   C.ar      1 RES1   0.0000
    35 H14      9.2982   1.8588  19.4023   H         1 RES1   0.0000
    36 C11     10.6842   0.3595  19.4095   C.ar      1 RES1   0.0000
    37 H15     10.9865   0.3040  20.2869   H         1 RES1   0.0000
    38 C12     11.0805  -0.3957  18.3422   C.ar      1 RES1   0.0000
    39 H16     11.7190  -1.0716  18.3690   H         1 RES1   0.0000
    40 N9       7.8499   3.4325  14.4466   N.ar      1 RES1   0.0000
    41 C13      8.3291   4.5630  13.9211   C.ar      1 RES1   0.0000
    42 H17      9.0204   4.9977  14.3658   H         1 RES1   0.0000
    43 C14      7.8500   5.1183  12.7505   C.ar      1 RES1   0.0000
    44 C15      6.7983   4.4886  12.1278   C.ar      1 RES1   0.0000
    45 H18      6.4457   4.8360  11.3402   H         1 RES1   0.0000
    46 C16      6.2710   3.3404  12.6750   C.ar      1 RES1   0.0000
    47 H19      5.5457   2.9187  12.2726   H         1 RES1   0.0000
    48 C17      6.8283   2.8217  13.8255   C.ar      1 RES1   0.0000
    49 C18      6.3641   1.5568  14.4452   C.ar      1 RES1   0.0000
    50 N10      7.1417   1.0837  15.4401   N.ar      1 RES1   0.0000
    51 C19      6.7754  -0.0429  16.0526   C.ar      1 RES1   0.0000
    52 H20      7.3225  -0.3819  16.7247   H         1 RES1   0.0000
    53 C20      5.6169  -0.7310  15.7341   C.ar      1 RES1   0.0000
    54 C21      4.8311  -0.2500  14.7061   C.ar      1 RES1   0.0000
    55 H21      4.0534  -0.6975  14.4614   H         1 RES1   0.0000
    56 C22      5.2084   0.8992  14.0470   C.ar      1 RES1   0.0000
    57 H22      4.6961   1.2294  13.3458   H         1 RES1   0.0000
    58 C23      8.5112   6.3403  12.2173   C.2       1 RES1   0.0000
    59 O1       9.4298   6.8808  12.7667   O.2       1 RES1   0.0000
    60 O2       7.9749   6.7477  11.0708   O.3       1 RES1   0.0000
    61 C24      8.5234   7.9598  10.4476   C.3       1 RES1   0.0000
    62 H23      8.8162   8.5730  11.1542   H         1 RES1   0.0000
    63 C25      7.4097   8.5964   9.6948   C.3       1 RES1   0.0000
    64 H24      7.1401   8.0236   8.9733   H         1 RES1   0.0000
    65 H25      7.7038   9.4400   9.3399   H         1 RES1   0.0000
    66 H26      6.6662   8.7406  10.2856   H         1 RES1   0.0000
    67 C26      9.6903   7.5988   9.6204   C.3       1 RES1   0.0000
    68 H27     10.3316   7.1292  10.1581   H         1 RES1   0.0000
    69 H28     10.0906   8.3976   9.2682   H         1 RES1   0.0000
    70 H29      9.4071   7.0357   8.8963   H         1 RES1   0.0000
    71 C27      5.2774  -1.9441  16.5321   C.2       1 RES1   0.0000
    72 O3       6.0229  -2.4439  17.3245   O.2       1 RES1   0.0000
    73 O4       4.0567  -2.3944  16.2601   O.3       1 RES1   0.0000
    74 C28      3.5755  -3.5605  17.0124   C.3       1 RES1   0.0000
    75 H30      4.2944  -4.2242  17.0780   H         1 RES1   0.0000
    76 C29      2.4522  -4.1260  16.2184   C.3       1 RES1   0.0000
    77 H31      1.7605  -3.4662  16.1270   H         1 RES1   0.0000
    78 H32      2.0995  -4.8983  16.6689   H         1 RES1   0.0000
    79 H33      2.7694  -4.3800  15.3487   H         1 RES1   0.0000
    80 C30      3.1915  -3.1155  18.3738   C.3       1 RES1   0.0000
    81 H34      3.9486  -2.7102  18.8047   H         1 RES1   0.0000
    82 H35      2.8988  -3.8715  18.8870   H         1 RES1   0.0000
    83 H36      2.4794  -2.4745  18.3106   H         1 RES1   0.0000
@<TRIPOS>BOND
     1     1     2    1
     2     2     3   ar
     3     3     4    1
     4     5     3   ar
     5     6     5    1
     6     7     5   ar
     7     8     7    1
     8     9     2   ar
     9    10     9    1
    10    11    10    1
    11    12    10    1
    12    13    10    1
    13    14     1    1
    14    15    14   ar
    15    16    15    1
    16    17    15   ar
    17    18    17    1
    18    19    13   ar
    19    20    19    1
    20    21     1    1
    21    22    21   ar
    22    23    22    1
    23    24    22   ar
    24    25    24    1
    25    26    24   ar
    26    27    26    1
    27    28    21   ar
    28    29    28    1
    29    30    29    1
    30    31    29    1
    31    32    29    1
    32    33     1    1
    33    34    33   ar
    34    35    34    1
    35    36    34   ar
    36    37    36    1
    37    38    32   ar
    38    39    38    1
    39    40     1    1
    40    41    40   ar
    41    42    41    1
    42    43    41   ar
    43    44    43   ar
    44    45    44    1
    45    46    44   ar
    46    47    46    1
    47    48    40   ar
    48    49    48    1
    49    50     1    1
    50    51    50   ar
    51    52    51    1
    52    53    51   ar
    53    54    53   ar
    54    55    54    1
    55    56    49   ar
    56    57    56    1
    57    58    43    1
    58    59    58    2
    59    60    58    1
    60    61    60    1
    61    62    61    1
    62    63    61    1
    63    64    63    1
    64    65    63    1
    65    66    63    1
    66    67    61    1
    67    68    67    1
    68    69    67    1
    69    70    67    1
    70    71    53    1
    71    72    71    2
    72    73    71    1
    73    74    73    1
    74    75    74    1
    75    76    74    1
    76    77    76    1
    77    78    76    1
    78    79    76    1
    79    80    74    1
    80    81    80    1
    81    82    80    1
    82    83    80    1
    83     7     9   ar
    84    13    14   ar
    85    17    19   ar
    86    26    28   ar
    87    32    33   ar
    88    36    38   ar
    89    46    48   ar
    90    49    50   ar
    91    54    56   ar
@<TRIPOS>SUBSTRUCTURE
     1 RES1        1 GROUP             0 ****  ****    0  
@<TRIPOS>CRYSIN
   13.6157   19.4841   26.5640   90.0000   90.0000   90.0000    61     1
