@<TRIPOS>MOLECULE
IFEYUQ
    89    94     5     0     0
SMALL
USER_CHARGES
****
Generated from the CSD

@<TRIPOS>ATOM
     1 Se1     11.1977   9.3552   1.6921   Se        1 RES1   0.0000
     2 Se2      7.9856   9.8416   2.8388   Se        1 RES1   0.0000
     3 Fe1     10.1231   9.4513   3.7740   Fe        1 RES1   2.0000
     4 N1      11.8920   9.5346   4.6411   N.2       1 RES1   0.0000
     5 N2       9.2380   9.2168   5.5192   N.2       1 RES1   0.0000
     6 N3      10.3853  11.3913   3.8677   N.2       1 RES1   0.0000
     7 N4       9.9217   7.4993   3.7724   N.2       1 RES1   0.0000
     8 C1      12.6673   8.1358   2.0250   C.ar      1 RES1   0.0000
     9 C2       7.8099  11.0550   0.2706   C.ar      1 RES1   0.0000
    10 H1       7.1860  10.3572   0.1091   H         1 RES1   0.0000
    11 C3       8.0764  11.9962  -0.7219   C.ar      1 RES1   0.0000
    12 H2       7.6536  11.9276  -1.5705   H         1 RES1   0.0000
    13 C4      10.1128   8.0775   0.7519   C.ar      1 RES1   0.0000
    14 C5      13.0943   7.3275   0.9826   C.ar      1 RES1   0.0000
    15 H3      12.6322   7.3371   0.1524   H         1 RES1   0.0000
    16 C6       8.4580  11.1392   1.4970   C.ar      1 RES1   0.0000
    17 C7       9.3825  12.1589   1.7588   C.ar      1 RES1   0.0000
    18 C8       8.9552  13.0248  -0.4684   C.ar      1 RES1   0.0000
    19 H4       9.1211  13.6757  -1.1390   H         1 RES1   0.0000
    20 C9       9.6348   6.9260   1.3924   C.ar      1 RES1   0.0000
    21 C10     14.9022   6.5115   2.3527   C.ar      1 RES1   0.0000
    22 H5      15.6593   5.9496   2.4656   H         1 RES1   0.0000
    23 C11     11.2103  11.8162   5.0328   C.3       1 RES1   0.0000
    24 H6      10.6411  12.2847   5.6949   H         1 RES1   0.0000
    25 H7      11.9170  12.4428   4.7340   H         1 RES1   0.0000
    26 C12     13.3605   8.1507   3.2451   C.ar      1 RES1   0.0000
    27 C13      9.6020  13.1220   0.7577   C.ar      1 RES1   0.0000
    28 H8      10.1979  13.8445   0.9208   H         1 RES1   0.0000
    29 C14      9.0196   5.9423   0.6117   C.ar      1 RES1   0.0000
    30 H9       8.7233   5.1377   1.0219   H         1 RES1   0.0000
    31 C15     10.1489  12.3160   3.0021   C.2       1 RES1   0.0000
    32 H10     10.5027  13.1783   3.1843   H         1 RES1   0.0000
    33 C16      6.5514  12.2019   3.6847   C.ar      1 RES1   0.0000
    34 H11      6.4500  12.3558   2.7528   H         1 RES1   0.0000
    35 C17     14.2004   6.5010   1.1555   C.ar      1 RES1   0.0000
    36 H12     14.4765   5.9265   0.4508   H         1 RES1   0.0000
    37 C18     11.8473  10.5831   5.6769   C.3       1 RES1   0.0000
    38 H13     12.7613  10.7942   5.9933   H         1 RES1   0.0000
    39 H14     11.3081  10.2808   6.4504   H         1 RES1   0.0000
    40 C19      9.9194   8.2625  -0.6081   C.ar      1 RES1   0.0000
    41 H15     10.2393   9.0514  -1.0299   H         1 RES1   0.0000
    42 C20      8.8345   6.1207  -0.7496   C.ar      1 RES1   0.0000
    43 H16      8.4198   5.4397  -1.2657   H         1 RES1   0.0000
    44 C21     14.4965   7.3419   3.3794   C.ar      1 RES1   0.0000
    45 H17     14.9953   7.3655   4.1869   H         1 RES1   0.0000
    46 C22      8.2319   9.7771   6.0686   C.2       1 RES1   0.0000
    47 H18      7.9537   9.4423   6.9125   H         1 RES1   0.0000
    48 C23      9.7987   8.0107   6.1720   C.3       1 RES1   0.0000
    49 H19      9.2509   7.7563   6.9558   H         1 RES1   0.0000
    50 H20     10.7260   8.1827   6.4761   H         1 RES1   0.0000
    51 C24      7.2963  11.1177   4.1314   C.ar      1 RES1   0.0000
    52 C25     13.0399   9.0413   4.3663   C.2       1 RES1   0.0000
    53 H21     13.7561   9.2753   4.9457   H         1 RES1   0.0000
    54 C26      6.8303  11.7535   6.4022   C.ar      1 RES1   0.0000
    55 H22      6.9089  11.5954   7.3360   H         1 RES1   0.0000
    56 C27      7.4709  10.8940   5.5065   C.ar      1 RES1   0.0000
    57 C28      5.9515  13.0650   4.6013   C.ar      1 RES1   0.0000
    58 H23      5.4523  13.8125   4.2944   H         1 RES1   0.0000
    59 C29      6.0824  12.8322   5.9567   C.ar      1 RES1   0.0000
    60 H24      5.6622  13.4110   6.5820   H         1 RES1   0.0000
    61 C30      9.7054   6.6529   2.8226   C.2       1 RES1   0.0000
    62 H25      9.5778   5.7489   3.0849   H         1 RES1   0.0000
    63 C31      9.2560   7.2900  -1.3560   C.ar      1 RES1   0.0000
    64 H26      9.0923   7.4312  -2.2812   H         1 RES1   0.0000
    65 C32      9.7800   6.9123   5.1368   C.3       1 RES1   0.0000
    66 H27     10.5223   6.2800   5.3067   H         1 RES1   0.0000
    67 H28      8.9277   6.4115   5.1976   H         1 RES1   0.0000
    68 B1       5.8890   6.9178   4.6217   B         2 RES2  -1.0000
    69 F1       6.7700   6.3275   3.6999   F         2 RES2   0.0000
    70 F2       6.2598   8.2129   4.8009   F         2 RES2   0.0000
    71 F3       5.9607   6.2557   5.8161   F         2 RES2   0.0000
    72 F4       4.6261   6.8855   4.1111   F         2 RES2   0.0000
    73 B2       9.4904  10.9857   9.0184   B         3 RES3  -1.0000
    74 F5      10.0972  11.5926  10.1125   F         3 RES3   0.0000
    75 F6      10.1032   9.7698   8.7448   F         3 RES3   0.0000
    76 F7       8.1463  10.7507   9.2919   F         3 RES3   0.0000
    77 F8       9.6077  11.8088   7.9006   F         3 RES3   0.0000
    78 N5      13.4539  11.4648   2.3251   N.1       4 RES4   0.0000
    79 C33     14.2012  12.2767   2.4897   C.1       4 RES4   0.0000
    80 C34     15.1877  13.3329   2.7271   C.3       4 RES4   0.0000
    81 H29     15.8867  12.9989   3.3271   H         4 RES4   0.0000
    82 H30     14.7458  14.1056   3.1394   H         4 RES4   0.0000
    83 H31     15.5890  13.6029   1.8753   H         4 RES4   0.0000
    84 N6       2.3631  11.3503   5.5890   N.1       5 RES5   0.0000
    85 C35      3.0473  10.5615   6.1039   C.1       5 RES5   0.0000
    86 C36      3.8818   9.5755   6.7681   C.3       5 RES5   0.0000
    87 H32      4.0254   9.8420   7.7001   H         5 RES5   0.0000
    88 H33      4.7457   9.5151   6.3077   H         5 RES5   0.0000
    89 H34      3.4382   8.7014   6.7440   H         5 RES5   0.0000
@<TRIPOS>BOND
     1     1     3    1
     2     2     3    1
     3     3     4    1
     4     4    37    1
     5     5     3    1
     6     6     3    1
     7     7     3    1
     8     8     1    1
     9     9    10    1
    10    11     9   ar
    11    12    11    1
    12    13     1    1
    13    14     8   ar
    14    15    14    1
    15    16     2    1
    16    17    16   ar
    17    18    11   ar
    18    19    18    1
    19    20    13   ar
    20    21    22    1
    21    23     6    1
    22    24    23    1
    23    25    23    1
    24    26     8   ar
    25    27    17   ar
    26    28    27    1
    27    29    20   ar
    28    30    29    1
    29    31     6    2
    30    32    31    1
    31    33    34    1
    32    35    14   ar
    33    36    35    1
    34    37    23    1
    35    38    37    1
    36    39    37    1
    37    40    13   ar
    38    41    40    1
    39    42    29   ar
    40    43    42    1
    41    44    21   ar
    42    45    44    1
    43    46     5    2
    44    47    46    1
    45    48     5    1
    46    49    48    1
    47    50    48    1
    48    51     2    1
    49    52     4    2
    50    53    52    1
    51    54    55    1
    52    56    46    1
    53    57    33   ar
    54    58    57    1
    55    59    54   ar
    56    60    59    1
    57    61     7    2
    58    62    61    1
    59    63    40   ar
    60    64    63    1
    61    65     7    1
    62    66    65    1
    63    67    65    1
    64     9    16   ar
    65    17    31    1
    66    18    27   ar
    67    20    61    1
    68    21    35   ar
    69    26    44   ar
    70    26    52    1
    71    33    51   ar
    72    42    63   ar
    73    48    65    1
    74    51    56   ar
    75    54    56   ar
    76    57    59   ar
    77    68    69    1
    78    70    68    1
    79    71    68    1
    80    72    68    1
    81    73    74    1
    82    75    73    1
    83    76    73    1
    84    77    73    1
    85    78    79    3
    86    79    80    1
    87    80    81    1
    88    82    80    1
    89    83    80    1
    90    84    85    3
    91    85    86    1
    92    86    87    1
    93    88    86    1
    94    89    86    1
@<TRIPOS>SUBSTRUCTURE
     1 RES1        1 GROUP             0 ****  ****    0  
     2 RES2       68 GROUP             0 ****  ****    0  
     3 RES3       73 GROUP             0 ****  ****    0  
     4 RES4       78 GROUP             0 ****  ****    0  
     5 RES5       84 GROUP             0 ****  ****    0  
@<TRIPOS>CRYSIN
   13.1966   17.7653   16.4051   90.0000  102.0790   90.0000   231     1
