@<TRIPOS>MOLECULE
IFILOA
    98   100     3     0     0
SMALL
USER_CHARGES
****
Generated from the CSD

@<TRIPOS>ATOM
     1 Fe1      3.8152   0.0054   4.4590   Fe        1 RES1   2.0000
     2 P1       4.7478   0.7678   6.3988   P.3       1 RES1   0.0000
     3 P2       3.0173  -0.7960   2.4795   P.3       1 RES1   0.0000
     4 N1       4.5611   2.6747   3.0059   N.pl3     1 RES1   0.0000
     5 N2       3.7774   1.8461   3.7425   N.2       1 RES1   0.0000
     6 N3       3.6478  -2.8662   5.6885   N.pl3     1 RES1   0.0000
     7 N4       3.1815  -1.6372   5.3674   N.2       1 RES1   0.0000
     8 N5       2.0655   0.5563   5.0026   N.ar      1 RES1   0.0000
     9 N6       5.5464  -0.5853   3.8840   N.1       1 RES1   0.0000
    10 C1       3.9242   3.8494   2.7371   C.2       1 RES1   0.0000
    11 C2       2.6859   3.7794   3.3244   C.2       1 RES1   0.0000
    12 C3       2.6315   2.5282   3.9430   C.2       1 RES1   0.0000
    13 C4       1.6300   1.8034   4.7068   C.ar      1 RES1   0.0000
    14 C5       0.3718   2.2412   5.0903   C.ar      1 RES1   0.0000
    15 C6      -0.4563   1.3532   5.7681   C.ar      1 RES1   0.0000
    16 C7      -0.0279   0.0565   6.0289   C.ar      1 RES1   0.0000
    17 C8       1.2481  -0.3165   5.6432   C.ar      1 RES1   0.0000
    18 C9       1.9150  -1.5947   5.8295   C.2       1 RES1   0.0000
    19 C10      1.5770  -2.8141   6.4282   C.2       1 RES1   0.0000
    20 C11      2.7045  -3.6092   6.3306   C.2       1 RES1   0.0000
    21 C12      4.5571   4.9495   1.9110   C.3       1 RES1   0.0000
    22 C13      5.7611   5.5226   2.6618   C.3       1 RES1   0.0000
    23 C14      3.5285   6.0601   1.6846   C.3       1 RES1   0.0000
    24 C15      4.9881   4.3655   0.5544   C.3       1 RES1   0.0000
    25 C16      2.9811  -4.9834   6.9003   C.3       1 RES1   0.0000
    26 C17      4.0370  -5.7201   6.0777   C.3       1 RES1   0.0000
    27 C18      3.4811  -4.8084   8.3429   C.3       1 RES1   0.0000
    28 C19      1.6966  -5.7951   6.9022   C.3       1 RES1   0.0000
    29 C20      6.5421   1.0093   6.3886   C.3       1 RES1   0.0000
    30 C21      4.1256   2.3803   6.9617   C.3       1 RES1   0.0000
    31 C22      4.4975  -0.2846   7.8545   C.3       1 RES1   0.0000
    32 C23      3.4844   0.1852   1.0284   C.3       1 RES1   0.0000
    33 C24      1.2178  -0.9569   2.3311   C.3       1 RES1   0.0000
    34 C25      3.5977  -2.4631   2.0709   C.3       1 RES1   0.0000
    35 C26      6.5527  -1.0179   3.5650   C.1       1 RES1   0.0000
    36 C27      7.8259  -1.6147   3.1685   C.3       1 RES1   0.0000
    37 H1       5.4216   2.4684   2.7212   H         1 RES1   0.0000
    38 H2       4.5066  -3.1679   5.4994   H         1 RES1   0.0000
    39 H3       2.0209   4.4289   3.3041   H         1 RES1   0.0000
    40 H4       0.0892   3.1052   4.8939   H         1 RES1   0.0000
    41 H5      -1.2984   1.6277   6.0530   H         1 RES1   0.0000
    42 H6      -0.5891  -0.5535   6.4526   H         1 RES1   0.0000
    43 H7       0.7650  -3.0451   6.8176   H         1 RES1   0.0000
    44 H8       6.3723   4.8124   2.8717   H         1 RES1   0.0000
    45 H9       6.2058   6.1735   2.1140   H         1 RES1   0.0000
    46 H10      5.4629   5.9388   3.4737   H         1 RES1   0.0000
    47 H11      3.2733   6.4322   2.5326   H         1 RES1   0.0000
    48 H12      3.9088   6.7496   1.1348   H         1 RES1   0.0000
    49 H13      2.7546   5.6940   1.2507   H         1 RES1   0.0000
    50 H14      5.6754   3.7107   0.6972   H         1 RES1   0.0000
    51 H15      4.2367   3.9522   0.1246   H         1 RES1   0.0000
    52 H16      5.3281   5.0699  -0.0035   H         1 RES1   0.0000
    53 H17      4.8537  -5.2143   6.0789   H         1 RES1   0.0000
    54 H18      4.1963  -6.5856   6.4612   H         1 RES1   0.0000
    55 H19      3.7267  -5.8233   5.1759   H         1 RES1   0.0000
    56 H20      4.2650  -4.2592   8.4057   H         1 RES1   0.0000
    57 H21      2.9088  -4.3184   8.9385   H         1 RES1   0.0000
    58 H22      3.5729  -5.7302   8.5925   H         1 RES1   0.0000
    59 H23      1.4547  -6.0396   6.0063   H         1 RES1   0.0000
    60 H24      0.9942  -5.2676   7.2899   H         1 RES1   0.0000
    61 H25      1.8267  -6.5884   7.4265   H         1 RES1   0.0000
    62 H26      6.7845   1.5859   5.6603   H         1 RES1   0.0000
    63 H27      6.8186   1.4070   7.2172   H         1 RES1   0.0000
    64 H28      6.9737   0.1592   6.2813   H         1 RES1   0.0000
    65 H29      4.5744   2.6285   7.7743   H         1 RES1   0.0000
    66 H30      4.2965   3.0420   6.2883   H         1 RES1   0.0000
    67 H31      3.1813   2.3243   7.1221   H         1 RES1   0.0000
    68 H32      3.5596  -0.3552   8.0441   H         1 RES1   0.0000
    69 H33      4.8556  -1.1586   7.6826   H         1 RES1   0.0000
    70 H34      4.9479   0.1019   8.6098   H         1 RES1   0.0000
    71 H35      3.1984  -0.2650   0.2301   H         1 RES1   0.0000
    72 H36      3.0700   1.0497   1.0743   H         1 RES1   0.0000
    73 H37      4.4390   0.2882   1.0120   H         1 RES1   0.0000
    74 H38      0.8078  -0.0934   2.4202   H         1 RES1   0.0000
    75 H39      0.9942  -1.3286   1.4756   H         1 RES1   0.0000
    76 H40      0.8957  -1.5365   3.0256   H         1 RES1   0.0000
    77 H41      3.2418  -2.7272   1.2196   H         1 RES1   0.0000
    78 H42      4.5567  -2.4706   2.0327   H         1 RES1   0.0000
    79 H43      3.2995  -3.0778   2.7454   H         1 RES1   0.0000
    80 H44      8.4021  -1.6579   3.9356   H         1 RES1   0.0000
    81 H45      7.6761  -2.5018   2.8301   H         1 RES1   0.0000
    82 H46      8.2394  -1.0798   2.4876   H         1 RES1   0.0000
    83 S1       8.2981   2.1882   2.5494   S.o2      2 RES2   0.0000
    84 F1      10.2854   3.8586   2.1977   F         2 RES2   0.0000
    85 F2       9.5676   2.9819   0.3858   F         2 RES2   0.0000
    86 F3       8.4375   4.5175   1.3163   F         2 RES2   0.0000
    87 O1       7.0892   1.9577   1.7834   O.3       2 RES2  -1.0000
    88 O2       8.0608   2.8530   3.8031   O.2       2 RES2   0.0000
    89 O3       9.2275   1.0988   2.5738   O.2       2 RES2   0.0000
    90 C28      9.1830   3.4452   1.5718   C.3       2 RES2   0.0000
    91 S2       7.3694  -3.2742   6.6668   S.o2      3 RES3   0.0000
    92 F4       9.1523  -5.0520   7.3798   F         3 RES3   0.0000
    93 F5       7.5527  -5.8493   6.1819   F         3 RES3   0.0000
    94 F6       9.0941  -4.6604   5.2690   F         3 RES3   0.0000
    95 O4       6.4672  -3.2347   5.5248   O.3       3 RES3  -1.0000
    96 O5       8.3795  -2.2466   6.6593   O.2       3 RES3   0.0000
    97 O6       6.7279  -3.5291   7.9253   O.2       3 RES3   0.0000
    98 C29      8.3360  -4.7842   6.3554   C.3       3 RES3   0.0000
@<TRIPOS>BOND
     1     1     2    1
     2     2    29    1
     3     3     1    1
     4     4     5    1
     5     5     1    1
     6     6     7    1
     7     7     1    1
     8     8     1    1
     9     9     1    1
    10    10     4    1
    11    11    10    2
    12    12     5    2
    13    13     8   ar
    14    14    13   ar
    15    15    14   ar
    16    16    15   ar
    17    17     8   ar
    18    18     7    2
    19    19    18    1
    20    20     6    1
    21    21    10    1
    22    22    21    1
    23    23    21    1
    24    24    21    1
    25    25    20    1
    26    26    25    1
    27    27    25    1
    28    28    25    1
    29    29    62    1
    30    30     2    1
    31    31     2    1
    32    32     3    1
    33    33     3    1
    34    34     3    1
    35    35     9    3
    36    36    35    1
    37    37     4    1
    38    38     6    1
    39    39    11    1
    40    40    14    1
    41    41    15    1
    42    42    16    1
    43    43    19    1
    44    44    22    1
    45    45    22    1
    46    46    22    1
    47    47    23    1
    48    48    23    1
    49    49    23    1
    50    50    24    1
    51    51    24    1
    52    52    24    1
    53    53    26    1
    54    54    26    1
    55    55    26    1
    56    56    27    1
    57    57    27    1
    58    58    27    1
    59    59    28    1
    60    60    28    1
    61    61    28    1
    62    63    29    1
    63    64    29    1
    64    65    30    1
    65    66    30    1
    66    67    30    1
    67    68    31    1
    68    69    31    1
    69    70    31    1
    70    71    32    1
    71    72    32    1
    72    73    32    1
    73    74    33    1
    74    75    33    1
    75    76    33    1
    76    77    34    1
    77    78    34    1
    78    79    34    1
    79    80    36    1
    80    81    36    1
    81    82    36    1
    82    11    12    1
    83    12    13    1
    84    16    17   ar
    85    17    18    1
    86    19    20    2
    87    83    87    1
    88    84    90    1
    89    85    90    1
    90    86    90    1
    91    88    83    2
    92    89    83    2
    93    90    83    1
    94    91    95    1
    95    92    98    1
    96    93    98    1
    97    94    98    1
    98    96    91    2
    99    97    91    2
   100    98    91    1
@<TRIPOS>SUBSTRUCTURE
     1 RES1        1 GROUP             0 ****  ****    0  
     2 RES2       83 GROUP             0 ****  ****    0  
     3 RES3       91 GROUP             0 ****  ****    0  
@<TRIPOS>CRYSIN
   10.6970   12.0040   17.7820   88.4640   77.2570   65.7220     2     1
