@<TRIPOS>MOLECULE
IFILEQ
   106   109     3     0     0
SMALL
USER_CHARGES
****
Generated from the CSD

@<TRIPOS>ATOM
     1 Fe1     12.1489   5.8640   4.6195   Fe        1 RES1   2.0000
     2 P1      10.8629   5.1110   6.3311   P.3       1 RES1   0.0000
     3 P2      13.3395   6.6043   2.8072   P.3       1 RES1   0.0000
     4 N1      11.9406   3.2066   2.9870   N.pl3     1 RES1   0.0000
     5 N2      12.4231   4.0013   3.9711   N.2       1 RES1   0.0000
     6 N3      11.9672   8.7618   5.6792   N.pl3     1 RES1   0.0000
     7 N4      12.5193   7.5350   5.5788   N.2       1 RES1   0.0000
     8 N5      13.7997   5.4104   5.5010   N.ar      1 RES1   0.0000
     9 N6      10.6004   6.4251   3.7236   N.2       1 RES1   0.0000
    10 N7      10.1726   7.6211   3.7233   N.2       1 RES1   0.0000
    11 C1      12.7441   2.1300   2.7722   C.2       1 RES1   0.0000
    12 C2      13.7796   2.2224   3.6816   C.2       1 RES1   0.0000
    13 C3      13.5465   3.3959   4.4061   C.2       1 RES1   0.0000
    14 C4      14.3393   4.1774   5.3535   C.ar      1 RES1   0.0000
    15 C5      15.5106   3.8189   5.9916   C.ar      1 RES1   0.0000
    16 C6      16.1718   4.7801   6.7747   C.ar      1 RES1   0.0000
    17 C7      15.6406   6.0567   6.8768   C.ar      1 RES1   0.0000
    18 C8      14.4452   6.3522   6.2429   C.ar      1 RES1   0.0000
    19 C9      13.6962   7.6064   6.2348   C.2       1 RES1   0.0000
    20 C10     13.8976   8.9052   6.7179   C.2       1 RES1   0.0000
    21 C11     12.7781   9.6018   6.3720   C.2       1 RES1   0.0000
    22 C12     12.4720   1.1354   1.6583   C.3       1 RES1   0.0000
    23 C13     11.2604   0.2564   2.0089   C.3       1 RES1   0.0000
    24 C14     13.6968   0.2356   1.4871   C.3       1 RES1   0.0000
    25 C15     12.2115   1.9058   0.3630   C.3       1 RES1   0.0000
    26 C16     12.3729  11.0351   6.6679   C.3       1 RES1   0.0000
    27 C17     11.4183  11.5706   5.6101   C.3       1 RES1   0.0000
    28 C18     13.6392  11.8923   6.7256   C.3       1 RES1   0.0000
    29 C19     11.6934  11.0597   8.0349   C.3       1 RES1   0.0000
    30 C20      9.5593   3.9437   5.8337   C.3       1 RES1   0.0000
    31 C21      9.9552   6.3732   7.2408   C.3       1 RES1   0.0000
    32 C22     11.7582   4.2075   7.6225   C.3       1 RES1   0.0000
    33 C23     12.5222   6.2445   1.2312   C.3       1 RES1   0.0000
    34 C24     13.5819   8.3933   2.7360   C.3       1 RES1   0.0000
    35 C25     15.0027   5.9250   2.5571   C.3       1 RES1   0.0000
    36 C26      9.0965   8.0115   2.8768   C.ar      1 RES1   0.0000
    37 C27      8.4484   7.1746   1.9606   C.ar      1 RES1   0.0000
    38 C28      7.4479   7.6983   1.1537   C.ar      1 RES1   0.0000
    39 C29      7.0766   9.0264   1.2653   C.ar      1 RES1   0.0000
    40 C30      7.7215   9.8481   2.1818   C.ar      1 RES1   0.0000
    41 C31      8.7299   9.3491   2.9796   C.ar      1 RES1   0.0000
    42 H1      11.1571   3.3748   2.5150   H         1 RES1   0.0000
    43 H2      11.1387   8.9949   5.3268   H         1 RES1   0.0000
    44 H3      10.0471   5.9065   3.2957   H         1 RES1   0.0000
    45 H4      14.4818   1.6229   3.7955   H         1 RES1   0.0000
    46 H5      15.8581   2.9616   5.9043   H         1 RES1   0.0000
    47 H6      16.9564   4.5580   7.2219   H         1 RES1   0.0000
    48 H7      16.0838   6.7131   7.3632   H         1 RES1   0.0000
    49 H8      14.6363   9.2183   7.1884   H         1 RES1   0.0000
    50 H9      10.4853   0.8089   2.1283   H         1 RES1   0.0000
    51 H10     11.1034  -0.3645   1.2928   H         1 RES1   0.0000
    52 H11     11.4355  -0.2283   2.8188   H         1 RES1   0.0000
    53 H12     13.8296  -0.2682   2.2943   H         1 RES1   0.0000
    54 H13     13.5622  -0.3689   0.7524   H         1 RES1   0.0000
    55 H14     14.4702   0.7777   1.3176   H         1 RES1   0.0000
    56 H15     12.9604   2.4775   0.1766   H         1 RES1   0.0000
    57 H16     12.0982   1.2831  -0.3585   H         1 RES1   0.0000
    58 H17     11.4177   2.4384   0.4539   H         1 RES1   0.0000
    59 H18     11.1633  12.4708   5.8302   H         1 RES1   0.0000
    60 H19     11.8569  11.5623   4.7563   H         1 RES1   0.0000
    61 H20     10.6351  11.0175   5.5723   H         1 RES1   0.0000
    62 H21     13.9591  12.0359   5.8319   H         1 RES1   0.0000
    63 H22     13.4482  12.7396   7.1371   H         1 RES1   0.0000
    64 H23     14.3117  11.4346   7.2361   H         1 RES1   0.0000
    65 H24     10.9458  10.4573   8.0344   H         1 RES1   0.0000
    66 H25     12.3191  10.7904   8.7108   H         1 RES1   0.0000
    67 H26     11.3860  11.9498   8.2198   H         1 RES1   0.0000
    68 H27      8.9149   4.3981   5.2862   H         1 RES1   0.0000
    69 H28      9.9492   3.2216   5.3356   H         1 RES1   0.0000
    70 H29      9.1257   3.5949   6.6161   H         1 RES1   0.0000
    71 H30     10.5718   7.0094   7.6087   H         1 RES1   0.0000
    72 H31      9.3523   6.8226   6.6426   H         1 RES1   0.0000
    73 H32      9.4557   5.9642   7.9514   H         1 RES1   0.0000
    74 H33     12.4024   4.7892   8.0326   H         1 RES1   0.0000
    75 H34     11.1391   3.8971   8.2869   H         1 RES1   0.0000
    76 H35     12.2093   3.4562   7.2308   H         1 RES1   0.0000
    77 H36     13.0909   6.5124   0.5051   H         1 RES1   0.0000
    78 H37     12.3472   5.3025   1.1692   H         1 RES1   0.0000
    79 H38     11.6946   6.7276   1.1833   H         1 RES1   0.0000
    80 H39     14.0194   8.6276   1.9145   H         1 RES1   0.0000
    81 H40     12.7297   8.8328   2.7817   H         1 RES1   0.0000
    82 H41     14.1257   8.6723   3.4776   H         1 RES1   0.0000
    83 H42     15.3839   6.2977   1.7591   H         1 RES1   0.0000
    84 H43     15.5567   6.1454   3.3081   H         1 RES1   0.0000
    85 H44     14.9493   4.9705   2.4691   H         1 RES1   0.0000
    86 H45      8.6979   6.2814   1.8863   H         1 RES1   0.0000
    87 H46      7.0143   7.1483   0.5405   H         1 RES1   0.0000
    88 H47      6.3983   9.3688   0.7294   H         1 RES1   0.0000
    89 H48      7.4764  10.7420   2.2519   H         1 RES1   0.0000
    90 H49      9.1647   9.9040   3.5854   H         1 RES1   0.0000
    91 S1       8.3100   3.3291   1.4248   S.o2      2 RES2   0.0000
    92 F1       6.2688   1.9050   2.2030   F         2 RES2   0.0000
    93 F2       8.0358   1.6539   3.4135   F         2 RES2   0.0000
    94 F3       6.8543   3.4393   3.5873   F         2 RES2   0.0000
    95 O1       9.4072   3.9435   2.1770   O.3       2 RES2  -1.0000
    96 O2       7.4146   4.2792   0.8237   O.2       2 RES2   0.0000
    97 O3       8.7112   2.2261   0.6001   O.2       2 RES2   0.0000
    98 C32      7.3192   2.5403   2.7326   C.3       2 RES2   0.0000
    99 S2       7.8805   9.7319   7.2300   S.o2      3 RES3   0.0000
   100 F4       6.3535  11.8659   7.3793   F         3 RES3   0.0000
   101 F5       8.3748  12.2862   6.8311   F         3 RES3   0.0000
   102 F6       7.0430  11.4120   5.4118   F         3 RES3   0.0000
   103 O4       8.9442   9.3871   6.3187   O.3       3 RES3  -1.0000
   104 O5       6.6738   8.9730   7.0803   O.2       3 RES3   0.0000
   105 O6       8.2881   9.9378   8.6003   O.2       3 RES3   0.0000
   106 C33      7.3950  11.4084   6.6799   C.3       3 RES3   0.0000
@<TRIPOS>BOND
     1     1     2    1
     2     2    30    1
     3     3     1    1
     4     4     5    1
     5     5     1    1
     6     6     7    1
     7     7     1    1
     8     8     1    1
     9     9     1    1
    10    10     9    2
    11    11     4    1
    12    12    11    2
    13    13     5    2
    14    14     8   ar
    15    15    14   ar
    16    16    15   ar
    17    17    16   ar
    18    18     8   ar
    19    19     7    2
    20    20    19    1
    21    21     6    1
    22    22    11    1
    23    23    22    1
    24    24    22    1
    25    25    22    1
    26    26    21    1
    27    27    26    1
    28    28    26    1
    29    29    26    1
    30    30    68    1
    31    31     2    1
    32    32     2    1
    33    33     3    1
    34    34     3    1
    35    35     3    1
    36    36    10    1
    37    37    36   ar
    38    38    37   ar
    39    39    38   ar
    40    40    39   ar
    41    41    36   ar
    42    42     4    1
    43    43     6    1
    44    44     9    1
    45    45    12    1
    46    46    15    1
    47    47    16    1
    48    48    17    1
    49    49    20    1
    50    50    23    1
    51    51    23    1
    52    52    23    1
    53    53    24    1
    54    54    24    1
    55    55    24    1
    56    56    25    1
    57    57    25    1
    58    58    25    1
    59    59    27    1
    60    60    27    1
    61    61    27    1
    62    62    28    1
    63    63    28    1
    64    64    28    1
    65    65    29    1
    66    66    29    1
    67    67    29    1
    68    69    30    1
    69    70    30    1
    70    71    31    1
    71    72    31    1
    72    73    31    1
    73    74    32    1
    74    75    32    1
    75    76    32    1
    76    77    33    1
    77    78    33    1
    78    79    33    1
    79    80    34    1
    80    81    34    1
    81    82    34    1
    82    83    35    1
    83    84    35    1
    84    85    35    1
    85    86    37    1
    86    87    38    1
    87    88    39    1
    88    89    40    1
    89    90    41    1
    90    12    13    1
    91    13    14    1
    92    17    18   ar
    93    18    19    1
    94    20    21    2
    95    40    41   ar
    96    91    95    1
    97    92    98    1
    98    93    98    1
    99    94    98    1
   100    96    91    2
   101    97    91    2
   102    98    91    1
   103    99   103    1
   104   100   106    1
   105   101   106    1
   106   102   106    1
   107   104    99    2
   108   105    99    2
   109   106    99    1
@<TRIPOS>SUBSTRUCTURE
     1 RES1        1 GROUP             0 ****  ****    0  
     2 RES2       91 GROUP             0 ****  ****    0  
     3 RES3       99 GROUP             0 ****  ****    0  
@<TRIPOS>CRYSIN
   10.5020   11.8230   18.2860   81.4240   76.6240   81.5930     2     1
