@<TRIPOS>MOLECULE
IFOQEA
    84    94     2     0     0
SMALL
USER_CHARGES
****
Generated from the CSD

@<TRIPOS>ATOM
     1 Fe1      2.5184   5.8820   8.0919   Fe        1 RES1   1.0000
     2 N1       5.0088   4.4315   8.1427   N.pl3     1 RES1   0.0000
     3 N2       4.3338   5.4414   7.5269   N.2       1 RES1   0.0000
     4 N3       3.8963   4.7045  10.3250   N.pl3     1 RES1   0.0000
     5 N4       3.1035   5.7412   9.9425   N.2       1 RES1   0.0000
     6 N5       2.9894   3.1004   8.6633   N.pl3     1 RES1   0.0000
     7 N6       2.1110   3.9761   8.1134   N.2       1 RES1   0.0000
     8 B1       4.2973   3.6545   9.2670   B         1 RES1   0.0000
     9 H1       4.9297   2.8598   9.6892   H         1 RES1   0.0000
    10 C1       5.1409   5.9326   6.5788   C.2       1 RES1   0.0000
    11 H2       4.9282   6.6314   6.0042   H         1 RES1   0.0000
    12 C2       6.3413   5.2410   6.5843   C.2       1 RES1   0.0000
    13 H3       7.0752   5.3809   6.0301   H         1 RES1   0.0000
    14 C3       6.2173   4.3055   7.5792   C.2       1 RES1   0.0000
    15 H4       6.8655   3.6857   7.8232   H         1 RES1   0.0000
    16 C4       4.2108   4.8528  11.6197   C.2       1 RES1   0.0000
    17 H5       4.7479   4.2797  12.1184   H         1 RES1   0.0000
    18 C5       3.6061   5.9938  12.0863   C.2       1 RES1   0.0000
    19 H6       3.6488   6.3396  12.9486   H         1 RES1   0.0000
    20 C6       2.9230   6.5205  11.0086   C.2       1 RES1   0.0000
    21 H7       2.4146   7.2996  11.0243   H         1 RES1   0.0000
    22 C7       1.0820   3.2635   7.6462   C.2       1 RES1   0.0000
    23 H8       0.3369   3.6186   7.2179   H         1 RES1   0.0000
    24 C8       1.2907   1.9142   7.8939   C.2       1 RES1   0.0000
    25 H9       0.7325   1.2046   7.6727   H         1 RES1   0.0000
    26 C9       2.5025   1.8573   8.5359   C.2       1 RES1   0.0000
    27 H10      2.9187   1.0811   8.8347   H         1 RES1   0.0000
    28 N1B      0.0281   7.3325   8.0410   N.pl3     1 RES1   0.0000
    29 N2B      0.7031   6.3226   8.6568   N.2       1 RES1   0.0000
    30 N3B      1.1406   7.0595   5.8587   N.pl3     1 RES1   0.0000
    31 N4B      1.9334   6.0228   6.2412   N.2       1 RES1   0.0000
    32 N5B      2.0474   8.6636   7.5204   N.pl3     1 RES1   0.0000
    33 N6B      2.9258   7.7879   8.0703   N.2       1 RES1   0.0000
    34 B1B      0.7396   8.1095   6.9168   B         1 RES1   0.0000
    35 H1B      0.1072   8.9042   6.4945   H         1 RES1   0.0000
    36 C1B     -0.1040   5.8314   9.6049   C.2       1 RES1   0.0000
    37 H2B      0.1087   5.1326  10.1796   H         1 RES1   0.0000
    38 C2B     -1.3044   6.5230   9.5994   C.2       1 RES1   0.0000
    39 H3B     -2.0384   6.3831  10.1537   H         1 RES1   0.0000
    40 C3B     -1.1804   7.4585   8.6046   C.2       1 RES1   0.0000
    41 H4B     -1.8286   8.0783   8.3605   H         1 RES1   0.0000
    42 C4B      0.8261   6.9112   4.5640   C.2       1 RES1   0.0000
    43 H5B      0.2890   7.4843   4.0653   H         1 RES1   0.0000
    44 C5B      1.4308   5.7702   4.0974   C.2       1 RES1   0.0000
    45 H6B      1.3881   5.4244   3.2351   H         1 RES1   0.0000
    46 C6B      2.1139   5.2435   5.1751   C.2       1 RES1   0.0000
    47 H7B      2.6222   4.4644   5.1594   H         1 RES1   0.0000
    48 C7B      3.9549   8.5005   8.5376   C.2       1 RES1   0.0000
    49 H8B      4.7000   8.1454   8.9658   H         1 RES1   0.0000
    50 C8B      3.7462   9.8498   8.2898   C.2       1 RES1   0.0000
    51 H9B      4.3043  10.5594   8.5110   H         1 RES1   0.0000
    52 C9B      2.5343   9.9067   7.6478   C.2       1 RES1   0.0000
    53 H10B     2.1181  10.6829   7.3490   H         1 RES1   0.0000
    54 O1       7.2561   0.6360   7.0470   O.3       2 RES2   0.0000
    55 H11      7.0889   0.0000   8.0919   H         2 RES2   0.0000
    56 O2       5.0561   0.8492   7.0097   O.2       2 RES2   0.0000
    57 O3       3.9513   2.3687   5.3188   O.3       2 RES2   0.0000
    58 H12      4.1232   1.7293   6.0171   H         2 RES2   0.0000
    59 C10      6.1768   1.0781   6.5369   C.2       2 RES2   0.0000
    60 C11      6.3129   1.9329   5.3254   C.ar      2 RES2   0.0000
    61 C12      5.1783   2.5380   4.7805   C.ar      2 RES2   0.0000
    62 C13      5.3042   3.3812   3.6742   C.ar      2 RES2   0.0000
    63 H13      4.5490   3.7715   3.2966   H         2 RES2   0.0000
    64 C14      6.5428   3.6320   3.1481   C.ar      2 RES2   0.0000
    65 H14      6.6227   4.1950   2.4114   H         2 RES2   0.0000
    66 C15      7.6775   3.0603   3.6949   C.ar      2 RES2   0.0000
    67 H15      8.5141   3.2469   3.3371   H         2 RES2   0.0000
    68 C16      7.5576   2.2107   4.7766   C.ar      2 RES2   0.0000
    69 H16      8.3188   1.8199   5.1416   H         2 RES2   0.0000
    70 O1B      6.9218  -0.6360   9.1367   O.3       2 RES2  -1.0000
    71 O2B      9.1218  -0.8492   9.1741   O.2       2 RES2   0.0000
    72 O3B     10.2266  -2.3687  10.8649   O.3       2 RES2   0.0000
    73 H12B    10.0546  -1.7293  10.1666   H         2 RES2   0.0000
    74 C10B     8.0010  -1.0781   9.6468   C.2       2 RES2   0.0000
    75 C11B     7.8650  -1.9329  10.8583   C.ar      2 RES2   0.0000
    76 C12B     8.9995  -2.5380  11.4032   C.ar      2 RES2   0.0000
    77 C13B     8.8736  -3.3812  12.5095   C.ar      2 RES2   0.0000
    78 H13B     9.6289  -3.7715  12.8871   H         2 RES2   0.0000
    79 C14B     7.6351  -3.6320  13.0357   C.ar      2 RES2   0.0000
    80 H14B     7.5552  -4.1950  13.7723   H         2 RES2   0.0000
    81 C15B     6.5004  -3.0603  12.4888   C.ar      2 RES2   0.0000
    82 H15B     5.6638  -3.2469  12.8466   H         2 RES2   0.0000
    83 C16B     6.6202  -2.2107  11.4071   C.ar      2 RES2   0.0000
    84 H16B     5.8590  -1.8199  11.0421   H         2 RES2   0.0000
@<TRIPOS>BOND
     1     1     3    1
     2     2     3    1
     3     3    10    2
     4     4     5    1
     5     5     1    1
     6     6     7    1
     7     7     1    1
     8     8     2    1
     9     9     8    1
    10    10    11    1
    11    12    10    1
    12    13    12    1
    13    14     2    1
    14    15    14    1
    15    16     4    1
    16    17    16    1
    17    18    16    2
    18    19    18    1
    19    20     5    2
    20    21    20    1
    21    22     7    2
    22    23    22    1
    23    24    22    1
    24    25    24    1
    25    26     6    1
    26    27    26    1
    27    28    29    1
    28    29     1    1
    29    30    31    1
    30    31     1    1
    31    32    33    1
    32    33     1    1
    33    34    28    1
    34    35    34    1
    35    36    29    2
    36    37    36    1
    37    38    36    1
    38    39    38    1
    39    40    28    1
    40    41    40    1
    41    42    30    1
    42    43    42    1
    43    44    42    2
    44    45    44    1
    45    46    31    2
    46    47    46    1
    47    48    33    2
    48    49    48    1
    49    50    48    1
    50    51    50    1
    51    52    32    1
    52    53    52    1
    53     4     8    1
    54     6     8    1
    55    12    14    2
    56    18    20    1
    57    24    26    2
    58    30    34    1
    59    32    34    1
    60    38    40    2
    61    44    46    1
    62    50    52    2
    63    54    55    1
    64    55    70    1
    65    56    59    2
    66    57    58    1
    67    59    54    1
    68    60    59    1
    69    61    57    1
    70    62    61   ar
    71    63    62    1
    72    64    62   ar
    73    65    64    1
    74    66    64   ar
    75    67    66    1
    76    68    60   ar
    77    69    68    1
    78    70    74    1
    79    71    74    2
    80    72    73    1
    81    74    75    1
    82    75    76   ar
    83    76    72    1
    84    77    76   ar
    85    78    77    1
    86    79    77   ar
    87    80    79    1
    88    81    79   ar
    89    82    81    1
    90    83    75   ar
    91    84    83    1
    92    60    61   ar
    93    66    68   ar
    94    81    83   ar
@<TRIPOS>SUBSTRUCTURE
     1 RES1        1 GROUP             0 ****  ****    0  
     2 RES2       54 GROUP             0 ****  ****    0  
@<TRIPOS>CRYSIN
    9.1410   11.7640   16.6960   90.0000  104.2300   90.0000   231     1
