@<TRIPOS>MOLECULE
IGIHEL
    78    80     3     0     0
SMALL
USER_CHARGES
****
Generated from the CSD

@<TRIPOS>ATOM
     1 Fe1      0.0000   0.0000   0.0000   Fe        1 RES1   2.0000
     2 O1       2.0190  -0.6692   0.0249   O.3       1 RES1   0.0000
     3 H1       2.1750  -0.7330  -0.4530   H         1 RES1   0.0000
     4 H2       2.6090  -0.1727   0.6883   H         1 RES1   0.0000
     5 N1       0.6516   1.9339   0.7331   N.2       1 RES1   0.0000
     6 N2      -0.9648   2.8455   2.1333   N.pl3     1 RES1   0.0000
     7 H3      -1.4552   2.1436   2.0561   H         1 RES1   0.0000
     8 H4      -1.2282   3.5027   2.6224   H         1 RES1   0.0000
     9 O2       1.8843   2.3948   0.1805   O.3       1 RES1   0.0000
    10 C1       0.2167   2.9166   1.4886   C.2       1 RES1   0.0000
    11 C2       1.1163   4.0180   1.4537   C.2       1 RES1   0.0000
    12 H5       1.0295   4.8309   1.8955   H         1 RES1   0.0000
    13 C3       2.1060   3.6359   0.6559   C.2       1 RES1   0.0000
    14 C4       3.3872   4.2490   0.2191   C.3       1 RES1   0.0000
    15 H6       3.8420   3.6492  -0.3771   H         1 RES1   0.0000
    16 H7       3.9383   4.4184   0.9857   H         1 RES1   0.0000
    17 H8       3.2076   5.0755  -0.2352   H         1 RES1   0.0000
    18 N3      -0.0674  -0.8503   2.0250   N.2       1 RES1   0.0000
    19 N4       0.8011  -3.0137   1.8719   N.pl3     1 RES1   0.0000
    20 H9       0.8535  -2.9596   1.0156   H         1 RES1   0.0000
    21 H10      1.0509  -3.7317   2.2739   H         1 RES1   0.0000
    22 O3      -0.5185  -0.0200   3.0854   O.3       1 RES1   0.0000
    23 C5       0.3235  -1.9627   2.5913   C.2       1 RES1   0.0000
    24 C6       0.1371  -1.9142   3.9865   C.2       1 RES1   0.0000
    25 H11      0.3349  -2.5808   4.6050   H         1 RES1   0.0000
    26 C7      -0.3762  -0.7271   4.2317   C.2       1 RES1   0.0000
    27 C8      -0.8004  -0.0006   5.4738   C.3       1 RES1   0.0000
    28 H12     -1.1340   0.8686   5.2386   H         1 RES1   0.0000
    29 H13     -0.0468   0.0953   6.0625   H         1 RES1   0.0000
    30 H14     -1.4909  -0.4995   5.9169   H         1 RES1   0.0000
    31 O1A     -2.0190   0.6692  -0.0249   O.3       1 RES1   0.0000
    32 H1A     -2.1750   0.7330   0.4530   H         1 RES1   0.0000
    33 H2A     -2.6090   0.1727  -0.6883   H         1 RES1   0.0000
    34 N1A     -0.6516  -1.9339  -0.7331   N.2       1 RES1   0.0000
    35 O2A     -1.8843  -2.3948  -0.1805   O.3       1 RES1   0.0000
    36 C3A     -2.1060  -3.6359  -0.6559   C.2       1 RES1   0.0000
    37 C2A     -1.1163  -4.0180  -1.4537   C.2       1 RES1   0.0000
    38 C1A     -0.2167  -2.9166  -1.4886   C.2       1 RES1   0.0000
    39 N2A      0.9648  -2.8455  -2.1333   N.pl3     1 RES1   0.0000
    40 H3A      1.4552  -2.1436  -2.0561   H         1 RES1   0.0000
    41 H4A      1.2282  -3.5027  -2.6224   H         1 RES1   0.0000
    42 H5A     -1.0295  -4.8309  -1.8955   H         1 RES1   0.0000
    43 C4A     -3.3872  -4.2490  -0.2191   C.3       1 RES1   0.0000
    44 H6A     -3.8420  -3.6492   0.3771   H         1 RES1   0.0000
    45 H7A     -3.9383  -4.4184  -0.9857   H         1 RES1   0.0000
    46 H8A     -3.2076  -5.0755   0.2352   H         1 RES1   0.0000
    47 N3A      0.0674   0.8503  -2.0250   N.2       1 RES1   0.0000
    48 O3A      0.5185   0.0200  -3.0854   O.3       1 RES1   0.0000
    49 C7A      0.3762   0.7271  -4.2317   C.2       1 RES1   0.0000
    50 C6A     -0.1371   1.9142  -3.9865   C.2       1 RES1   0.0000
    51 C5A     -0.3235   1.9627  -2.5913   C.2       1 RES1   0.0000
    52 N4A     -0.8011   3.0137  -1.8719   N.pl3     1 RES1   0.0000
    53 H9A     -0.8535   2.9596  -1.0156   H         1 RES1   0.0000
    54 H10A    -1.0509   3.7317  -2.2739   H         1 RES1   0.0000
    55 H11A    -0.3349   2.5808  -4.6050   H         1 RES1   0.0000
    56 C8A      0.8004   0.0006  -5.4738   C.3       1 RES1   0.0000
    57 H12A     1.1340  -0.8686  -5.2386   H         1 RES1   0.0000
    58 H13A     0.0468  -0.0953  -6.0625   H         1 RES1   0.0000
    59 H14A     1.4909   0.4995  -5.9169   H         1 RES1   0.0000
    60 N5       3.2914   1.6740   2.7269   N.pl3     2 RES2   0.0000
    61 H15      3.2701   2.4322   2.3212   H         2 RES2   0.0000
    62 N6       2.3372   2.6074   4.7308   N.pl3     2 RES2   0.0000
    63 H16      2.0490   2.5166   5.5360   H         2 RES2   0.0000
    64 H17      2.3102   3.3777   4.3487   H         2 RES2   0.0000
    65 O4       3.7611   0.4568   2.1868   O.3       2 RES2   0.0000
    66 C9       2.8789   1.4385   4.0014   C.2       2 RES2   0.0000
    67 C10      3.0657   0.1627   4.2615   C.2       2 RES2   0.0000
    68 H18      2.8610  -0.2776   5.0543   H         2 RES2   0.0000
    69 C11      3.6365  -0.4039   3.1078   C.2       2 RES2   0.0000
    70 C12      4.0191  -1.6969   2.8912   C.3       2 RES2   0.0000
    71 H19      4.3757  -1.7793   2.0038   H         2 RES2   0.0000
    72 H20      3.2586  -2.2764   2.9858   H         2 RES2   0.0000
    73 H21      4.6916  -1.9433   3.5297   H         2 RES2   0.0000
    74 Cl1     -2.0343   5.7235   4.2557   Cl        3 RES3   0.0000
    75 O5      -1.6543   4.4877   4.7855   O.3       3 RES3  -1.0000
    76 O6      -1.8073   6.7420   5.0743   O.2       3 RES3   0.0000
    77 O7      -1.8186   5.8359   2.9933   O.2       3 RES3   0.0000
    78 O8      -3.4938   5.7426   4.1408   O.2       3 RES3   0.0000
@<TRIPOS>BOND
     1     1     2    1
     2     2     3    1
     3     4     2    1
     4     5     1    1
     5     6     7    1
     6     8     6    1
     7     9     5    1
     8    10     5    2
     9    11    10    1
    10    12    11    1
    11    13     9    1
    12    14    13    1
    13    15    14    1
    14    16    14    1
    15    17    14    1
    16    18     1    1
    17    19    20    1
    18    21    19    1
    19    22    18    1
    20    23    18    2
    21    24    23    1
    22    25    24    1
    23    26    22    1
    24    27    26    1
    25    28    27    1
    26    29    27    1
    27    30    27    1
    28    31     1    1
    29    32    31    1
    30    33    31    1
    31    34     1    1
    32    35    34    1
    33    36    35    1
    34    37    36    2
    35    38    34    2
    36    39    38    1
    37    40    39    1
    38    41    39    1
    39    42    37    1
    40    43    36    1
    41    44    43    1
    42    45    43    1
    43    46    43    1
    44    47     1    1
    45    48    47    1
    46    49    48    1
    47    50    49    2
    48    51    47    2
    49    52    51    1
    50    53    52    1
    51    54    52    1
    52    55    50    1
    53    56    49    1
    54    57    56    1
    55    58    56    1
    56    59    56    1
    57     6    10    1
    58    11    13    2
    59    19    23    1
    60    24    26    2
    61    37    38    1
    62    50    51    1
    63    60    61    1
    64    62    63    1
    65    64    62    1
    66    65    60    1
    67    66    60    2
    68    67    66    1
    69    68    67    1
    70    69    65    1
    71    70    69    1
    72    71    70    1
    73    72    70    1
    74    73    70    1
    75    62    66    1
    76    67    69    2
    77    74    75    1
    78    76    74    2
    79    77    74    2
    80    78    74    2
@<TRIPOS>SUBSTRUCTURE
     1 RES1        1 GROUP             0 ****  ****    0  
     2 RES2       60 GROUP             0 ****  ****    0  
     3 RES3       74 GROUP             0 ****  ****    0  
@<TRIPOS>CRYSIN
    7.4137   10.9395   13.5284   67.1500   88.5650   78.5560     2     1
