@<TRIPOS>MOLECULE
IGISUP
   104   112     1     0     0
SMALL
NO_CHARGES
****
Generated from the CSD

@<TRIPOS>ATOM
     1 Fe1      1.5400   9.9949  13.2149   Fe        1 RES1   0.0000
     2 H1       0.2258   9.6097  13.6180   H         1 RES1   0.0000
     3 P1       1.8352   8.3351  14.6445   P.3       1 RES1   0.0000
     4 P2       0.0947  11.1073  11.9739   P.3       1 RES1   0.0000
     5 P3       3.4979  10.3462  12.2116   P.3       1 RES1   0.0000
     6 P4       1.5621  11.5430  14.8759   P.3       1 RES1   0.0000
     7 Si1      1.0331   8.2947  11.7983   Si        1 RES1   0.0000
     8 N1       0.4712   6.8992  12.7420   N.3       1 RES1   0.0000
     9 N2      -0.6004   8.5565  11.1409   N.3       1 RES1   0.0000
    10 C1       0.7538   8.3278  16.1480   C.ar      1 RES1   0.0000
    11 C2       1.2525   8.3302  17.4479   C.ar      1 RES1   0.0000
    12 H2       2.1903   8.3732  17.5931   H         1 RES1   0.0000
    13 C3       0.3868   8.2699  18.5357   C.ar      1 RES1   0.0000
    14 H3       0.7389   8.2821  19.4180   H         1 RES1   0.0000
    15 C4      -0.9744   8.1927  18.3465   C.ar      1 RES1   0.0000
    16 H4      -1.5610   8.1351  19.0920   H         1 RES1   0.0000
    17 C5      -1.4791   8.1997  17.0601   C.ar      1 RES1   0.0000
    18 H5      -2.4178   8.1575  16.9199   H         1 RES1   0.0000
    19 C6      -0.6229   8.2683  15.9746   C.ar      1 RES1   0.0000
    20 H6      -0.9833   8.2746  15.0958   H         1 RES1   0.0000
    21 C7       3.4340   7.7908  15.4027   C.ar      1 RES1   0.0000
    22 C8       4.5424   8.6196  15.4165   C.ar      1 RES1   0.0000
    23 H7       4.4678   9.5057  15.0824   H         1 RES1   0.0000
    24 C9       5.7606   8.1760  15.9106   C.ar      1 RES1   0.0000
    25 H8       6.5121   8.7572  15.9073   H         1 RES1   0.0000
    26 C10      5.8848   6.9024  16.4038   C.ar      1 RES1   0.0000
    27 H9       6.7250   6.5961  16.7245   H         1 RES1   0.0000
    28 C11      4.7867   6.0660  16.4335   C.ar      1 RES1   0.0000
    29 H10      4.8663   5.1876  16.7868   H         1 RES1   0.0000
    30 C12      3.5695   6.5107  15.9471   C.ar      1 RES1   0.0000
    31 H11      2.8137   5.9364  15.9839   H         1 RES1   0.0000
    32 C13      1.2685   6.6674  13.9231   C.3       1 RES1   0.0000
    33 H12      2.0581   6.1172  13.6914   H         1 RES1   0.0000
    34 H13      0.7347   6.1755  14.5962   H         1 RES1   0.0000
    35 C14     -0.9283   6.8685  12.7627   C.ar      1 RES1   0.0000
    36 C15     -1.7328   6.0399  13.5362   C.ar      1 RES1   0.0000
    37 H14     -1.3372   5.4202  14.1377   H         1 RES1   0.0000
    38 C16     -3.1134   6.1183  13.4292   C.ar      1 RES1   0.0000
    39 H15     -3.6587   5.5541  13.9647   H         1 RES1   0.0000
    40 C17     -3.7019   7.0027  12.5577   C.ar      1 RES1   0.0000
    41 H16     -4.6481   7.0423  12.4906   H         1 RES1   0.0000
    42 C18     -2.9102   7.8453  11.7682   C.ar      1 RES1   0.0000
    43 H17     -3.3193   8.4516  11.1620   H         1 RES1   0.0000
    44 C19     -1.5298   7.7938  11.8720   C.ar      1 RES1   0.0000
    45 C20      1.9603   7.4603  10.3624   C.ar      1 RES1   0.0000
    46 C21      2.8222   6.3836  10.5467   C.ar      1 RES1   0.0000
    47 H18      3.0328   6.1095  11.4317   H         1 RES1   0.0000
    48 C22      3.3868   5.6947   9.4758   C.ar      1 RES1   0.0000
    49 H19      3.9906   4.9780   9.6325   H         1 RES1   0.0000
    50 C23      3.0637   6.0601   8.1886   C.ar      1 RES1   0.0000
    51 H20      3.4422   5.5897   7.4552   H         1 RES1   0.0000
    52 C24      2.2061   7.0904   7.9606   C.ar      1 RES1   0.0000
    53 H21      1.9755   7.3291   7.0706   H         1 RES1   0.0000
    54 C25      1.6655   7.7963   9.0356   C.ar      1 RES1   0.0000
    55 H22      1.0812   8.5252   8.8627   H         1 RES1   0.0000
    56 C26     -0.8498   9.9416  10.7948   C.3       1 RES1   0.0000
    57 H23     -1.8205  10.1277  10.8526   H         1 RES1   0.0000
    58 H24     -0.5600  10.1074   9.8628   H         1 RES1   0.0000
    59 C27      0.4735  12.4952  10.7977   C.ar      1 RES1   0.0000
    60 C28     -0.3418  12.7708   9.7052   C.ar      1 RES1   0.0000
    61 H25     -1.1449  12.2785   9.5830   H         1 RES1   0.0000
    62 C29      0.0034  13.7557   8.7924   C.ar      1 RES1   0.0000
    63 H26     -0.5611  13.9259   8.0475   H         1 RES1   0.0000
    64 C30      1.1504  14.4849   8.9544   C.ar      1 RES1   0.0000
    65 H27      1.3934  15.1416   8.3125   H         1 RES1   0.0000
    66 C31      1.9493  14.2610  10.0544   C.ar      1 RES1   0.0000
    67 H28      2.7300  14.7857  10.1902   H         1 RES1   0.0000
    68 C32      1.6123  13.2650  10.9658   C.ar      1 RES1   0.0000
    69 H29      2.1733  13.1101  11.7166   H         1 RES1   0.0000
    70 C33     -1.3552  11.8587  12.8316   C.ar      1 RES1   0.0000
    71 C34     -1.5547  13.2326  12.9251   C.ar      1 RES1   0.0000
    72 H30     -0.9236  13.8242  12.5324   H         1 RES1   0.0000
    73 C35     -2.6630  13.7542  13.5842   C.ar      1 RES1   0.0000
    74 H31     -2.7767  14.6952  13.6497   H         1 RES1   0.0000
    75 C36     -3.5961  12.9098  14.1414   C.ar      1 RES1   0.0000
    76 H32     -4.3546  13.2627  14.5915   H         1 RES1   0.0000
    77 C37     -3.4185  11.5446  14.0402   C.ar      1 RES1   0.0000
    78 H33     -4.0669  10.9584  14.4122   H         1 RES1   0.0000
    79 C38     -2.3128  11.0217  13.4060   C.ar      1 RES1   0.0000
    80 H34     -2.2009  10.0794  13.3594   H         1 RES1   0.0000
    81 C39      4.6161  11.6962  12.7848   C.3       1 RES1   0.0000
    82 H35      4.1837  12.5633  12.6375   H         1 RES1   0.0000
    83 H36      5.4562  11.6605  12.2813   H         1 RES1   0.0000
    84 H37      4.8028  11.5824  13.7401   H         1 RES1   0.0000
    85 C40      4.7248   8.9842  12.1611   C.3       1 RES1   0.0000
    86 H38      5.0040   8.7621  13.0739   H         1 RES1   0.0000
    87 H39      5.5053   9.2668  11.6404   H         1 RES1   0.0000
    88 H40      4.3206   8.1958  11.7423   H         1 RES1   0.0000
    89 C41      3.5192  10.6810  10.4043   C.3       1 RES1   0.0000
    90 H41      3.1284   9.9197   9.9264   H         1 RES1   0.0000
    91 H42      4.4438  10.8131  10.1073   H         1 RES1   0.0000
    92 H43      2.9969  11.4883  10.2153   H         1 RES1   0.0000
    93 C42      2.8245  11.4735  16.2075   C.3       1 RES1   0.0000
    94 H44      2.8030  10.5906  16.6322   H         1 RES1   0.0000
    95 H45      2.6313  12.1627  16.8770   H         1 RES1   0.0000
    96 H46      3.7126  11.6302  15.8242   H         1 RES1   0.0000
    97 C43      1.7546  13.3198  14.4909   C.3       1 RES1   0.0000
    98 H47      2.6418  13.4760  14.1047   H         1 RES1   0.0000
    99 H48      1.6596  13.8443  15.3133   H         1 RES1   0.0000
   100 H49      1.0663  13.5914  13.8487   H         1 RES1   0.0000
   101 C44      0.0719  11.6651  15.9388   C.3       1 RES1   0.0000
   102 H50     -0.7114  11.8581  15.3825   H         1 RES1   0.0000
   103 H51      0.1945  12.3858  16.5916   H         1 RES1   0.0000
   104 H52     -0.0633  10.8168  16.4105   H         1 RES1   0.0000
@<TRIPOS>BOND
     1     1     2    1
     2     3     1    1
     3     4     1    1
     4     5     1    1
     5     6     1    1
     6     7     1    1
     7     8     7    1
     8     9     7    1
     9    10     3    1
    10    11    10   ar
    11    12    11    1
    12    13    11   ar
    13    14    13    1
    14    15    13   ar
    15    16    15    1
    16    17    15   ar
    17    18    17    1
    18    19    10   ar
    19    20    19    1
    20    21     3    1
    21    22    21   ar
    22    23    22    1
    23    24    22   ar
    24    25    24    1
    25    26    24   ar
    26    27    26    1
    27    28    26   ar
    28    29    28    1
    29    30    21   ar
    30    31    30    1
    31    32     3    1
    32    33    32    1
    33    34    32    1
    34    35     8    1
    35    36    35   ar
    36    37    36    1
    37    38    36   ar
    38    39    38    1
    39    40    38   ar
    40    41    40    1
    41    42    40   ar
    42    43    42    1
    43    44     9    1
    44    45     7    1
    45    46    45   ar
    46    47    46    1
    47    48    46   ar
    48    49    48    1
    49    50    48   ar
    50    51    50    1
    51    52    50   ar
    52    53    52    1
    53    54    45   ar
    54    55    54    1
    55    56     4    1
    56    57    56    1
    57    58    56    1
    58    59     4    1
    59    60    59   ar
    60    61    60    1
    61    62    60   ar
    62    63    62    1
    63    64    62   ar
    64    65    64    1
    65    66    64   ar
    66    67    66    1
    67    68    59   ar
    68    69    68    1
    69    70     4    1
    70    71    70   ar
    71    72    71    1
    72    73    71   ar
    73    74    73    1
    74    75    73   ar
    75    76    75    1
    76    77    75   ar
    77    78    77    1
    78    79    70   ar
    79    80    79    1
    80    81     5    1
    81    82    81    1
    82    83    81    1
    83    84    81    1
    84    85     5    1
    85    86    85    1
    86    87    85    1
    87    88    85    1
    88    89     5    1
    89    90    89    1
    90    91    89    1
    91    92    89    1
    92    93     6    1
    93    94    93    1
    94    95    93    1
    95    96    93    1
    96    97     6    1
    97    98    97    1
    98    99    97    1
    99   100    97    1
   100   101     6    1
   101   102   101    1
   102   103   101    1
   103   104   101    1
   104     8    32    1
   105     9    56    1
   106    17    19   ar
   107    28    30   ar
   108    35    44   ar
   109    42    44   ar
   110    52    54   ar
   111    66    68   ar
   112    77    79   ar
@<TRIPOS>SUBSTRUCTURE
     1 RES1        1 GROUP             0 ****  ****    0  
@<TRIPOS>CRYSIN
   11.4302   19.5917   18.1171   90.0000   97.0550   90.0000   231     1
