@<TRIPOS>MOLECULE
IGISOJ
    89    93     1     0     0
SMALL
NO_CHARGES
****
Generated from the CSD

@<TRIPOS>ATOM
     1 Fe1      8.7364   2.2468  11.8256   Fe        1 RES1   0.0000
     2 P1      10.2150   2.5580  13.4791   P.3       1 RES1   0.0000
     3 P2       8.0173   2.6941   9.7580   P.3       1 RES1   0.0000
     4 Si1      8.7364   4.5185  11.8984   Si        1 RES1   0.0000
     5 P3       9.0716   0.0037  11.5578   P.3       1 RES1   0.0000
     6 N1      10.2881   5.1469  12.4955   N.3       1 RES1   0.0000
     7 N2       9.0664   5.1904  10.2905   N.3       1 RES1   0.0000
     8 N3       7.1993   1.8613  12.6947   N.1       1 RES1   0.0000
     9 N4       6.2495   1.5840  13.2160   N.1       1 RES1   0.0000
    10 C1      11.0720   5.6105  11.4280   C.ar      1 RES1   0.0000
    11 C2      10.3838   5.6144  10.1940   C.ar      1 RES1   0.0000
    12 C3       9.7656   2.4256  15.2872   C.3       1 RES1   0.0000
    13 H1      10.5132   2.8063  15.7929   H         1 RES1   0.0000
    14 C4      11.0560   6.0252   9.0550   C.ar      1 RES1   0.0000
    15 H2      10.6083   6.0465   8.2396   H         1 RES1   0.0000
    16 C5       7.3489   5.6279  12.5827   C.ar      1 RES1   0.0000
    17 C6      12.3943   5.9908  11.4981   C.ar      1 RES1   0.0000
    18 H3      12.8410   5.9928  12.3135   H         1 RES1   0.0000
    19 C7       8.4554   4.4523   9.2090   C.3       1 RES1   0.0000
    20 H4       9.0662   4.4131   8.4574   H         1 RES1   0.0000
    21 H5       7.6505   4.9105   8.9196   H         1 RES1   0.0000
    22 C8      11.8278   1.6060  13.3763   C.3       1 RES1   0.0000
    23 H6      11.6004   0.6534  13.3249   H         1 RES1   0.0000
    24 C9      12.3897   6.4023   9.1141   C.ar      1 RES1   0.0000
    25 H7      12.8297   6.6716   8.3392   H         1 RES1   0.0000
    26 C10      8.7474   1.7470   8.3034   C.3       1 RES1   0.0000
    27 H8       8.5941   0.7930   8.4683   H         1 RES1   0.0000
    28 C11      6.3378   5.1911  13.4214   C.ar      1 RES1   0.0000
    29 H9       6.3545   4.3163  13.7373   H         1 RES1   0.0000
    30 C12      7.2876   6.9532  12.1470   C.ar      1 RES1   0.0000
    31 H10      7.9500   7.2751  11.5774   H         1 RES1   0.0000
    32 C13     10.9026   4.3293  13.5366   C.3       1 RES1   0.0000
    33 H11     10.7228   4.7202  14.4049   H         1 RES1   0.0000
    34 H12     11.8638   4.3094  13.4074   H         1 RES1   0.0000
    35 C14      6.1976   2.7321   9.3429   C.3       1 RES1   0.0000
    36 H13      6.1228   3.0853   8.4310   H         1 RES1   0.0000
    37 C15     13.0675   6.3804  10.3139   C.ar      1 RES1   0.0000
    38 H14     13.9654   6.6220  10.3465   H         1 RES1   0.0000
    39 C16      5.3023   6.0330  13.8042   C.ar      1 RES1   0.0000
    40 H15      4.6343   5.7132  14.3675   H         1 RES1   0.0000
    41 C17      9.1455  -1.0302  13.0666   C.3       1 RES1   0.0000
    42 H16      9.9237  -0.7957  13.5770   H         1 RES1   0.0000
    43 H17      9.1914  -1.9561  12.8192   H         1 RES1   0.0000
    44 H18      8.3585  -0.8794  13.5973   H         1 RES1   0.0000
    45 C18      9.5542   1.0196  15.8085   C.3       1 RES1   0.0000
    46 H19      8.7657   0.6450  15.4070   H         1 RES1   0.0000
    47 H20      9.4470   1.0447  16.7624   H         1 RES1   0.0000
    48 H21     10.3145   0.4773  15.5860   H         1 RES1   0.0000
    49 C19      5.2515   7.3350  13.3592   C.ar      1 RES1   0.0000
    50 H22      4.5473   7.8900  13.6035   H         1 RES1   0.0000
    51 C20      8.5344   3.2835  15.6031   C.3       1 RES1   0.0000
    52 H23      8.6305   4.1457  15.1907   H         1 RES1   0.0000
    53 H24      8.4542   3.3891  16.5539   H         1 RES1   0.0000
    54 H25      7.7475   2.8516  15.2623   H         1 RES1   0.0000
    55 C21     10.5464  -0.6229  10.6624   C.3       1 RES1   0.0000
    56 H26     10.5010  -0.3534   9.7428   H         1 RES1   0.0000
    57 H27     10.5681  -1.5820  10.7138   H         1 RES1   0.0000
    58 H28     11.3411  -0.2632  11.0639   H         1 RES1   0.0000
    59 C22      5.4404   3.6962  10.2532   C.3       1 RES1   0.0000
    60 H29      5.4605   3.3674  11.1542   H         1 RES1   0.0000
    61 H30      4.5299   3.7666   9.9591   H         1 RES1   0.0000
    62 H31      5.8555   4.5610  10.2189   H         1 RES1   0.0000
    63 C23     12.7738   1.7844  14.5683   C.3       1 RES1   0.0000
    64 H32     12.9872   2.7147  14.6710   H         1 RES1   0.0000
    65 H33     13.5800   1.2866  14.4142   H         1 RES1   0.0000
    66 H34     12.3479   1.4643  15.3665   H         1 RES1   0.0000
    67 C24      7.7484  -0.9727  10.7449   C.3       1 RES1   0.0000
    68 H35      6.9133  -0.8123  11.1900   H         1 RES1   0.0000
    69 H36      7.9640  -1.9065  10.7963   H         1 RES1   0.0000
    70 H37      7.6764  -0.7096   9.8253   H         1 RES1   0.0000
    71 C25     12.6059   1.9650  12.0816   C.3       1 RES1   0.0000
    72 H38     12.0093   1.9344  11.3300   H         1 RES1   0.0000
    73 H39     13.3183   1.3357  11.9509   H         1 RES1   0.0000
    74 H40     12.9716   2.8498  12.1641   H         1 RES1   0.0000
    75 C26      5.5307   1.3576   9.3382   C.3       1 RES1   0.0000
    76 H41      5.9622   0.7948   8.6893   H         1 RES1   0.0000
    77 H42      4.6029   1.4533   9.1110   H         1 RES1   0.0000
    78 H43      5.6084   0.9610  10.2081   H         1 RES1   0.0000
    79 C27      8.1238   2.0786   6.9511   C.3       1 RES1   0.0000
    80 H44      7.2043   1.8041   6.9465   H         1 RES1   0.0000
    81 H45      8.5992   1.6154   6.2571   H         1 RES1   0.0000
    82 H46      8.1760   3.0251   6.7986   H         1 RES1   0.0000
    83 C28      6.2620   7.8036  12.5407   C.ar      1 RES1   0.0000
    84 H47      6.2553   8.6889  12.2559   H         1 RES1   0.0000
    85 C29     10.2716   1.9643   8.2365   C.3       1 RES1   0.0000
    86 H48     10.4559   2.8539   7.9252   H         1 RES1   0.0000
    87 H49     10.6610   1.3273   7.6343   H         1 RES1   0.0000
    88 H50     10.6502   1.8475   9.1126   H         1 RES1   0.0000
    89 H51      9.8735   2.5590  11.0017   H         1 RES1   0.0000
@<TRIPOS>BOND
     1     1     2    1
     2     2    12    1
     3     3     1    1
     4     4     1    1
     5     5     1    1
     6     6     4    1
     7     7     4    1
     8     8     1    1
     9     9     8    3
    10    10     6    1
    11    11     7    1
    12    12    13    1
    13    14    11   ar
    14    15    14    1
    15    16     4    1
    16    17    10   ar
    17    18    17    1
    18    19     3    1
    19    20    19    1
    20    21    19    1
    21    22     2    1
    22    23    22    1
    23    24    14   ar
    24    25    24    1
    25    26     3    1
    26    27    26    1
    27    28    16   ar
    28    29    28    1
    29    30    16   ar
    30    31    30    1
    31    32     2    1
    32    33    32    1
    33    34    32    1
    34    35     3    1
    35    36    35    1
    36    37    17   ar
    37    38    37    1
    38    39    28   ar
    39    40    39    1
    40    41     5    1
    41    42    41    1
    42    43    41    1
    43    44    41    1
    44    45    12    1
    45    46    45    1
    46    47    45    1
    47    48    45    1
    48    49    39   ar
    49    50    49    1
    50    51    12    1
    51    52    51    1
    52    53    51    1
    53    54    51    1
    54    55     5    1
    55    56    55    1
    56    57    55    1
    57    58    55    1
    58    59    35    1
    59    60    59    1
    60    61    59    1
    61    62    59    1
    62    63    22    1
    63    64    63    1
    64    65    63    1
    65    66    63    1
    66    67     5    1
    67    68    67    1
    68    69    67    1
    69    70    67    1
    70    71    22    1
    71    72    71    1
    72    73    71    1
    73    74    71    1
    74    75    35    1
    75    76    75    1
    76    77    75    1
    77    78    75    1
    78    79    26    1
    79    80    79    1
    80    81    79    1
    81    82    79    1
    82    83    30   ar
    83    84    83    1
    84    85    26    1
    85    86    85    1
    86    87    85    1
    87    88    85    1
    88    89     1    1
    89     6    32    1
    90     7    19    1
    91    10    11   ar
    92    24    37   ar
    93    49    83   ar
@<TRIPOS>SUBSTRUCTURE
     1 RES1        1 GROUP             0 ****  ****    0  
@<TRIPOS>CRYSIN
   10.0211   10.9364   15.7799   87.7310   80.4470   75.6990     2     1
