@<TRIPOS>MOLECULE
IHEKEN
    98   101     2     0     0
SMALL
USER_CHARGES
****
Generated from the CSD

@<TRIPOS>ATOM
     1 Fe1      6.0624   3.5327   2.1841   Fe        1 RES1   0.0000
     2 S1       1.8181   2.9544   4.1720   S.2       1 RES1   0.0000
     3 S2       8.0757   7.1685   4.4574   S.2       1 RES1   0.0000
     4 S3       7.9605  -0.1011   4.5905   S.2       1 RES1   0.0000
     5 N1       7.6482   3.5448   1.0626   N.ar      1 RES1   0.0000
     6 N2       5.2956   2.2091   0.9863   N.ar      1 RES1   0.0000
     7 N3       5.3050   4.9097   1.0494   N.ar      1 RES1   0.0000
     8 N4       4.4071   3.4906   3.2304   N.2       1 RES1  -1.0000
     9 N5       6.8603   4.9120   3.3023   N.2       1 RES1   0.0000
    10 N6       6.8447   2.1098   3.2745   N.2       1 RES1   0.0000
    11 C1       6.1205   3.6053  -0.8483   C.3       1 RES1   0.0000
    12 C2       7.5438   3.5786  -0.2877   C.ar      1 RES1   0.0000
    13 C3       8.6750   3.5830  -1.0949   C.ar      1 RES1   0.0000
    14 C4       9.9200   3.5130  -0.4961   C.ar      1 RES1   0.0000
    15 C5      10.0375   3.4658   0.8718   C.ar      1 RES1   0.0000
    16 C6       8.8770   3.4939   1.6203   C.ar      1 RES1   0.0000
    17 C7       5.3924   2.3439  -0.3522   C.ar      1 RES1   0.0000
    18 C8       4.8407   1.3946  -1.2109   C.ar      1 RES1   0.0000
    19 C9       4.1783   0.2918  -0.6986   C.ar      1 RES1   0.0000
    20 C10      4.0819   0.1709   0.6751   C.ar      1 RES1   0.0000
    21 C11      4.6489   1.1340   1.4677   C.ar      1 RES1   0.0000
    22 C12      5.3915   4.8487  -0.2935   C.ar      1 RES1   0.0000
    23 C13      4.8446   5.8208  -1.1096   C.ar      1 RES1   0.0000
    24 C14      4.2103   6.9082  -0.5284   C.ar      1 RES1   0.0000
    25 C15      4.1313   6.9862   0.8293   C.ar      1 RES1   0.0000
    26 C16      4.6793   5.9818   1.6042   C.ar      1 RES1   0.0000
    27 C17      6.1533   3.6539  -2.3865   C.3       1 RES1   0.0000
    28 C18      3.3365   3.2889   3.6267   C.1       1 RES1   0.0000
    29 C19      7.3478   5.8527   3.7823   C.1       1 RES1   0.0000
    30 C20      7.3129   1.1984   3.8014   C.1       1 RES1   0.0000
    31 H1       8.5972   3.6332  -2.0196   H         1 RES1   0.0000
    32 H2      10.6856   3.4984  -1.0245   H         1 RES1   0.0000
    33 H3      10.8714   3.4167   1.2813   H         1 RES1   0.0000
    34 H4       8.9435   3.4765   2.5479   H         1 RES1   0.0000
    35 H5       4.9171   1.5024  -2.1311   H         1 RES1   0.0000
    36 H6       3.8114  -0.3489  -1.2622   H         1 RES1   0.0000
    37 H7       3.6386  -0.5522   1.0553   H         1 RES1   0.0000
    38 H8       4.5834   1.0375   2.3909   H         1 RES1   0.0000
    39 H9       4.9033   5.7479  -2.0342   H         1 RES1   0.0000
    40 H10      3.8416   7.5768  -1.0597   H         1 RES1   0.0000
    41 H11      3.7123   7.7117   1.2329   H         1 RES1   0.0000
    42 H12      4.6158   6.0390   2.5303   H         1 RES1   0.0000
    43 H13      6.6083   2.8774  -2.7226   H         1 RES1   0.0000
    44 H14      5.2555   3.6697  -2.7255   H         1 RES1   0.0000
    45 H15      6.6179   4.4443  -2.6712   H         1 RES1   0.0000
    46 N7       6.1881   3.5040   7.6056   N.4       2 RES2   1.0000
    47 C21      7.5792   3.0838   7.1683   C.3       2 RES2   0.0000
    48 C22      8.5454   4.1832   6.8263   C.3       2 RES2   0.0000
    49 C23      9.8324   3.6081   6.2642   C.3       2 RES2   0.0000
    50 C24     10.8166   4.6733   5.8268   C.3       2 RES2   0.0000
    51 C25      5.2969   2.2706   7.6688   C.3       2 RES2   0.0000
    52 C26      4.9819   1.6268   6.3376   C.3       2 RES2   0.0000
    53 C27      4.4182   0.2387   6.5239   C.3       2 RES2   0.0000
    54 C28      4.0199  -0.3892   5.2074   C.3       2 RES2   0.0000
    55 C29      5.6463   4.5180   6.6238   C.3       2 RES2   0.0000
    56 C30      4.1783   4.8722   6.7500   C.3       2 RES2   0.0000
    57 C31      3.8715   6.1042   5.9031   C.3       2 RES2   0.0000
    58 C32      2.3813   6.4426   5.9090   C.3       2 RES2   0.0000
    59 C33      6.2502   4.1550   8.9809   C.3       2 RES2   0.0000
    60 C34      6.2835   3.2180  10.1844   C.3       2 RES2   0.0000
    61 C35      6.5055   4.0416  11.4598   C.3       2 RES2   0.0000
    62 C36      6.3724   3.1741  12.7089   C.3       2 RES2   0.0000
    63 H16      7.9765   2.5660   7.8860   H         2 RES2   0.0000
    64 H17      7.4894   2.5259   6.3786   H         2 RES2   0.0000
    65 H18      8.1331   4.7648   6.1673   H         2 RES2   0.0000
    66 H19      8.7381   4.6897   7.6306   H         2 RES2   0.0000
    67 H20     10.2524   3.0629   6.9481   H         2 RES2   0.0000
    68 H21      9.6160   3.0548   5.4966   H         2 RES2   0.0000
    69 H22     11.0479   5.2243   6.5783   H         2 RES2   0.0000
    70 H23     11.6086   4.2556   5.4819   H         2 RES2   0.0000
    71 H24     10.4185   5.2165   5.1428   H         2 RES2   0.0000
    72 H25      5.7394   1.6050   8.2191   H         2 RES2   0.0000
    73 H26      4.4564   2.5239   8.0812   H         2 RES2   0.0000
    74 H27      4.3296   2.1704   5.8679   H         2 RES2   0.0000
    75 H28      5.7939   1.5679   5.8121   H         2 RES2   0.0000
    76 H29      5.0910  -0.3170   6.9466   H         2 RES2   0.0000
    77 H30      3.6369   0.2934   7.0949   H         2 RES2   0.0000
    78 H31      4.7879  -0.4524   4.6365   H         2 RES2   0.0000
    79 H32      3.6669  -1.2684   5.3659   H         2 RES2   0.0000
    80 H33      3.3496   0.1523   4.7833   H         2 RES2   0.0000
    81 H34      6.1565   5.3364   6.7338   H         2 RES2   0.0000
    82 H35      5.7881   4.1662   5.7314   H         2 RES2   0.0000
    83 H36      3.6446   4.1223   6.4432   H         2 RES2   0.0000
    84 H37      3.9758   5.0544   7.6805   H         2 RES2   0.0000
    85 H38      4.3670   6.8601   6.2583   H         2 RES2   0.0000
    86 H39      4.1515   5.9351   4.9887   H         2 RES2   0.0000
    87 H40      2.0961   6.6161   6.8087   H         2 RES2   0.0000
    88 H41      2.2264   7.2206   5.3689   H         2 RES2   0.0000
    89 H42      1.8845   5.7017   5.5538   H         2 RES2   0.0000
    90 H43      7.0504   4.7003   9.0088   H         2 RES2   0.0000
    91 H44      5.4683   4.7216   9.0690   H         2 RES2   0.0000
    92 H45      5.4396   2.7414  10.2431   H         2 RES2   0.0000
    93 H46      7.0078   2.5814  10.0743   H         2 RES2   0.0000
    94 H47      7.3953   4.4270  11.4408   H         2 RES2   0.0000
    95 H48      5.8468   4.7523  11.5009   H         2 RES2   0.0000
    96 H49      7.0242   2.4697  12.6824   H         2 RES2   0.0000
    97 H50      6.5155   3.7134  13.4911   H         2 RES2   0.0000
    98 H51      5.4921   2.7925  12.7411   H         2 RES2   0.0000
@<TRIPOS>BOND
     1     1     5    1
     2     2    28    2
     3     3    29    2
     4     4    30    2
     5     5    12   ar
     6     6     1    1
     7     7     1    1
     8     8     1    1
     9     9     1    1
    10    10     1    1
    11    11    12    1
    12    12    13   ar
    13    13    14   ar
    14    14    15   ar
    15    15    16   ar
    16    16     5   ar
    17    17     6   ar
    18    18    17   ar
    19    19    18   ar
    20    20    19   ar
    21    21     6   ar
    22    22     7   ar
    23    23    22   ar
    24    24    23   ar
    25    25    24   ar
    26    26     7   ar
    27    27    11    1
    28    28     8    2
    29    29     9    2
    30    30    10    2
    31    31    13    1
    32    32    14    1
    33    33    15    1
    34    34    16    1
    35    35    18    1
    36    36    19    1
    37    37    20    1
    38    38    21    1
    39    39    23    1
    40    40    24    1
    41    41    25    1
    42    42    26    1
    43    43    27    1
    44    44    27    1
    45    45    27    1
    46    11    17    1
    47    11    22    1
    48    20    21   ar
    49    25    26   ar
    50    46    47    1
    51    47    48    1
    52    48    49    1
    53    49    50    1
    54    50    69    1
    55    51    46    1
    56    52    51    1
    57    53    52    1
    58    54    53    1
    59    55    46    1
    60    56    55    1
    61    57    56    1
    62    58    57    1
    63    59    46    1
    64    60    59    1
    65    61    60    1
    66    62    61    1
    67    63    47    1
    68    64    47    1
    69    65    48    1
    70    66    48    1
    71    67    49    1
    72    68    49    1
    73    70    50    1
    74    71    50    1
    75    72    51    1
    76    73    51    1
    77    74    52    1
    78    75    52    1
    79    76    53    1
    80    77    53    1
    81    78    54    1
    82    79    54    1
    83    80    54    1
    84    81    55    1
    85    82    55    1
    86    83    56    1
    87    84    56    1
    88    85    57    1
    89    86    57    1
    90    87    58    1
    91    88    58    1
    92    89    58    1
    93    90    59    1
    94    91    59    1
    95    92    60    1
    96    93    60    1
    97    94    61    1
    98    95    61    1
    99    96    62    1
   100    97    62    1
   101    98    62    1
@<TRIPOS>SUBSTRUCTURE
     1 RES1        1 GROUP             0 ****  ****    0  
     2 RES2       46 GROUP             0 ****  ****    0  
@<TRIPOS>CRYSIN
   12.1730   12.2800   16.0680   69.8610   69.0230   60.6280     2     1
