@<TRIPOS>MOLECULE
IHITEA
   105   112     1     0     0
SMALL
NO_CHARGES
****
Generated from the CSD

@<TRIPOS>ATOM
     1 Se1      2.1789   3.3292   5.6527   Se        1 RES1   0.0000
     2 Fe1     -1.4494   0.0000   5.8481   Fe        1 RES1   0.0000
     3 Cl1     -5.6478  -3.0085  10.7570   Cl        1 RES1   0.0000
     4 N1      -0.1042   1.4523   5.7440   N.2       1 RES1   0.0000
     5 C1       0.7947   2.1864   5.7182   C.1       1 RES1   0.0000
     6 N2      -1.9695   0.6815   7.6832   N.ar      1 RES1   0.0000
     7 C2      -2.2997   1.9762   7.8844   C.ar      1 RES1   0.0000
     8 H1      -2.2852   2.5622   7.1381   H         1 RES1   0.0000
     9 N3      -0.0301  -1.1179   6.7791   N.ar      1 RES1   0.0000
    10 C3      -2.6492   2.4857   9.0914   C.ar      1 RES1   0.0000
    11 H2      -2.9592   3.3807   9.1651   H         1 RES1   0.0000
    12 N4      -1.5349  -1.4666   8.5662   N.pl3     1 RES1   0.0000
    13 C4      -2.5490   1.6816  10.2154   C.ar      1 RES1   0.0000
    14 H3      -2.7523   2.0255  11.0774   H         1 RES1   0.0000
    15 N5      -3.4833  -2.2118   9.5943   N.ar      1 RES1   0.0000
    16 C5      -2.1440   0.3647  10.0540   C.ar      1 RES1   0.0000
    17 H4      -2.0268  -0.2054  10.8049   H         1 RES1   0.0000
    18 N6      -2.0271  -3.7119   8.4329   N.ar      1 RES1   0.0000
    19 C6      -1.9169  -0.0971   8.7686   C.ar      1 RES1   0.0000
    20 N7      -4.0213  -4.5176   9.4797   N.ar      1 RES1   0.0000
    21 C7      -0.2771  -1.6975   7.9651   C.ar      1 RES1   0.0000
    22 N8      -2.6770  -5.9301   8.2434   N.pl3     1 RES1   0.0000
    23 C8       0.6628  -2.4730   8.6282   C.ar      1 RES1   0.0000
    24 H5       0.4538  -2.8870   9.4575   H         1 RES1   0.0000
    25 C9       1.8999  -2.6291   8.0598   C.ar      1 RES1   0.0000
    26 H6       2.5579  -3.1593   8.4937   H         1 RES1   0.0000
    27 C10      2.1919  -2.0112   6.8539   C.ar      1 RES1   0.0000
    28 H7       3.0412  -2.1163   6.4422   H         1 RES1   0.0000
    29 C11      1.2168  -1.2484   6.2773   C.ar      1 RES1   0.0000
    30 H8       1.4288  -0.7819   5.4773   H         1 RES1   0.0000
    31 C12     -2.3890  -2.5208   8.8820   C.ar      1 RES1   0.0000
    32 C13     -4.2035  -3.2803   9.8177   C.ar      1 RES1   0.0000
    33 C14     -2.8858  -4.6976   8.7347   C.ar      1 RES1   0.0000
    34 C15     -1.5003  -6.2327   7.4200   C.3       1 RES1   0.0000
    35 H9      -1.6360  -7.1945   7.1826   H         1 RES1   0.0000
    36 C16     -1.5343  -5.5527   6.0890   C.3       1 RES1   0.0000
    37 H10     -2.4657  -5.4333   5.8071   H         1 RES1   0.0000
    38 H11     -1.0607  -6.1005   5.4293   H         1 RES1   0.0000
    39 H12     -1.0997  -4.6769   6.1592   H         1 RES1   0.0000
    40 C17     -0.2361  -6.2581   8.1920   C.3       1 RES1   0.0000
    41 H13      0.1095  -5.3457   8.2844   H         1 RES1   0.0000
    42 H14      0.4231  -6.8107   7.7206   H         1 RES1   0.0000
    43 H15     -0.4026  -6.6371   9.0809   H         1 RES1   0.0000
    44 C18     -3.7868  -6.9938   8.3534   C.3       1 RES1   0.0000
    45 H16     -4.5453  -6.5575   8.8376   H         1 RES1   0.0000
    46 C19     -3.3108  -8.1212   9.2446   C.3       1 RES1   0.0000
    47 H17     -4.0586  -8.7264   9.4318   H         1 RES1   0.0000
    48 H18     -2.9714  -7.7518  10.0867   H         1 RES1   0.0000
    49 H19     -2.5959  -8.6149   8.7931   H         1 RES1   0.0000
    50 C20     -4.3069  -7.3824   7.0446   C.3       1 RES1   0.0000
    51 H20     -3.6052  -7.8394   6.5358   H         1 RES1   0.0000
    52 H21     -4.5957  -6.5830   6.5568   H         1 RES1   0.0000
    53 H22     -5.0705  -7.9859   7.1615   H         1 RES1   0.0000
    54 Se1B    -5.0778  -3.3292   6.0434   Se        1 RES1   0.0000
    55 Cl1B     2.7490   3.0085   0.9391   Cl        1 RES1   0.0000
    56 N1B     -2.7946  -1.4523   5.9522   N.2       1 RES1   0.0000
    57 C1B     -3.6935  -2.1864   5.9779   C.1       1 RES1   0.0000
    58 N2B     -0.9294  -0.6815   4.0129   N.ar      1 RES1   0.0000
    59 C2B     -0.5992  -1.9762   3.8118   C.ar      1 RES1   0.0000
    60 H1B     -0.6136  -2.5622   4.5580   H         1 RES1   0.0000
    61 N3B     -2.8687   1.1179   4.9170   N.ar      1 RES1   0.0000
    62 C3B     -0.2496  -2.4857   2.6047   C.ar      1 RES1   0.0000
    63 H2B      0.0604  -3.3807   2.5310   H         1 RES1   0.0000
    64 N4B     -1.3639   1.4666   3.1299   N.pl3     1 RES1   0.0000
    65 C4B     -0.3498  -1.6816   1.4807   C.ar      1 RES1   0.0000
    66 H3B     -0.1465  -2.0255   0.6187   H         1 RES1   0.0000
    67 N5B      0.5845   2.2118   2.1018   N.ar      1 RES1   0.0000
    68 C5B     -0.7549  -0.3647   1.6421   C.ar      1 RES1   0.0000
    69 H4B     -0.8720   0.2054   0.8912   H         1 RES1   0.0000
    70 N6B     -0.8717   3.7119   3.2632   N.ar      1 RES1   0.0000
    71 C6B     -0.9819   0.0971   2.9275   C.ar      1 RES1   0.0000
    72 N7B      1.1225   4.5176   2.2164   N.ar      1 RES1   0.0000
    73 C7B     -2.6217   1.6975   3.7311   C.ar      1 RES1   0.0000
    74 N8B     -0.2218   5.9301   3.4527   N.pl3     1 RES1   0.0000
    75 C8B     -3.5616   2.4730   3.0679   C.ar      1 RES1   0.0000
    76 H5B     -3.3526   2.8870   2.2386   H         1 RES1   0.0000
    77 C9B     -4.7987   2.6291   3.6363   C.ar      1 RES1   0.0000
    78 H6B     -5.4567   3.1593   3.2024   H         1 RES1   0.0000
    79 C10B    -5.0907   2.0112   4.8422   C.ar      1 RES1   0.0000
    80 H7B     -5.9400   2.1163   5.2539   H         1 RES1   0.0000
    81 C11B    -4.1157   1.2484   5.4188   C.ar      1 RES1   0.0000
    82 H8B     -4.3277   0.7819   6.2188   H         1 RES1   0.0000
    83 C12B    -0.5098   2.5208   2.8141   C.ar      1 RES1   0.0000
    84 C13B     1.3047   3.2803   1.8784   C.ar      1 RES1   0.0000
    85 C14B    -0.0131   4.6976   2.9615   C.ar      1 RES1   0.0000
    86 C15B    -1.3985   6.2327   4.2761   C.3       1 RES1   0.0000
    87 H9B     -1.2628   7.1945   4.5135   H         1 RES1   0.0000
    88 C16B    -1.3645   5.5527   5.6071   C.3       1 RES1   0.0000
    89 H10B    -0.4331   5.4333   5.8890   H         1 RES1   0.0000
    90 H11B    -1.8381   6.1005   6.2668   H         1 RES1   0.0000
    91 H12B    -1.7991   4.6769   5.5369   H         1 RES1   0.0000
    92 C17B    -2.6628   6.2581   3.5042   C.3       1 RES1   0.0000
    93 H13B    -3.0083   5.3457   3.4118   H         1 RES1   0.0000
    94 H14B    -3.3220   6.8107   3.9755   H         1 RES1   0.0000
    95 H15B    -2.4962   6.6371   2.6153   H         1 RES1   0.0000
    96 C18B     0.8880   6.9938   3.3428   C.3       1 RES1   0.0000
    97 H16B     1.6465   6.5575   2.8585   H         1 RES1   0.0000
    98 C19B     0.4120   8.1212   2.4515   C.3       1 RES1   0.0000
    99 H17B     1.1598   8.7264   2.2644   H         1 RES1   0.0000
   100 H18B     0.0726   7.7518   1.6094   H         1 RES1   0.0000
   101 H19B    -0.3030   8.6149   2.9030   H         1 RES1   0.0000
   102 C20B     1.4081   7.3824   4.6515   C.3       1 RES1   0.0000
   103 H20B     0.7064   7.8394   5.1603   H         1 RES1   0.0000
   104 H21B     1.6969   6.5830   5.1393   H         1 RES1   0.0000
   105 H22B     2.1717   7.9859   4.5346   H         1 RES1   0.0000
@<TRIPOS>BOND
     1     1     5    2
     2     2     4    1
     3     3    32    1
     4     4     5    2
     5     6     2    1
     6     7     6   ar
     7     8     7    1
     8     9     2    1
     9    10     7   ar
    10    11    10    1
    11    12    19    1
    12    13    10   ar
    13    14    13    1
    14    15    31   ar
    15    16    13   ar
    16    17    16    1
    17    18    31   ar
    18    19     6   ar
    19    20    32   ar
    20    21     9   ar
    21    22    33    1
    22    23    21   ar
    23    24    23    1
    24    25    23   ar
    25    26    25    1
    26    27    25   ar
    27    28    27    1
    28    29     9   ar
    29    30    29    1
    30    31    12    1
    31    32    15   ar
    32    33    18   ar
    33    34    22    1
    34    35    34    1
    35    36    34    1
    36    37    36    1
    37    38    36    1
    38    39    36    1
    39    40    34    1
    40    41    40    1
    41    42    40    1
    42    43    40    1
    43    44    22    1
    44    45    44    1
    45    46    44    1
    46    47    46    1
    47    48    46    1
    48    49    46    1
    49    50    44    1
    50    51    50    1
    51    52    50    1
    52    53    50    1
    53    54    57    2
    54    55    84    1
    55    56     2    1
    56    57    56    2
    57    58     2    1
    58    59    58   ar
    59    60    59    1
    60    61     2    1
    61    62    59   ar
    62    63    62    1
    63    64    71    1
    64    65    62   ar
    65    66    65    1
    66    67    83   ar
    67    68    65   ar
    68    69    68    1
    69    70    83   ar
    70    71    58   ar
    71    72    84   ar
    72    73    61   ar
    73    74    85    1
    74    75    73   ar
    75    76    75    1
    76    77    75   ar
    77    78    77    1
    78    79    77   ar
    79    80    79    1
    80    81    61   ar
    81    82    81    1
    82    83    64    1
    83    84    67   ar
    84    85    70   ar
    85    86    74    1
    86    87    86    1
    87    88    86    1
    88    89    88    1
    89    90    88    1
    90    91    88    1
    91    92    86    1
    92    93    92    1
    93    94    92    1
    94    95    92    1
    95    96    74    1
    96    97    96    1
    97    98    96    1
    98    99    98    1
    99   100    98    1
   100   101    98    1
   101   102    96    1
   102   103   102    1
   103   104   102    1
   104   105   102    1
   105    12    21    1
   106    16    19   ar
   107    20    33   ar
   108    27    29   ar
   109    64    73    1
   110    68    71   ar
   111    72    85   ar
   112    79    81   ar
@<TRIPOS>SUBSTRUCTURE
     1 RES1        1 GROUP             0 ****  ****    0  
@<TRIPOS>CRYSIN
   11.4430   15.9240   12.0500   90.0000  103.9200   90.0000   231     1
