@<TRIPOS>MOLECULE
IHITAW
   105   112     1     0     0
SMALL
NO_CHARGES
****
Generated from the CSD

@<TRIPOS>ATOM
     1 Fe1      0.0000   0.0000   0.0000   Fe        1 RES1   0.0000
     2 Cl1     -4.2965   2.9448   4.9076   Cl        1 RES1   0.0000
     3 S1      -3.5849   3.3338   0.2644   S.2       1 RES1   0.0000
     4 N1      -1.4253   1.5460   0.0758   N.2       1 RES1   0.0000
     5 C1      -2.3268   2.2920   0.1504   C.1       1 RES1   0.0000
     6 N2      -0.6066  -0.6963   2.0019   N.ar      1 RES1   0.0000
     7 C2      -0.9754  -1.9752   2.1937   C.ar      1 RES1   0.0000
     8 H1      -1.0469  -2.5471   1.4372   H         1 RES1   0.0000
     9 N3       1.4826   1.1975   1.1140   N.ar      1 RES1   0.0000
    10 C3      -1.2563  -2.4996   3.4510   C.ar      1 RES1   0.0000
    11 H2      -1.5785  -3.3882   3.5469   H         1 RES1   0.0000
    12 N4      -0.0984   1.4381   2.8436   N.pl3     1 RES1   0.0000
    13 C4      -1.0555  -1.6996   4.5496   C.ar      1 RES1   0.0000
    14 H3      -1.2022  -2.0386   5.4245   H         1 RES1   0.0000
    15 N5      -2.0892   2.1574   3.7907   N.ar      1 RES1   0.0000
    16 C5      -0.6366  -0.3912   4.3649   C.ar      1 RES1   0.0000
    17 H4      -0.4680   0.1711   5.1107   H         1 RES1   0.0000
    18 N6      -0.5974   3.6782   2.7110   N.ar      1 RES1   0.0000
    19 C6      -0.4695   0.0776   3.0733   C.ar      1 RES1   0.0000
    20 N7      -2.6280   4.4748   3.7031   N.ar      1 RES1   0.0000
    21 C7       1.1909   1.7186   2.3073   C.ar      1 RES1   0.0000
    22 N8      -1.2505   5.9004   2.5347   N.pl3     1 RES1   0.0000
    23 C8       2.0870   2.4679   3.0627   C.ar      1 RES1   0.0000
    24 H5       1.8435   2.8116   3.9139   H         1 RES1   0.0000
    25 C9       3.3477   2.6991   2.5347   C.ar      1 RES1   0.0000
    26 H6       3.9820   3.2203   3.0129   H         1 RES1   0.0000
    27 C10      3.6683   2.1637   1.3034   C.ar      1 RES1   0.0000
    28 H7       4.5252   2.3126   0.9222   H         1 RES1   0.0000
    29 C11      2.7285   1.4082   0.6322   C.ar      1 RES1   0.0000
    30 H8       2.9653   1.0201  -0.2013   H         1 RES1   0.0000
    31 C12     -0.9594   2.4774   3.1290   C.ar      1 RES1   0.0000
    32 C13     -2.8235   3.2361   4.0204   C.ar      1 RES1   0.0000
    33 C14     -1.4797   4.6680   2.9893   C.ar      1 RES1   0.0000
    34 C15     -0.0578   6.2061   1.7154   C.3       1 RES1   0.0000
    35 H9      -0.1833   7.1676   1.4704   H         1 RES1   0.0000
    36 C16     -0.0783   5.5155   0.4132   C.3       1 RES1   0.0000
    37 H10      0.2884   4.6126   0.5162   H         1 RES1   0.0000
    38 H11      0.4637   6.0176  -0.2309   H         1 RES1   0.0000
    39 H12     -1.0016   5.4585   0.0876   H         1 RES1   0.0000
    40 C17      1.1676   6.2172   2.5335   C.3       1 RES1   0.0000
    41 H13      0.9667   6.5894   3.4178   H         1 RES1   0.0000
    42 H14      1.8485   6.7684   2.0943   H         1 RES1   0.0000
    43 H15      1.5030   5.3016   2.6329   H         1 RES1   0.0000
    44 C18     -2.4100   6.9601   2.6175   C.3       1 RES1   0.0000
    45 H16     -3.1639   6.5324   3.1147   H         1 RES1   0.0000
    46 C19     -1.9239   8.1196   3.4557   C.3       1 RES1   0.0000
    47 H17     -1.1929   8.5758   2.9904   H         1 RES1   0.0000
    48 H18     -1.6033   7.7854   4.3199   H         1 RES1   0.0000
    49 H19     -2.6621   8.7484   3.6025   H         1 RES1   0.0000
    50 C20     -2.9170   7.3117   1.2774   C.3       1 RES1   0.0000
    51 H20     -3.6427   7.9644   1.3638   H         1 RES1   0.0000
    52 H21     -3.2545   6.5055   0.8346   H         1 RES1   0.0000
    53 H22     -2.1913   7.6967   0.7447   H         1 RES1   0.0000
    54 Cl1B     4.2965  -2.9448  -4.9076   Cl        1 RES1   0.0000
    55 S1B      3.5849  -3.3338  -0.2644   S.2       1 RES1   0.0000
    56 N1B      1.4253  -1.5460  -0.0758   N.2       1 RES1   0.0000
    57 C1B      2.3268  -2.2920  -0.1504   C.1       1 RES1   0.0000
    58 N2B      0.6066   0.6963  -2.0019   N.ar      1 RES1   0.0000
    59 C2B      0.9754   1.9752  -2.1937   C.ar      1 RES1   0.0000
    60 H1B      1.0469   2.5471  -1.4372   H         1 RES1   0.0000
    61 N3B     -1.4826  -1.1975  -1.1140   N.ar      1 RES1   0.0000
    62 C3B      1.2563   2.4996  -3.4510   C.ar      1 RES1   0.0000
    63 H2B      1.5785   3.3882  -3.5469   H         1 RES1   0.0000
    64 N4B      0.0984  -1.4381  -2.8436   N.pl3     1 RES1   0.0000
    65 C4B      1.0555   1.6996  -4.5496   C.ar      1 RES1   0.0000
    66 H3B      1.2022   2.0386  -5.4245   H         1 RES1   0.0000
    67 N5B      2.0892  -2.1574  -3.7907   N.ar      1 RES1   0.0000
    68 C5B      0.6366   0.3912  -4.3649   C.ar      1 RES1   0.0000
    69 H4B      0.4680  -0.1711  -5.1107   H         1 RES1   0.0000
    70 N6B      0.5974  -3.6782  -2.7110   N.ar      1 RES1   0.0000
    71 C6B      0.4695  -0.0776  -3.0733   C.ar      1 RES1   0.0000
    72 N7B      2.6280  -4.4748  -3.7031   N.ar      1 RES1   0.0000
    73 C7B     -1.1909  -1.7186  -2.3073   C.ar      1 RES1   0.0000
    74 N8B      1.2505  -5.9004  -2.5347   N.pl3     1 RES1   0.0000
    75 C8B     -2.0870  -2.4679  -3.0627   C.ar      1 RES1   0.0000
    76 H5B     -1.8435  -2.8116  -3.9139   H         1 RES1   0.0000
    77 C9B     -3.3477  -2.6991  -2.5347   C.ar      1 RES1   0.0000
    78 H6B     -3.9820  -3.2203  -3.0129   H         1 RES1   0.0000
    79 C10B    -3.6683  -2.1637  -1.3034   C.ar      1 RES1   0.0000
    80 H7B     -4.5252  -2.3126  -0.9222   H         1 RES1   0.0000
    81 C11B    -2.7285  -1.4082  -0.6322   C.ar      1 RES1   0.0000
    82 H8B     -2.9653  -1.0201   0.2013   H         1 RES1   0.0000
    83 C12B     0.9594  -2.4774  -3.1290   C.ar      1 RES1   0.0000
    84 C13B     2.8235  -3.2361  -4.0204   C.ar      1 RES1   0.0000
    85 C14B     1.4797  -4.6680  -2.9893   C.ar      1 RES1   0.0000
    86 C15B     0.0578  -6.2061  -1.7154   C.3       1 RES1   0.0000
    87 H9B      0.1833  -7.1676  -1.4704   H         1 RES1   0.0000
    88 C16B     0.0783  -5.5155  -0.4132   C.3       1 RES1   0.0000
    89 H10B    -0.2884  -4.6126  -0.5162   H         1 RES1   0.0000
    90 H11B    -0.4637  -6.0176   0.2309   H         1 RES1   0.0000
    91 H12B     1.0016  -5.4585  -0.0876   H         1 RES1   0.0000
    92 C17B    -1.1676  -6.2172  -2.5335   C.3       1 RES1   0.0000
    93 H13B    -0.9667  -6.5894  -3.4178   H         1 RES1   0.0000
    94 H14B    -1.8485  -6.7684  -2.0943   H         1 RES1   0.0000
    95 H15B    -1.5030  -5.3016  -2.6329   H         1 RES1   0.0000
    96 C18B     2.4100  -6.9601  -2.6175   C.3       1 RES1   0.0000
    97 H16B     3.1639  -6.5324  -3.1147   H         1 RES1   0.0000
    98 C19B     1.9239  -8.1196  -3.4557   C.3       1 RES1   0.0000
    99 H17B     1.1929  -8.5758  -2.9904   H         1 RES1   0.0000
   100 H18B     1.6033  -7.7854  -4.3199   H         1 RES1   0.0000
   101 H19B     2.6621  -8.7484  -3.6025   H         1 RES1   0.0000
   102 C20B     2.9170  -7.3117  -1.2774   C.3       1 RES1   0.0000
   103 H20B     3.6427  -7.9644  -1.3638   H         1 RES1   0.0000
   104 H21B     3.2545  -6.5055  -0.8346   H         1 RES1   0.0000
   105 H22B     2.1913  -7.6967  -0.7447   H         1 RES1   0.0000
@<TRIPOS>BOND
     1     1     4    1
     2     2    32    1
     3     3     5    2
     4     4     5    2
     5     6     1    1
     6     7     6   ar
     7     8     7    1
     8     9     1    1
     9    10     7   ar
    10    11    10    1
    11    12    19    1
    12    13    10   ar
    13    14    13    1
    14    15    31   ar
    15    16    13   ar
    16    17    16    1
    17    18    31   ar
    18    19     6   ar
    19    20    32   ar
    20    21     9   ar
    21    22    33    1
    22    23    21   ar
    23    24    23    1
    24    25    23   ar
    25    26    25    1
    26    27    25   ar
    27    28    27    1
    28    29     9   ar
    29    30    29    1
    30    31    12    1
    31    32    15   ar
    32    33    18   ar
    33    34    22    1
    34    35    34    1
    35    36    34    1
    36    37    36    1
    37    38    36    1
    38    39    36    1
    39    40    34    1
    40    41    40    1
    41    42    40    1
    42    43    40    1
    43    44    22    1
    44    45    44    1
    45    46    44    1
    46    47    46    1
    47    48    46    1
    48    49    46    1
    49    50    44    1
    50    51    50    1
    51    52    50    1
    52    53    50    1
    53    54    84    1
    54    55    57    2
    55    56     1    1
    56    57    56    2
    57    58     1    1
    58    59    58   ar
    59    60    59    1
    60    61     1    1
    61    62    59   ar
    62    63    62    1
    63    64    71    1
    64    65    62   ar
    65    66    65    1
    66    67    83   ar
    67    68    65   ar
    68    69    68    1
    69    70    83   ar
    70    71    58   ar
    71    72    84   ar
    72    73    61   ar
    73    74    85    1
    74    75    73   ar
    75    76    75    1
    76    77    75   ar
    77    78    77    1
    78    79    77   ar
    79    80    79    1
    80    81    61   ar
    81    82    81    1
    82    83    64    1
    83    84    67   ar
    84    85    70   ar
    85    86    74    1
    86    87    86    1
    87    88    86    1
    88    89    88    1
    89    90    88    1
    90    91    88    1
    91    92    86    1
    92    93    92    1
    93    94    92    1
    94    95    92    1
    95    96    74    1
    96    97    96    1
    97    98    96    1
    98    99    98    1
    99   100    98    1
   100   101    98    1
   101   102    96    1
   102   103   102    1
   103   104   102    1
   104   105   102    1
   105    12    21    1
   106    16    19   ar
   107    20    33   ar
   108    27    29   ar
   109    64    73    1
   110    68    71   ar
   111    72    85   ar
   112    79    81   ar
@<TRIPOS>SUBSTRUCTURE
     1 RES1        1 GROUP             0 ****  ****    0  
@<TRIPOS>CRYSIN
   11.5300   15.8400   12.1900   90.0000  103.7900   90.0000   231     1
