@<TRIPOS>MOLECULE
IHITOK
   145   152     1     0     0
SMALL
NO_CHARGES
****
Generated from the CSD

@<TRIPOS>ATOM
     1 Se1      8.1605  10.3996   3.2333   Se        1 RES1   0.0000
     2 Fe1     10.7855   6.4421   4.3373   Fe        1 RES1   0.0000
     3 N1       9.5425   7.8716   3.8442   N.2       1 RES1   0.0000
     4 C1       8.9961   8.8527   3.6173   C.1       1 RES1   0.0000
     5 N2      11.4578   6.3950   2.4696   N.ar      1 RES1   0.0000
     6 C2       8.1385   5.2745   4.1759   C.ar      1 RES1   0.0000
     7 H1       7.9446   5.9725   4.7918   H         1 RES1   0.0000
     8 N3       9.4140   5.1212   3.7488   N.ar      1 RES1   0.0000
     9 C3       7.1104   4.4617   3.7561   C.ar      1 RES1   0.0000
    10 H2       6.2297   4.5972   4.0840   H         1 RES1   0.0000
    11 N4      10.9744   4.0978   2.3570   N.pl3     1 RES1   0.0000
    12 C4       7.3669   3.4560   2.8626   C.ar      1 RES1   0.0000
    13 H3       6.6719   2.8758   2.5746   H         1 RES1   0.0000
    14 N5      12.9941   3.0499   2.0767   N.ar      1 RES1   0.0000
    15 C5       8.6521   3.3014   2.3890   C.ar      1 RES1   0.0000
    16 H4       8.8549   2.6255   1.7540   H         1 RES1   0.0000
    17 N6      11.0337   1.7809   2.5024   N.ar      1 RES1   0.0000
    18 C6       9.6506   4.1554   2.8609   C.ar      1 RES1   0.0000
    19 N7      13.1516   0.6778   2.2661   N.ar      1 RES1   0.0000
    20 C7      11.5092   5.2642   1.7592   C.ar      1 RES1   0.0000
    21 N8      15.0099   1.9923   1.8584   N.pl3     1 RES1   0.0000
    22 C8      12.0135   5.2215   0.4702   C.ar      1 RES1   0.0000
    23 H5      12.0085   4.4057  -0.0173   H         1 RES1   0.0000
    24 N9      11.2102  -0.5027   2.6266   N.pl3     1 RES1   0.0000
    25 C9      12.5193   6.3583  -0.0972   C.ar      1 RES1   0.0000
    26 H6      12.9037   6.3377  -0.9663   H         1 RES1   0.0000
    27 C10     12.4565   7.5363   0.6211   C.ar      1 RES1   0.0000
    28 H7      12.7894   8.3432   0.2481   H         1 RES1   0.0000
    29 C11     11.9089   7.5275   1.8754   C.ar      1 RES1   0.0000
    30 H8      11.8424   8.3477   2.3491   H         1 RES1   0.0000
    31 C12     11.7011   2.8979   2.3039   C.ar      1 RES1   0.0000
    32 C13     11.8312   0.6818   2.4601   C.ar      1 RES1   0.0000
    33 C14     13.6744   1.8863   2.0749   C.ar      1 RES1   0.0000
    34 C15     15.8727   0.8305   1.7176   C.3       1 RES1   0.0000
    35 H9      16.4349   0.9424   0.9091   H         1 RES1   0.0000
    36 H10     15.3110   0.0265   1.5857   H         1 RES1   0.0000
    37 C16     16.7686   0.6111   2.9094   C.3       1 RES1   0.0000
    38 H11     17.3926  -0.1296   2.7047   H         1 RES1   0.0000
    39 H12     17.3085   1.4269   3.0552   H         1 RES1   0.0000
    40 C17     16.0324   0.2857   4.1828   C.3       1 RES1   0.0000
    41 H13     15.3693   0.9836   4.3650   H         1 RES1   0.0000
    42 H14     16.6700   0.2385   4.9254   H         1 RES1   0.0000
    43 H15     15.5785  -0.5772   4.0857   H         1 RES1   0.0000
    44 C18     15.5968   3.2969   1.5614   C.3       1 RES1   0.0000
    45 H16     16.5535   3.2822   1.8164   H         1 RES1   0.0000
    46 H17     15.1492   3.9831   2.1166   H         1 RES1   0.0000
    47 C19     15.4834   3.6945   0.1058   C.3       1 RES1   0.0000
    48 H18     14.5409   3.6121  -0.1839   H         1 RES1   0.0000
    49 H19     16.0272   3.0790  -0.4459   H         1 RES1   0.0000
    50 C20     15.9551   5.1184  -0.1180   C.3       1 RES1   0.0000
    51 H20     15.4059   5.7325   0.4146   H         1 RES1   0.0000
    52 H21     15.8719   5.3452  -1.0670   H         1 RES1   0.0000
    53 H22     16.8922   5.1994   0.1579   H         1 RES1   0.0000
    54 C21      9.7505  -0.5919   2.7342   C.3       1 RES1   0.0000
    55 H23      9.4135   0.2135   3.2009   H         1 RES1   0.0000
    56 H24      9.5192  -1.3797   3.2876   H         1 RES1   0.0000
    57 C22      9.0544  -0.7097   1.4018   C.3       1 RES1   0.0000
    58 H25      9.2841  -1.5771   0.9854   H         1 RES1   0.0000
    59 H26      9.3682   0.0118   0.8015   H         1 RES1   0.0000
    60 C23      7.5507  -0.6111   1.5666   C.3       1 RES1   0.0000
    61 H27      7.2435  -1.3046   2.1877   H         1 RES1   0.0000
    62 H28      7.1184  -0.7363   0.6974   H         1 RES1   0.0000
    63 H29      7.3190   0.2724   1.9223   H         1 RES1   0.0000
    64 C24     11.9639  -1.7479   2.5798   C.3       1 RES1   0.0000
    65 H30     11.4304  -2.4532   3.0239   H         1 RES1   0.0000
    66 H31     12.7959  -1.6301   3.1055   H         1 RES1   0.0000
    67 C25     12.3379  -2.2309   1.1901   C.3       1 RES1   0.0000
    68 H32     13.0504  -1.6536   0.8189   H         1 RES1   0.0000
    69 H33     11.5491  -2.1705   0.5933   H         1 RES1   0.0000
    70 C26     12.8245  -3.6710   1.2526   C.3       1 RES1   0.0000
    71 H34     13.5012  -3.7578   1.9570   H         1 RES1   0.0000
    72 H35     13.2165  -3.9213   0.3904   H         1 RES1   0.0000
    73 H36     12.0689  -4.2629   1.4521   H         1 RES1   0.0000
    74 Se1C    13.4104  10.3996   5.4412   Se        1 RES1   0.0000
    75 N1C     12.0284   7.8716   4.8303   N.2       1 RES1   0.0000
    76 C1C     12.5748   8.8527   5.0572   C.1       1 RES1   0.0000
    77 N2C     10.1131   6.3950   6.2049   N.ar      1 RES1   0.0000
    78 C2C     13.4324   5.2745   4.4986   C.ar      1 RES1   0.0000
    79 H1C     13.6263   5.9725   3.8827   H         1 RES1   0.0000
    80 N3C     12.1569   5.1212   4.9257   N.ar      1 RES1   0.0000
    81 C3C     14.4605   4.4617   4.9184   C.ar      1 RES1   0.0000
    82 H2C     15.3412   4.5972   4.5905   H         1 RES1   0.0000
    83 N4C     10.5965   4.0978   6.3175   N.pl3     1 RES1   0.0000
    84 C4C     14.2040   3.4560   5.8119   C.ar      1 RES1   0.0000
    85 H3C     14.8990   2.8758   6.0999   H         1 RES1   0.0000
    86 N5C      8.5768   3.0499   6.5978   N.ar      1 RES1   0.0000
    87 C5C     12.9188   3.3014   6.2855   C.ar      1 RES1   0.0000
    88 H4C     12.7160   2.6255   6.9205   H         1 RES1   0.0000
    89 N6C     10.5372   1.7809   6.1721   N.ar      1 RES1   0.0000
    90 C6C     11.9203   4.1554   5.8136   C.ar      1 RES1   0.0000
    91 N7C      8.4193   0.6778   6.4084   N.ar      1 RES1   0.0000
    92 C7C     10.0617   5.2642   6.9153   C.ar      1 RES1   0.0000
    93 N8C      6.5610   1.9923   6.8161   N.pl3     1 RES1   0.0000
    94 C8C      9.5574   5.2215   8.2043   C.ar      1 RES1   0.0000
    95 H5C      9.5624   4.4057   8.6918   H         1 RES1   0.0000
    96 N9C     10.3607  -0.5027   6.0479   N.pl3     1 RES1   0.0000
    97 C9C      9.0516   6.3583   8.7717   C.ar      1 RES1   0.0000
    98 H6C      8.6672   6.3377   9.6408   H         1 RES1   0.0000
    99 C10C     9.1144   7.5363   8.0534   C.ar      1 RES1   0.0000
   100 H7C      8.7815   8.3432   8.4264   H         1 RES1   0.0000
   101 C11C     9.6620   7.5275   6.7991   C.ar      1 RES1   0.0000
   102 H8C      9.7285   8.3477   6.3254   H         1 RES1   0.0000
   103 C12C     9.8698   2.8979   6.3706   C.ar      1 RES1   0.0000
   104 C13C     9.7397   0.6818   6.2144   C.ar      1 RES1   0.0000
   105 C14C     7.8965   1.8863   6.5996   C.ar      1 RES1   0.0000
   106 C15C     5.6982   0.8305   6.9569   C.3       1 RES1   0.0000
   107 H9C      5.1360   0.9424   7.7654   H         1 RES1   0.0000
   108 H10C     6.2599   0.0265   7.0888   H         1 RES1   0.0000
   109 C16C     4.8023   0.6111   5.7651   C.3       1 RES1   0.0000
   110 H11C     4.1783  -0.1296   5.9698   H         1 RES1   0.0000
   111 H12C     4.2624   1.4269   5.6193   H         1 RES1   0.0000
   112 C17C     5.5385   0.2857   4.4917   C.3       1 RES1   0.0000
   113 H13C     6.2016   0.9836   4.3095   H         1 RES1   0.0000
   114 H14C     4.9009   0.2385   3.7491   H         1 RES1   0.0000
   115 H15C     5.9924  -0.5772   4.5888   H         1 RES1   0.0000
   116 C18C     5.9741   3.2969   7.1131   C.3       1 RES1   0.0000
   117 H16C     5.0174   3.2822   6.8581   H         1 RES1   0.0000
   118 H17C     6.4217   3.9831   6.5579   H         1 RES1   0.0000
   119 C19C     6.0875   3.6945   8.5687   C.3       1 RES1   0.0000
   120 H18C     7.0300   3.6121   8.8584   H         1 RES1   0.0000
   121 H19C     5.5437   3.0790   9.1204   H         1 RES1   0.0000
   122 C20C     5.6158   5.1184   8.7925   C.3       1 RES1   0.0000
   123 H20C     6.1650   5.7325   8.2599   H         1 RES1   0.0000
   124 H21C     5.6990   5.3452   9.7415   H         1 RES1   0.0000
   125 H22C     4.6787   5.1994   8.5166   H         1 RES1   0.0000
   126 C21C    11.8204  -0.5919   5.9403   C.3       1 RES1   0.0000
   127 H23C    12.1574   0.2135   5.4736   H         1 RES1   0.0000
   128 H24C    12.0517  -1.3797   5.3869   H         1 RES1   0.0000
   129 C22C    12.5165  -0.7097   7.2727   C.3       1 RES1   0.0000
   130 H25C    12.2868  -1.5771   7.6891   H         1 RES1   0.0000
   131 H26C    12.2027   0.0118   7.8730   H         1 RES1   0.0000
   132 C23C    14.0202  -0.6111   7.1079   C.3       1 RES1   0.0000
   133 H27C    14.3274  -1.3046   6.4868   H         1 RES1   0.0000
   134 H28C    14.4525  -0.7363   7.9771   H         1 RES1   0.0000
   135 H29C    14.2519   0.2724   6.7522   H         1 RES1   0.0000
   136 C24C     9.6070  -1.7479   6.0947   C.3       1 RES1   0.0000
   137 H30C    10.1405  -2.4532   5.6506   H         1 RES1   0.0000
   138 H31C     8.7750  -1.6301   5.5690   H         1 RES1   0.0000
   139 C25C     9.2330  -2.2309   7.4844   C.3       1 RES1   0.0000
   140 H32C     8.5205  -1.6536   7.8556   H         1 RES1   0.0000
   141 H33C    10.0218  -2.1705   8.0812   H         1 RES1   0.0000
   142 C26C     8.7464  -3.6710   7.4219   C.3       1 RES1   0.0000
   143 H34C     8.0697  -3.7578   6.7175   H         1 RES1   0.0000
   144 H35C     8.3544  -3.9213   8.2841   H         1 RES1   0.0000
   145 H36C     9.5020  -4.2629   7.2224   H         1 RES1   0.0000
@<TRIPOS>BOND
     1     1     4    2
     2     2     3    1
     3     3     4    2
     4     5     2    1
     5     6     7    1
     6     8     2    1
     7     9     6   ar
     8    10     9    1
     9    11    18    1
    10    12     9   ar
    11    13    12    1
    12    14    31   ar
    13    15    12   ar
    14    16    15    1
    15    17    31   ar
    16    18     8   ar
    17    19    32   ar
    18    20     5   ar
    19    21    33    1
    20    22    20   ar
    21    23    22    1
    22    24    32    1
    23    25    22   ar
    24    26    25    1
    25    27    25   ar
    26    28    27    1
    27    29     5   ar
    28    30    29    1
    29    31    11    1
    30    32    17   ar
    31    33    14   ar
    32    34    21    1
    33    35    34    1
    34    36    34    1
    35    37    34    1
    36    38    37    1
    37    39    37    1
    38    40    37    1
    39    41    40    1
    40    42    40    1
    41    43    40    1
    42    44    21    1
    43    45    44    1
    44    46    44    1
    45    47    44    1
    46    48    47    1
    47    49    47    1
    48    50    47    1
    49    51    50    1
    50    52    50    1
    51    53    50    1
    52    54    24    1
    53    55    54    1
    54    56    54    1
    55    57    54    1
    56    58    57    1
    57    59    57    1
    58    60    57    1
    59    61    60    1
    60    62    60    1
    61    63    60    1
    62    64    24    1
    63    65    64    1
    64    66    64    1
    65    67    64    1
    66    68    67    1
    67    69    67    1
    68    70    67    1
    69    71    70    1
    70    72    70    1
    71    73    70    1
    72    74    76    2
    73    75     2    1
    74    76    75    2
    75    77     2    1
    76    78    79    1
    77    80     2    1
    78    81    78   ar
    79    82    81    1
    80    83    90    1
    81    84    81   ar
    82    85    84    1
    83    86   103   ar
    84    87    84   ar
    85    88    87    1
    86    89   103   ar
    87    90    80   ar
    88    91   104   ar
    89    92    77   ar
    90    93   105    1
    91    94    92   ar
    92    95    94    1
    93    96   104    1
    94    97    94   ar
    95    98    97    1
    96    99    97   ar
    97   100    99    1
    98   101    77   ar
    99   102   101    1
   100   103    83    1
   101   104    89   ar
   102   105    86   ar
   103   106    93    1
   104   107   106    1
   105   108   106    1
   106   109   106    1
   107   110   109    1
   108   111   109    1
   109   112   109    1
   110   113   112    1
   111   114   112    1
   112   115   112    1
   113   116    93    1
   114   117   116    1
   115   118   116    1
   116   119   116    1
   117   120   119    1
   118   121   119    1
   119   122   119    1
   120   123   122    1
   121   124   122    1
   122   125   122    1
   123   126    96    1
   124   127   126    1
   125   128   126    1
   126   129   126    1
   127   130   129    1
   128   131   129    1
   129   132   129    1
   130   133   132    1
   131   134   132    1
   132   135   132    1
   133   136    96    1
   134   137   136    1
   135   138   136    1
   136   139   136    1
   137   140   139    1
   138   141   139    1
   139   142   139    1
   140   143   142    1
   141   144   142    1
   142   145   142    1
   143     6     8   ar
   144    11    20    1
   145    15    18   ar
   146    19    33   ar
   147    27    29   ar
   148    78    80   ar
   149    83    92    1
   150    87    90   ar
   151    91   105   ar
   152    99   101   ar
@<TRIPOS>SUBSTRUCTURE
     1 RES1        1 GROUP             0 ****  ****    0  
@<TRIPOS>CRYSIN
   21.5709   14.7251   17.3490   90.0000   90.0000   90.0000    60     1
