@<TRIPOS>MOLECULE
IHUWUE
   130   138     1     0     0
SMALL
NO_CHARGES
****
Generated from the CSD

@<TRIPOS>ATOM
     1 C1       3.5042   2.4080  13.0538   C.ar      1 RES1   0.0000
     2 C2       3.6269   2.2130  14.4480   C.ar      1 RES1   0.0000
     3 C3       3.6171   0.9098  14.9186   C.ar      1 RES1   0.0000
     4 H1       3.6853   0.7576  15.8539   H         1 RES1   0.0000
     5 C4       3.5090  -0.1830  14.0671   C.ar      1 RES1   0.0000
     6 H2       3.5508  -1.0672  14.4097   H         1 RES1   0.0000
     7 C5       3.3387   0.0410  12.7067   C.ar      1 RES1   0.0000
     8 H3       3.2352  -0.6995  12.1228   H         1 RES1   0.0000
     9 C6       3.3137   1.3254  12.1846   C.ar      1 RES1   0.0000
    10 C7       3.6657   3.3452  15.4716   C.3       1 RES1   0.0000
    11 H4       3.8953   4.1917  14.9921   H         1 RES1   0.0000
    12 C8       4.7107   3.1245  16.5731   C.3       1 RES1   0.0000
    13 H5       4.4225   2.3874  17.1526   H         1 RES1   0.0000
    14 H6       4.8009   3.9420  17.1055   H         1 RES1   0.0000
    15 H7       5.5730   2.9039  16.1657   H         1 RES1   0.0000
    16 C9       2.2704   3.5213  16.1143   C.3       1 RES1   0.0000
    17 H8       1.6003   3.6479  15.4098   H         1 RES1   0.0000
    18 H9       2.2767   4.3046  16.7025   H         1 RES1   0.0000
    19 H10      2.0470   2.7209  16.6363   H         1 RES1   0.0000
    20 C10      2.9606   1.5563  10.7139   C.3       1 RES1   0.0000
    21 H11      3.4620   2.3601  10.3918   H         1 RES1   0.0000
    22 C11      1.4577   1.8419  10.5918   C.3       1 RES1   0.0000
    23 H12      1.2236   1.9702   9.6491   H         1 RES1   0.0000
    24 H13      1.2359   2.6525  11.0963   H         1 RES1   0.0000
    25 H14      0.9518   1.0843  10.9536   H         1 RES1   0.0000
    26 C12      3.3142   0.3814   9.8183   C.3       1 RES1   0.0000
    27 H15      4.2579   0.1505   9.9403   H         1 RES1   0.0000
    28 H16      3.1541   0.6242   8.8829   H         1 RES1   0.0000
    29 H17      2.7569  -0.3882  10.0565   H         1 RES1   0.0000
    30 C13      4.6348   4.3336  11.8552   C.3       1 RES1   0.0000
    31 C14      2.5982   4.7219  12.8361   C.2       1 RES1   0.0000
    32 H18      1.7696   4.5508  13.2670   H         1 RES1   0.0000
    33 C15      3.0297   5.9327  12.4243   C.2       1 RES1   0.0000
    34 H19      2.5837   6.7673  12.5126   H         1 RES1   0.0000
    35 C16      5.2457   6.5877  11.4198   C.ar      1 RES1   0.0000
    36 C17      5.1937   7.9576  11.4360   C.ar      1 RES1   0.0000
    37 H20      4.4069   8.4108  11.7140   H         1 RES1   0.0000
    38 C18      6.3391   8.6810  11.0301   C.ar      1 RES1   0.0000
    39 H21      6.3391   9.6301  11.0301   H         1 RES1   0.0000
    40 C19      8.0078   5.6915  13.7067   C.ar      1 RES1   0.0000
    41 C20      7.2272   6.7331  14.2847   C.ar      1 RES1   0.0000
    42 C21      7.7197   8.0294  14.4112   C.ar      1 RES1   0.0000
    43 H22      7.1684   8.6981  14.7995   H         1 RES1   0.0000
    44 C22      8.9943   8.3714  13.9862   C.ar      1 RES1   0.0000
    45 C23      9.8031   7.3453  13.4744   C.ar      1 RES1   0.0000
    46 H23     10.6918   7.5505  13.2082   H         1 RES1   0.0000
    47 C24      9.3443   6.0353  13.3464   C.ar      1 RES1   0.0000
    48 C25      5.8532   6.4475  14.8656   C.3       1 RES1   0.0000
    49 H24      5.4500   7.2837  15.1804   H         1 RES1   0.0000
    50 H25      5.9396   5.8232  15.6172   H         1 RES1   0.0000
    51 H26      5.2825   6.0490  14.1744   H         1 RES1   0.0000
    52 C26      9.5100   9.7789  14.0759   C.3       1 RES1   0.0000
    53 H27      8.7679  10.3895  14.2671   H         1 RES1   0.0000
    54 H28      9.9260  10.0303  13.2244   H         1 RES1   0.0000
    55 H29     10.1741   9.8388  14.7936   H         1 RES1   0.0000
    56 C27     10.3257   4.9955  12.8582   C.3       1 RES1   0.0000
    57 H30     11.1664   5.4333  12.6081   H         1 RES1   0.0000
    58 H31      9.9532   4.5355  12.0772   H         1 RES1   0.0000
    59 H32     10.4945   4.3456  13.5714   H         1 RES1   0.0000
    60 N1       3.5571   3.7607  12.5287   N.pl3     1 RES1   0.0000
    61 N2       4.2729   5.6915  11.8405   N.pl3     1 RES1   0.0000
    62 N3       6.3391   5.8882  11.0301   N.ar      1 RES1   0.0000
    63 N4       6.3391   2.1805  11.0301   N.1       1 RES1   0.0000
    64 N5       6.3391   1.0330  11.0301   N.1       1 RES1   0.0000
    65 Si1      7.2650   4.0137  13.2232   Si        1 RES1   0.0000
    66 Fe1      6.3391   4.0068  11.0301   Fe        1 RES1   0.0000
    67 H33      8.1939   3.0613  13.4861   H         1 RES1   0.0000
    68 H34      6.3714   3.6427  14.2509   H         1 RES1   0.0000
    69 C1A      9.1740   2.4080   9.0065   C.ar      1 RES1   0.0000
    70 C2A      9.0513   2.2130   7.6122   C.ar      1 RES1   0.0000
    71 C3A      9.0612   0.9098   7.1416   C.ar      1 RES1   0.0000
    72 H1A      8.9930   0.7576   6.2063   H         1 RES1   0.0000
    73 C4A      9.1692  -0.1830   7.9932   C.ar      1 RES1   0.0000
    74 H2A      9.1274  -1.0672   7.6505   H         1 RES1   0.0000
    75 C5A      9.3396   0.0410   9.3535   C.ar      1 RES1   0.0000
    76 H3A      9.4431  -0.6995   9.9374   H         1 RES1   0.0000
    77 C6A      9.3645   1.3254   9.8756   C.ar      1 RES1   0.0000
    78 C7A      9.0126   3.3452   6.5887   C.3       1 RES1   0.0000
    79 H4A      8.7829   4.1917   7.0681   H         1 RES1   0.0000
    80 C8A      7.9675   3.1245   5.4871   C.3       1 RES1   0.0000
    81 H5A      8.2558   2.3874   4.9077   H         1 RES1   0.0000
    82 H6A      7.8773   3.9420   4.9547   H         1 RES1   0.0000
    83 H7A      7.1052   2.9039   5.8945   H         1 RES1   0.0000
    84 C9A     10.4078   3.5213   5.9460   C.3       1 RES1   0.0000
    85 H8A     11.0780   3.6479   6.6504   H         1 RES1   0.0000
    86 H9A     10.4015   4.3046   5.3577   H         1 RES1   0.0000
    87 H10A    10.6312   2.7209   5.4239   H         1 RES1   0.0000
    88 C10A     9.7176   1.5563  11.3463   C.3       1 RES1   0.0000
    89 H11A     9.2163   2.3601  11.6684   H         1 RES1   0.0000
    90 C11A    11.2206   1.8419  11.4684   C.3       1 RES1   0.0000
    91 H12A    11.4547   1.9702  12.4111   H         1 RES1   0.0000
    92 H13A    11.4424   2.6525  10.9639   H         1 RES1   0.0000
    93 H14A    11.7264   1.0843  11.1066   H         1 RES1   0.0000
    94 C12A     9.3641   0.3814  12.2419   C.3       1 RES1   0.0000
    95 H15A     8.4204   0.1505  12.1199   H         1 RES1   0.0000
    96 H16A     9.5242   0.6242  13.1773   H         1 RES1   0.0000
    97 H17A     9.9214  -0.3882  12.0037   H         1 RES1   0.0000
    98 C13A     8.0435   4.3336  10.2051   C.3       1 RES1   0.0000
    99 C14A    10.0800   4.7219   9.2241   C.2       1 RES1   0.0000
   100 H18A    10.9086   4.5508   8.7932   H         1 RES1   0.0000
   101 C15A     9.6485   5.9327   9.6359   C.2       1 RES1   0.0000
   102 H19A    10.0945   6.7673   9.5477   H         1 RES1   0.0000
   103 C16A     7.4326   6.5877  10.6404   C.ar      1 RES1   0.0000
   104 C17A     7.4845   7.9576  10.6242   C.ar      1 RES1   0.0000
   105 H20A     8.2713   8.4108  10.3462   H         1 RES1   0.0000
   106 C19A     4.6705   5.6915   8.3535   C.ar      1 RES1   0.0000
   107 C20A     5.4510   6.7331   7.7755   C.ar      1 RES1   0.0000
   108 C21A     4.9585   8.0294   7.6490   C.ar      1 RES1   0.0000
   109 H22A     5.5098   8.6981   7.2608   H         1 RES1   0.0000
   110 C22A     3.6840   8.3714   8.0740   C.ar      1 RES1   0.0000
   111 C23A     2.8751   7.3453   8.5858   C.ar      1 RES1   0.0000
   112 H23A     1.9864   7.5505   8.8520   H         1 RES1   0.0000
   113 C24A     3.3339   6.0353   8.7138   C.ar      1 RES1   0.0000
   114 C25A     6.8251   6.4475   7.1946   C.3       1 RES1   0.0000
   115 H24A     7.2282   7.2837   6.8798   H         1 RES1   0.0000
   116 H25A     6.7386   5.8232   6.4431   H         1 RES1   0.0000
   117 H26A     7.3957   6.0490   7.8858   H         1 RES1   0.0000
   118 C26A     3.1683   9.7789   7.9843   C.3       1 RES1   0.0000
   119 H27A     3.9104  10.3895   7.7931   H         1 RES1   0.0000
   120 H28A     2.7522  10.0303   8.8359   H         1 RES1   0.0000
   121 H29A     2.5042   9.8388   7.2666   H         1 RES1   0.0000
   122 C27A     2.3525   4.9955   9.2021   C.3       1 RES1   0.0000
   123 H30A     1.5119   5.4333   9.4521   H         1 RES1   0.0000
   124 H31A     2.7251   4.5355   9.9830   H         1 RES1   0.0000
   125 H32A     2.1838   4.3456   8.4888   H         1 RES1   0.0000
   126 N1A      9.1212   3.7607   9.5315   N.pl3     1 RES1   0.0000
   127 N2A      8.4054   5.6915  10.2198   N.pl3     1 RES1   0.0000
   128 Si1A     5.4132   4.0137   8.8370   Si        1 RES1   0.0000
   129 H33A     4.4843   3.0613   8.5741   H         1 RES1   0.0000
   130 H34A     6.3068   3.6427   7.8093   H         1 RES1   0.0000
@<TRIPOS>BOND
     1     1     2   ar
     2     2     3   ar
     3     3     4    1
     4     5     3   ar
     5     6     5    1
     6     7     5   ar
     7     8     7    1
     8     9     1   ar
     9    10     2    1
    10    11    10    1
    11    12    10    1
    12    13    12    1
    13    14    12    1
    14    15    12    1
    15    16    10    1
    16    17    16    1
    17    18    16    1
    18    19    16    1
    19    20     9    1
    20    21    20    1
    21    22    20    1
    22    23    22    1
    23    24    22    1
    24    25    22    1
    25    26    20    1
    26    27    26    1
    27    28    26    1
    28    29    26    1
    29    30    60    1
    30    31    32    1
    31    33    31    2
    32    34    33    1
    33    35    36   ar
    34    36    37    1
    35    38    36   ar
    36    39    38    1
    37    40    41   ar
    38    41    42   ar
    39    42    43    1
    40    44    42   ar
    41    45    44   ar
    42    46    45    1
    43    47    40   ar
    44    48    41    1
    45    49    48    1
    46    50    48    1
    47    51    48    1
    48    52    44    1
    49    53    52    1
    50    54    52    1
    51    55    52    1
    52    56    47    1
    53    57    56    1
    54    58    56    1
    55    59    56    1
    56    60     1    1
    57    61    30    1
    58    62    35   ar
    59    63    64    3
    60    65    40    1
    61    66    30    1
    62    67    65    1
    63    68    65    1
    64    69    70   ar
    65    70    71   ar
    66    71    72    1
    67    73    71   ar
    68    74    73    1
    69    75    73   ar
    70    76    75    1
    71    77    69   ar
    72    78    70    1
    73    79    78    1
    74    80    78    1
    75    81    80    1
    76    82    80    1
    77    83    80    1
    78    84    78    1
    79    85    84    1
    80    86    84    1
    81    87    84    1
    82    88    77    1
    83    89    88    1
    84    90    88    1
    85    91    90    1
    86    92    90    1
    87    93    90    1
    88    94    88    1
    89    95    94    1
    90    96    94    1
    91    97    94    1
    92    98    66    1
    93    99   100    1
    94   101    99    2
    95   102   101    1
    96   103    62   ar
    97   104    38   ar
    98   105   104    1
    99   106   107   ar
   100   107   108   ar
   101   108   109    1
   102   110   108   ar
   103   111   110   ar
   104   112   111    1
   105   113   106   ar
   106   114   107    1
   107   115   114    1
   108   116   114    1
   109   117   114    1
   110   118   110    1
   111   119   118    1
   112   120   118    1
   113   121   118    1
   114   122   113    1
   115   123   122    1
   116   124   122    1
   117   125   122    1
   118   126    69    1
   119   127    98    1
   120   128    66    1
   121   129   128    1
   122   130   128    1
   123     7     9   ar
   124    31    60    1
   125    33    61    1
   126    35    61    1
   127    45    47   ar
   128    62    66    1
   129    63    66    1
   130    65    66    1
   131    75    77   ar
   132    98   126    1
   133    99   126    1
   134   101   127    1
   135   103   104   ar
   136   103   127    1
   137   106   128    1
   138   111   113   ar
@<TRIPOS>SUBSTRUCTURE
     1 RES1        1 GROUP             0 ****  ****    0  
@<TRIPOS>CRYSIN
   19.5560   17.1020   15.4050   90.0000  107.3160   90.0000    15     1
