@<TRIPOS>MOLECULE
IJEZIJ
    98   105     2     0     0
SMALL
USER_CHARGES
****
Generated from the CSD

@<TRIPOS>ATOM
     1 Fe1      9.9075   5.3583  10.3490   Fe        1 RES1   1.0000
     2 P1       9.2363   3.8626  11.9355   P.3       1 RES1   0.0000
     3 P2      10.0808   7.4175  11.1945   P.3       1 RES1   0.0000
     4 Cl1     12.0903   5.0289  11.0427   Cl        1 RES1   0.0000
     5 N1      10.1100   3.7495   9.1163   N.3       1 RES1   0.0000
     6 N2      10.6391   6.2644   8.7312   N.2       1 RES1   0.0000
     7 O1       7.1795   5.7396   9.5608   O.2       1 RES1   0.0000
     8 C1       8.2102   5.5983   9.8681   C.1       1 RES1   0.0000
     9 C2       9.5907   2.3217  11.0163   C.3       1 RES1   0.0000
    10 H1      10.5154   2.0624  11.1493   H         1 RES1   0.0000
    11 H2       9.0232   1.6047  11.3405   H         1 RES1   0.0000
    12 C3       9.3265   2.5627   9.5353   C.3       1 RES1   0.0000
    13 H3       9.5961   1.7878   9.0186   H         1 RES1   0.0000
    14 H4       8.3817   2.7183   9.3853   H         1 RES1   0.0000
    15 C4       9.8008   4.1776   7.7231   C.3       1 RES1   0.0000
    16 H5       8.8391   4.3606   7.6835   H         1 RES1   0.0000
    17 C5      10.5305   5.5088   7.4414   C.3       1 RES1   0.0000
    18 H6      11.4334   5.3084   7.1186   H         1 RES1   0.0000
    19 C6      11.3273   7.3474   8.7708   C.2       1 RES1   0.0000
    20 C7      11.4167   8.0450  10.1187   C.3       1 RES1   0.0000
    21 H7      11.3240   9.0040  10.0011   H         1 RES1   0.0000
    22 H8      12.2789   7.8701  10.5264   H         1 RES1   0.0000
    23 C8      12.0633   7.9789   7.6339   C.3       1 RES1   0.0000
    24 H9      12.4344   7.2945   7.0719   H         1 RES1   0.0000
    25 H10     12.7716   8.5291   7.9780   H         1 RES1   0.0000
    26 H11     11.4585   8.5199   7.1228   H         1 RES1   0.0000
    27 C9      10.0993   3.1169   6.6825   C.ar      1 RES1   0.0000
    28 C10     11.3795   2.6573   6.4560   C.ar      1 RES1   0.0000
    29 H12     12.0881   3.0274   6.9303   H         1 RES1   0.0000
    30 C11     11.6249   1.6657   5.5428   C.ar      1 RES1   0.0000
    31 H13     12.4943   1.3617   5.4140   H         1 RES1   0.0000
    32 C12     10.6022   1.1207   4.8193   C.ar      1 RES1   0.0000
    33 H14     10.7706   0.4403   4.2091   H         1 RES1   0.0000
    34 C13      9.3276   1.5834   5.0020   C.ar      1 RES1   0.0000
    35 H15      8.6326   1.2366   4.4923   H         1 RES1   0.0000
    36 C14      9.0662   2.5678   5.9463   C.ar      1 RES1   0.0000
    37 H16      8.1949   2.8586   6.0822   H         1 RES1   0.0000
    38 C15      9.8041   6.3264   6.3810   C.ar      1 RES1   0.0000
    39 C16     10.3083   6.4382   5.0983   C.ar      1 RES1   0.0000
    40 H17     11.0611   5.9501   4.8519   H         1 RES1   0.0000
    41 C17      9.6958   7.2762   4.1752   C.ar      1 RES1   0.0000
    42 H18     10.0421   7.3454   3.3144   H         1 RES1   0.0000
    43 C18      8.5843   8.0023   4.5206   C.ar      1 RES1   0.0000
    44 H19      8.1934   8.5789   3.9047   H         1 RES1   0.0000
    45 C19      8.0505   7.8762   5.7807   C.ar      1 RES1   0.0000
    46 H20      7.2859   8.3521   6.0129   H         1 RES1   0.0000
    47 C20      8.6533   7.0403   6.7009   C.ar      1 RES1   0.0000
    48 H21      8.2824   6.9528   7.5490   H         1 RES1   0.0000
    49 C21      7.4496   3.8084  12.3499   C.ar      1 RES1   0.0000
    50 C22      6.7588   4.9861  12.5057   C.ar      1 RES1   0.0000
    51 H22      7.1927   5.7945  12.3556   H         1 RES1   0.0000
    52 C23      5.4140   4.9871  12.8851   C.ar      1 RES1   0.0000
    53 H23      4.9574   5.7894  12.9941   H         1 RES1   0.0000
    54 C24      4.7778   3.7983  13.0918   C.ar      1 RES1   0.0000
    55 H24      3.8779   3.7922  13.3240   H         1 RES1   0.0000
    56 C25      5.4473   2.6247  12.9601   C.ar      1 RES1   0.0000
    57 H25      5.0049   1.8203  13.1116   H         1 RES1   0.0000
    58 C26      6.7880   2.6217  12.6019   C.ar      1 RES1   0.0000
    59 H26      7.2450   1.8152  12.5312   H         1 RES1   0.0000
    60 C27      9.9860   3.5939  13.5873   C.ar      1 RES1   0.0000
    61 C28      9.2718   3.8725  14.7370   C.ar      1 RES1   0.0000
    62 H27      8.3865   4.1532  14.6704   H         1 RES1   0.0000
    63 C29      9.8565   3.7393  15.9871   C.ar      1 RES1   0.0000
    64 H28      9.3654   3.9356  16.7516   H         1 RES1   0.0000
    65 C30     11.1577   3.3183  16.0961   C.ar      1 RES1   0.0000
    66 H29     11.5514   3.2308  16.9343   H         1 RES1   0.0000
    67 C31     11.8706   3.0274  14.9677   C.ar      1 RES1   0.0000
    68 H30     12.7482   2.7305  15.0428   H         1 RES1   0.0000
    69 C32     11.2965   3.1698  13.7048   C.ar      1 RES1   0.0000
    70 H31     11.7946   2.9796  12.9417   H         1 RES1   0.0000
    71 C33      8.6676   8.5037  10.8138   C.ar      1 RES1   0.0000
    72 C34      8.5387   9.1403   9.5778   C.ar      1 RES1   0.0000
    73 H32      9.2384   9.1087   8.9676   H         1 RES1   0.0000
    74 C35      7.3750   9.8165   9.2564   C.ar      1 RES1   0.0000
    75 H33      7.2949  10.2325   8.4282   H         1 RES1   0.0000
    76 C36      6.3446   9.8765  10.1456   C.ar      1 RES1   0.0000
    77 H34      5.5622  10.3280   9.9233   H         1 RES1   0.0000
    78 C37      6.4632   9.2725  11.3660   C.ar      1 RES1   0.0000
    79 H35      5.7621   9.3264  11.9748   H         1 RES1   0.0000
    80 C38      7.6019   8.5881  11.7029   C.ar      1 RES1   0.0000
    81 H36      7.6620   8.1752  12.5340   H         1 RES1   0.0000
    82 C39     10.5852   7.9057  12.8738   C.ar      1 RES1   0.0000
    83 C40     10.7960   9.2206  13.1952   C.ar      1 RES1   0.0000
    84 H37     10.6502   9.8836  12.5595   H         1 RES1   0.0000
    85 C41     11.2310   9.5653  14.4722   C.ar      1 RES1   0.0000
    86 H38     11.3757  10.4602  14.6803   H         1 RES1   0.0000
    87 C42     11.4451   8.6277  15.4095   C.ar      1 RES1   0.0000
    88 H39     11.7208   8.8748  16.2632   H         1 RES1   0.0000
    89 C43     11.2572   7.3118  15.1036   C.ar      1 RES1   0.0000
    90 H40     11.4198   6.6549  15.7422   H         1 RES1   0.0000
    91 C44     10.8218   6.9630  13.8337   C.ar      1 RES1   0.0000
    92 H41     10.6880   6.0650  13.6312   H         1 RES1   0.0000
    93 H42     10.9793   3.5491   9.1460   H         1 RES1   0.0000
    94 F1      13.0756   0.8481  10.9228   F         2 RES2   0.0000
    95 F2      13.8524   0.3051   8.8968   F         2 RES2   0.0000
    96 F3      11.8775   1.0139   9.2522   F         2 RES2   0.0000
    97 F4      13.5969   2.3837   9.4801   F         2 RES2   0.0000
    98 B1      13.1653   1.1471   9.6175   B         2 RES2  -1.0000
@<TRIPOS>BOND
     1     1     2    1
     2     2     9    1
     3     3     1    1
     4     4     1    1
     5     5     1    1
     6     6     1    1
     7     7     8    3
     8     8     1    1
     9     9    10    1
    10    11     9    1
    11    12     5    1
    12    13    12    1
    13    14    12    1
    14    15     5    1
    15    16    15    1
    16    17     6    1
    17    18    17    1
    18    19     6    2
    19    20     3    1
    20    21    20    1
    21    22    20    1
    22    23    19    1
    23    24    23    1
    24    25    23    1
    25    26    23    1
    26    27    15    1
    27    28    27   ar
    28    29    28    1
    29    30    28   ar
    30    31    30    1
    31    32    30   ar
    32    33    32    1
    33    34    32   ar
    34    35    34    1
    35    36    27   ar
    36    37    36    1
    37    38    17    1
    38    39    38   ar
    39    40    39    1
    40    41    39   ar
    41    42    41    1
    42    43    41   ar
    43    44    43    1
    44    45    43   ar
    45    46    45    1
    46    47    38   ar
    47    48    47    1
    48    49     2    1
    49    50    49   ar
    50    51    50    1
    51    52    50   ar
    52    53    52    1
    53    54    52   ar
    54    55    54    1
    55    56    54   ar
    56    57    56    1
    57    58    49   ar
    58    59    58    1
    59    60     2    1
    60    61    60   ar
    61    62    61    1
    62    63    61   ar
    63    64    63    1
    64    65    63   ar
    65    66    65    1
    66    67    65   ar
    67    68    67    1
    68    69    60   ar
    69    70    69    1
    70    71     3    1
    71    72    71   ar
    72    73    72    1
    73    74    72   ar
    74    75    74    1
    75    76    74   ar
    76    77    76    1
    77    78    76   ar
    78    79    78    1
    79    80    71   ar
    80    81    80    1
    81    82     3    1
    82    83    82   ar
    83    84    83    1
    84    85    83   ar
    85    86    85    1
    86    87    85   ar
    87    88    87    1
    88    89    87   ar
    89    90    89    1
    90    91    82   ar
    91    92    91    1
    92    93     5    1
    93     9    12    1
    94    15    17    1
    95    19    20    1
    96    34    36   ar
    97    45    47   ar
    98    56    58   ar
    99    67    69   ar
   100    78    80   ar
   101    89    91   ar
   102    94    98    1
   103    95    98    1
   104    96    98    1
   105    97    98    1
@<TRIPOS>SUBSTRUCTURE
     1 RES1        1 GROUP             0 ****  ****    0  
     2 RES2       94 GROUP             0 ****  ****    0  
@<TRIPOS>CRYSIN
   14.0962   10.1694   14.1863   90.0000   93.6260   90.0000     4     1
