@<TRIPOS>MOLECULE
IJIYEG
   125   134     1     0     0
SMALL
NO_CHARGES
****
Generated from the CSD

@<TRIPOS>ATOM
     1 Fe1      0.0000   7.1903   7.9955   Fe        1 RES1   0.0000
     2 S1      -5.1979   7.5275  12.9335   S.3       1 RES1   0.0000
     3 S2       0.7304   8.5893  12.2856   S.3       1 RES1   0.0000
     4 N1       1.4052   5.8407   7.2103   N.ar      1 RES1   0.0000
     5 O1       1.6236   8.9731   8.0588   O.co2     1 RES1   0.0000
     6 O2       0.8979   7.7658   9.7344   O.co2     1 RES1   0.0000
     7 O3      -6.1048   5.6808  11.0715   O.2       1 RES1   0.0000
     8 O4      -7.6824   6.1500   9.5642   O.3       1 RES1   0.0000
     9 C1       1.5698   8.7447   9.2882   C.2       1 RES1   0.0000
    10 C2       2.3284   9.5878  10.2630   C.ar      1 RES1   0.0000
    11 C3       3.3503  10.3856   9.7663   C.ar      1 RES1   0.0000
    12 H1       3.5316  10.3836   8.8526   H         1 RES1   0.0000
    13 C4       4.0990  11.1785  10.6040   C.ar      1 RES1   0.0000
    14 H2       4.7903  11.6998  10.2630   H         1 RES1   0.0000
    15 C5       3.8199  11.1911  11.9392   C.ar      1 RES1   0.0000
    16 H3       4.3249  11.7268  12.5082   H         1 RES1   0.0000
    17 C6       2.8037  10.4231  12.4583   C.ar      1 RES1   0.0000
    18 H4       2.6245  10.4598  13.3685   H         1 RES1   0.0000
    19 C7       2.0388   9.5936  11.6450   C.ar      1 RES1   0.0000
    20 C8       0.3479   9.3633  13.8850   C.3       1 RES1   0.0000
    21 H5       1.1177   9.3209  14.4719   H         1 RES1   0.0000
    22 H6       0.1053  10.2940  13.7587   H         1 RES1   0.0000
    23 C9      -0.8120   8.5906  14.4814   C.ar      1 RES1   0.0000
    24 C10     -0.6306   7.5808  15.4204   C.ar      1 RES1   0.0000
    25 C11      0.7520   7.1395  15.8532   C.3       1 RES1   0.0000
    26 H7       0.6846   6.3244  16.3556   H         1 RES1   0.0000
    27 H8       1.1483   7.8217  16.4004   H         1 RES1   0.0000
    28 H9       1.2978   6.9940  15.0763   H         1 RES1   0.0000
    29 C12     -1.7427   6.9883  15.9894   C.ar      1 RES1   0.0000
    30 H10     -1.6138   6.3340  16.6370   H         1 RES1   0.0000
    31 C13     -3.0481   7.3236  15.6373   C.ar      1 RES1   0.0000
    32 C14     -4.2050   6.6771  16.3505   C.3       1 RES1   0.0000
    33 H11     -3.8832   5.9525  16.8929   H         1 RES1   0.0000
    34 H12     -4.8311   6.3398  15.7064   H         1 RES1   0.0000
    35 H13     -4.6391   7.3255  16.9089   H         1 RES1   0.0000
    36 C15     -3.2333   8.2928  14.6369   C.ar      1 RES1   0.0000
    37 C16     -2.1100   8.8979  14.0826   C.ar      1 RES1   0.0000
    38 H14     -2.2321   9.5348  13.4164   H         1 RES1   0.0000
    39 C17     -4.6038   8.7226  14.1760   C.3       1 RES1   0.0000
    40 H15     -4.5593   9.6109  13.7874   H         1 RES1   0.0000
    41 H16     -5.2133   8.7486  14.9292   H         1 RES1   0.0000
    42 C18     -6.8041   8.1445  12.4947   C.ar      1 RES1   0.0000
    43 C19     -7.3453   9.2785  13.1001   C.ar      1 RES1   0.0000
    44 H17     -6.8560   9.7227  13.7555   H         1 RES1   0.0000
    45 C20     -8.5864   9.7535  12.7506   C.ar      1 RES1   0.0000
    46 H18     -8.9182  10.5176  13.1638   H         1 RES1   0.0000
    47 C21     -9.3445   9.1128  11.7956   C.ar      1 RES1   0.0000
    48 H19    -10.1956   9.4221  11.5839   H         1 RES1   0.0000
    49 C22     -8.8283   8.0154  11.1643   C.ar      1 RES1   0.0000
    50 H20     -9.3327   7.5885  10.5093   H         1 RES1   0.0000
    51 C23     -7.5626   7.5230  11.4796   C.ar      1 RES1   0.0000
    52 C24     -7.0319   6.3630  10.7117   C.2       1 RES1   0.0000
    53 C25      2.0860   6.1625   6.1044   C.ar      1 RES1   0.0000
    54 H21      1.8074   6.8987   5.6096   H         1 RES1   0.0000
    55 C26      3.1652   5.4621   5.6730   C.ar      1 RES1   0.0000
    56 H22      3.6199   5.7299   4.9060   H         1 RES1   0.0000
    57 C27      3.5775   4.3733   6.3580   C.ar      1 RES1   0.0000
    58 H23      4.3232   3.8935   6.0798   H         1 RES1   0.0000
    59 C28      2.8776   3.9860   7.4716   C.ar      1 RES1   0.0000
    60 H24      3.1256   3.2277   7.9507   H         1 RES1   0.0000
    61 C29      1.7938   4.7549   7.8650   C.ar      1 RES1   0.0000
    62 H25      1.3182   4.4976   8.6223   H         1 RES1   0.0000
    63 H26     -7.2704   5.4052   9.1213   H         1 RES1   0.0000
    64 S1C      5.1979   7.5275   3.0575   S.3       1 RES1   0.0000
    65 S2C     -0.7304   8.5893   3.7054   S.3       1 RES1   0.0000
    66 N1C     -1.4052   5.8407   8.7807   N.ar      1 RES1   0.0000
    67 O1C     -1.6236   8.9731   7.9322   O.co2     1 RES1   0.0000
    68 O2C     -0.8979   7.7658   6.2566   O.co2     1 RES1   0.0000
    69 O3C      6.1048   5.6808   4.9195   O.2       1 RES1   0.0000
    70 O4C      7.6824   6.1500   6.4268   O.3       1 RES1   0.0000
    71 C1C     -1.5698   8.7447   6.7028   C.2       1 RES1   0.0000
    72 C2C     -2.3284   9.5878   5.7280   C.ar      1 RES1   0.0000
    73 C3C     -3.3503  10.3856   6.2247   C.ar      1 RES1   0.0000
    74 H1C     -3.5316  10.3836   7.1384   H         1 RES1   0.0000
    75 C4C     -4.0990  11.1785   5.3870   C.ar      1 RES1   0.0000
    76 H2C     -4.7903  11.6998   5.7280   H         1 RES1   0.0000
    77 C5C     -3.8199  11.1911   4.0518   C.ar      1 RES1   0.0000
    78 H3C     -4.3249  11.7268   3.4828   H         1 RES1   0.0000
    79 C6C     -2.8037  10.4231   3.5327   C.ar      1 RES1   0.0000
    80 H4C     -2.6245  10.4598   2.6225   H         1 RES1   0.0000
    81 C7C     -2.0388   9.5936   4.3460   C.ar      1 RES1   0.0000
    82 C8C     -0.3479   9.3633   2.1060   C.3       1 RES1   0.0000
    83 H5C     -1.1177   9.3209   1.5191   H         1 RES1   0.0000
    84 H6C     -0.1053  10.2940   2.2323   H         1 RES1   0.0000
    85 C9C      0.8120   8.5906   1.5096   C.ar      1 RES1   0.0000
    86 C10C     0.6306   7.5808   0.5706   C.ar      1 RES1   0.0000
    87 C11C    -0.7520   7.1395   0.1378   C.3       1 RES1   0.0000
    88 H7C     -0.6846   6.3244  -0.3646   H         1 RES1   0.0000
    89 H8C     -1.1483   7.8217  -0.4094   H         1 RES1   0.0000
    90 H9C     -1.2978   6.9940   0.9147   H         1 RES1   0.0000
    91 C12C     1.7427   6.9883   0.0016   C.ar      1 RES1   0.0000
    92 H10C     1.6138   6.3340  -0.6460   H         1 RES1   0.0000
    93 C13C     3.0481   7.3236   0.3537   C.ar      1 RES1   0.0000
    94 C14C     4.2050   6.6771  -0.3595   C.3       1 RES1   0.0000
    95 H11C     3.8832   5.9525  -0.9019   H         1 RES1   0.0000
    96 H12C     4.8311   6.3398   0.2846   H         1 RES1   0.0000
    97 H13C     4.6391   7.3255  -0.9179   H         1 RES1   0.0000
    98 C15C     3.2333   8.2928   1.3541   C.ar      1 RES1   0.0000
    99 C16C     2.1100   8.8979   1.9084   C.ar      1 RES1   0.0000
   100 H14C     2.2321   9.5348   2.5746   H         1 RES1   0.0000
   101 C17C     4.6038   8.7226   1.8150   C.3       1 RES1   0.0000
   102 H15C     4.5593   9.6109   2.2036   H         1 RES1   0.0000
   103 H16C     5.2133   8.7486   1.0618   H         1 RES1   0.0000
   104 C18C     6.8041   8.1445   3.4963   C.ar      1 RES1   0.0000
   105 C19C     7.3453   9.2785   2.8909   C.ar      1 RES1   0.0000
   106 H17C     6.8560   9.7227   2.2355   H         1 RES1   0.0000
   107 C20C     8.5864   9.7535   3.2404   C.ar      1 RES1   0.0000
   108 H18C     8.9182  10.5176   2.8272   H         1 RES1   0.0000
   109 C21C     9.3445   9.1128   4.1954   C.ar      1 RES1   0.0000
   110 H19C    10.1956   9.4221   4.4071   H         1 RES1   0.0000
   111 C22C     8.8283   8.0154   4.8267   C.ar      1 RES1   0.0000
   112 H20C     9.3327   7.5885   5.4817   H         1 RES1   0.0000
   113 C23C     7.5626   7.5230   4.5114   C.ar      1 RES1   0.0000
   114 C24C     7.0319   6.3630   5.2793   C.2       1 RES1   0.0000
   115 C25C    -2.0860   6.1625   9.8866   C.ar      1 RES1   0.0000
   116 H21C    -1.8074   6.8987  10.3814   H         1 RES1   0.0000
   117 C26C    -3.1652   5.4621  10.3180   C.ar      1 RES1   0.0000
   118 H22C    -3.6199   5.7299  11.0850   H         1 RES1   0.0000
   119 C27C    -3.5775   4.3733   9.6330   C.ar      1 RES1   0.0000
   120 H23C    -4.3232   3.8935   9.9112   H         1 RES1   0.0000
   121 C28C    -2.8776   3.9860   8.5194   C.ar      1 RES1   0.0000
   122 H24C    -3.1256   3.2277   8.0403   H         1 RES1   0.0000
   123 C29C    -1.7938   4.7549   8.1260   C.ar      1 RES1   0.0000
   124 H25C    -1.3182   4.4976   7.3687   H         1 RES1   0.0000
   125 H26C     7.2704   5.4052   6.8697   H         1 RES1   0.0000
@<TRIPOS>BOND
     1     1     4    1
     2     2    39    1
     3     3    19    1
     4     4    53   ar
     5     5     1    1
     6     6     1    1
     7     7    52    2
     8     8    52    1
     9     9     5   un
    10    10     9    1
    11    11    10   ar
    12    12    11    1
    13    13    11   ar
    14    14    13    1
    15    15    13   ar
    16    16    15    1
    17    17    15   ar
    18    18    17    1
    19    19    10   ar
    20    20     3    1
    21    21    20    1
    22    22    20    1
    23    23    20    1
    24    24    23   ar
    25    25    24    1
    26    26    25    1
    27    27    25    1
    28    28    25    1
    29    29    24   ar
    30    30    29    1
    31    31    29   ar
    32    32    31    1
    33    33    32    1
    34    34    32    1
    35    35    32    1
    36    36    31   ar
    37    37    23   ar
    38    38    37    1
    39    39    36    1
    40    40    39    1
    41    41    39    1
    42    42     2    1
    43    43    42   ar
    44    44    43    1
    45    45    43   ar
    46    46    45    1
    47    47    45   ar
    48    48    47    1
    49    49    47   ar
    50    50    49    1
    51    51    42   ar
    52    52    51    1
    53    53    54    1
    54    55    53   ar
    55    56    55    1
    56    57    55   ar
    57    58    57    1
    58    59    57   ar
    59    60    59    1
    60    61     4   ar
    61    62    61    1
    62    63     8    1
    63    64   101    1
    64    65    81    1
    65    66     1    1
    66    67     1    1
    67    68     1    1
    68    69   114    2
    69    70   114    1
    70    71    67   un
    71    72    71    1
    72    73    72   ar
    73    74    73    1
    74    75    73   ar
    75    76    75    1
    76    77    75   ar
    77    78    77    1
    78    79    77   ar
    79    80    79    1
    80    81    72   ar
    81    82    65    1
    82    83    82    1
    83    84    82    1
    84    85    82    1
    85    86    85   ar
    86    87    86    1
    87    88    87    1
    88    89    87    1
    89    90    87    1
    90    91    86   ar
    91    92    91    1
    92    93    91   ar
    93    94    93    1
    94    95    94    1
    95    96    94    1
    96    97    94    1
    97    98    93   ar
    98    99    85   ar
    99   100    99    1
   100   101    98    1
   101   102   101    1
   102   103   101    1
   103   104    64    1
   104   105   104   ar
   105   106   105    1
   106   107   105   ar
   107   108   107    1
   108   109   107   ar
   109   110   109    1
   110   111   109   ar
   111   112   111    1
   112   113   104   ar
   113   114   113    1
   114   115    66   ar
   115   116   115    1
   116   117   115   ar
   117   118   117    1
   118   119   117   ar
   119   120   119    1
   120   121   119   ar
   121   122   121    1
   122   123    66   ar
   123   124   123    1
   124   125    70    1
   125     6     9   un
   126    17    19   ar
   127    36    37   ar
   128    49    51   ar
   129    59    61   ar
   130    68    71   un
   131    79    81   ar
   132    98    99   ar
   133   111   113   ar
   134   121   123   ar
@<TRIPOS>SUBSTRUCTURE
     1 RES1        1 GROUP             0 ****  ****    0  
@<TRIPOS>CRYSIN
   16.9870    9.6350   31.9820   90.0000   90.0000   90.0000    60     1
