@<TRIPOS>MOLECULE
IKEHEO
    88    98     2     0     0
SMALL
USER_CHARGES
****
Generated from the CSD

@<TRIPOS>ATOM
     1 Fe1      4.3654   6.1326   7.1158   Fe        1 RES1   2.0000
     2 N1       3.1050   4.7194   6.4612   N.2       1 RES1   0.0000
     3 N2       1.7778   4.7747   6.8043   N.pl3     1 RES1   0.0000
     4 N3       2.9639   7.4397   6.5429   N.2       1 RES1   0.0000
     5 N4       1.6489   7.2142   6.8672   N.pl3     1 RES1   0.0000
     6 N5       3.6154   6.0660   8.9346   N.ar      1 RES1   0.0000
     7 N6       5.5919   7.5531   7.6934   N.2       1 RES1   0.0000
     8 N7       6.2957   7.3896   8.8543   N.pl3     1 RES1   0.0000
     9 N8       5.7024   4.7663   7.6725   N.2       1 RES1   0.0000
    10 N9       6.3681   4.8802   8.8673   N.pl3     1 RES1   0.0000
    11 N10      5.1886   6.2017   5.2155   N.3       1 RES1   0.0000
    12 C1       3.1788   3.8090   5.4786   C.2       1 RES1   0.0000
    13 H1       3.9848   3.5552   5.0444   H         1 RES1   0.0000
    14 C2       1.9323   3.2857   5.1767   C.2       1 RES1   0.0000
    15 H2       1.7195   2.6228   4.5303   H         1 RES1   0.0000
    16 C3       1.0739   3.9432   6.0239   C.2       1 RES1   0.0000
    17 H3       0.1314   3.8268   6.0524   H         1 RES1   0.0000
    18 C4       2.9569   8.4230   5.6368   C.2       1 RES1   0.0000
    19 H4       3.7366   8.7958   5.2424   H         1 RES1   0.0000
    20 C5       1.6554   8.8296   5.3469   C.2       1 RES1   0.0000
    21 H5       1.3775   9.5081   4.7428   H         1 RES1   0.0000
    22 C6       0.8703   8.0310   6.1292   C.2       1 RES1   0.0000
    23 H6      -0.0794   8.0484   6.1501   H         1 RES1   0.0000
    24 C7      -0.2279   5.8203   8.1566   C.ar      1 RES1   0.0000
    25 C8      -1.0843   6.8997   8.3857   C.ar      1 RES1   0.0000
    26 H7      -0.7661   7.7770   8.2073   H         1 RES1   0.0000
    27 C9      -2.3851   6.7472   8.8642   C.ar      1 RES1   0.0000
    28 H8      -2.9308   7.5141   8.9950   H         1 RES1   0.0000
    29 C10     -2.8910   5.4855   9.1520   C.ar      1 RES1   0.0000
    30 C11     -2.0480   4.3971   8.9801   C.ar      1 RES1   0.0000
    31 H9      -2.3596   3.5251   9.1922   H         1 RES1   0.0000
    32 C12     -0.7499   4.5651   8.5002   C.ar      1 RES1   0.0000
    33 H10     -0.1970   3.7988   8.4023   H         1 RES1   0.0000
    34 C13     -4.2944   5.2947   9.6648   C.3       1 RES1   0.0000
    35 H11     -4.8456   6.0610   9.3995   H         1 RES1   0.0000
    36 H12     -4.2787   5.2273  10.6423   H         1 RES1   0.0000
    37 H13     -4.6721   4.4742   9.2861   H         1 RES1   0.0000
    38 C14      2.2606   5.9721   9.0731   C.ar      1 RES1   0.0000
    39 C15      1.7110   5.8420  10.3531   C.ar      1 RES1   0.0000
    40 H14      0.7671   5.8173  10.4581   H         1 RES1   0.0000
    41 C16      2.5204   5.7493  11.4608   C.ar      1 RES1   0.0000
    42 H15      2.1464   5.6415  12.3273   H         1 RES1   0.0000
    43 C17      3.8838   5.8160  11.2873   C.ar      1 RES1   0.0000
    44 H16      4.4574   5.7117  12.0373   H         1 RES1   0.0000
    45 C18      4.4338   6.0341  10.0279   C.ar      1 RES1   0.0000
    46 C19      5.9706   8.7399   7.1959   C.2       1 RES1   0.0000
    47 H17      5.6321   9.1177   6.3925   H         1 RES1   0.0000
    48 C20      6.9219   9.3445   8.0073   C.2       1 RES1   0.0000
    49 H18      7.3534  10.1804   7.8744   H         1 RES1   0.0000
    50 C21      7.0996   8.4575   9.0510   C.2       1 RES1   0.0000
    51 H19      7.6897   8.5783   9.7857   H         1 RES1   0.0000
    52 C22      6.0208   3.5564   7.1895   C.2       1 RES1   0.0000
    53 H20      5.7055   3.2111   6.3625   H         1 RES1   0.0000
    54 C23      6.8676   2.8726   8.0478   C.2       1 RES1   0.0000
    55 H21      7.2388   2.0056   7.9339   H         1 RES1   0.0000
    56 C24      7.0479   3.7397   9.1056   C.2       1 RES1   0.0000
    57 H22      7.5688   3.5617   9.8797   H         1 RES1   0.0000
    58 C25      7.0133   6.3105  11.0348   C.ar      1 RES1   0.0000
    59 C26      8.3520   5.8873  11.0563   C.ar      1 RES1   0.0000
    60 H23      8.6797   5.3724  10.3282   H         1 RES1   0.0000
    61 C27      9.2119   6.1909  12.0959   C.ar      1 RES1   0.0000
    62 H24     10.1002   5.8547  12.0790   H         1 RES1   0.0000
    63 C28      8.8011   6.9783  13.1649   C.ar      1 RES1   0.0000
    64 C29      7.4876   7.4321  13.1640   C.ar      1 RES1   0.0000
    65 H25      7.1768   7.9732  13.8805   H         1 RES1   0.0000
    66 C30      6.6268   7.1042  12.1298   C.ar      1 RES1   0.0000
    67 H26      5.7350   7.4300  12.1614   H         1 RES1   0.0000
    68 C31      9.7330   7.3616  14.2769   C.3       1 RES1   0.0000
    69 H27     10.1007   6.5519  14.6887   H         1 RES1   0.0000
    70 H28      9.2428   7.8772  14.9508   H         1 RES1   0.0000
    71 H29     10.4641   7.9060  13.9171   H         1 RES1   0.0000
    72 B1       1.3278   5.9602   7.7452   B         1 RES1  -1.0000
    73 B2       6.0397   6.1356   9.7553   B         1 RES1  -1.0000
    74 H30      4.5747   6.1459   4.5353   H         1 RES1   0.0000
    75 H31      5.7869   5.5291   5.0015   H         1 RES1   0.0000
    76 H32      5.7010   6.9350   5.0651   H         1 RES1   0.0000
    77 C32     -1.0852   7.5570  12.1470   C.ar      2 RES2   0.0000
    78 H33     -1.6314   7.7581  11.3965   H         2 RES2   0.0000
    79 C33     -0.1499   8.4840  12.5932   C.ar      2 RES2   0.0000
    80 H34     -0.0580   9.3185  12.1483   H         2 RES2   0.0000
    81 C34      0.6490   8.1911  13.6929   C.ar      2 RES2   0.0000
    82 H35      1.2886   8.8245  13.9971   H         2 RES2   0.0000
    83 C35      0.5148   6.9712  14.3435   C.ar      2 RES2   0.0000
    84 H36      1.0619   6.7701  15.0941   H         2 RES2   0.0000
    85 C36     -0.4190   6.0442  13.8977   C.ar      2 RES2   0.0000
    86 H37     -0.5115   5.2097  14.3423   H         2 RES2   0.0000
    87 C37     -1.2195   6.3372  12.7981   C.ar      2 RES2   0.0000
    88 H38     -1.8581   5.7037  12.4935   H         2 RES2   0.0000
@<TRIPOS>BOND
     1     1     2    1
     2     2     3    1
     3     3    16    1
     4     4     1    1
     5     5     4    1
     6     6     1    1
     7     7     1    1
     8     8     7    1
     9     9     1    1
    10    10     9    1
    11    11     1    1
    12    12     2    2
    13    13    12    1
    14    14    12    1
    15    15    14    1
    16    16    14    2
    17    17    16    1
    18    18     4    2
    19    19    18    1
    20    20    18    1
    21    21    20    1
    22    22     5    1
    23    23    22    1
    24    24    25   ar
    25    25    26    1
    26    27    25   ar
    27    28    27    1
    28    29    27   ar
    29    30    29   ar
    30    31    30    1
    31    32    24   ar
    32    33    32    1
    33    34    29    1
    34    35    34    1
    35    36    34    1
    36    37    34    1
    37    38     6   ar
    38    39    38   ar
    39    40    39    1
    40    41    39   ar
    41    42    41    1
    42    43    41   ar
    43    44    43    1
    44    45     6   ar
    45    46     7    2
    46    47    46    1
    47    48    46    1
    48    49    48    1
    49    50     8    1
    50    51    50    1
    51    52     9    2
    52    53    52    1
    53    54    52    1
    54    55    54    1
    55    56    10    1
    56    57    56    1
    57    58    59   ar
    58    59    60    1
    59    61    59   ar
    60    62    61    1
    61    63    61   ar
    62    64    63   ar
    63    65    64    1
    64    66    58   ar
    65    67    66    1
    66    68    63    1
    67    69    68    1
    68    70    68    1
    69    71    68    1
    70    72     3    1
    71    73     8    1
    72    74    11    1
    73    75    11    1
    74    76    11    1
    75     5    72    1
    76    10    73    1
    77    20    22    2
    78    24    72    1
    79    30    32   ar
    80    38    72    1
    81    43    45   ar
    82    45    73    1
    83    48    50    2
    84    54    56    2
    85    58    73    1
    86    64    66   ar
    87    77    78    1
    88    79    77   ar
    89    80    79    1
    90    81    79   ar
    91    82    81    1
    92    83    81   ar
    93    84    83    1
    94    85    83   ar
    95    86    85    1
    96    87    77   ar
    97    88    87    1
    98    85    87   ar
@<TRIPOS>SUBSTRUCTURE
     1 RES1        1 GROUP             0 ****  ****    0  
     2 RES2       77 GROUP             0 ****  ****    0  
@<TRIPOS>CRYSIN
   16.6461   17.2299   24.1320   90.0000  102.6360   90.0000    15     1
