@<TRIPOS>MOLECULE
IKEHUE
   109   119     4     0     0
SMALL
USER_CHARGES
****
Generated from the CSD

@<TRIPOS>ATOM
     1 Br1     -0.3373   2.8491   9.0436   Br        1 RES1   0.0000
     2 Fe1     -0.0449   2.8079  11.4809   Fe        1 RES1   2.0000
     3 N1       0.1069   2.8192  13.6896   N.ar      1 RES1   0.0000
     4 N2       1.1769   0.2705  12.4705   N.pl3     1 RES1   0.0000
     5 N3       1.3387   1.2634  11.5441   N.2       1 RES1   0.0000
     6 N4      -1.3451   0.3096  12.6590   N.pl3     1 RES1   0.0000
     7 N5      -1.4650   1.2857  11.7071   N.2       1 RES1   0.0000
     8 N6       1.3845   5.2588  12.4176   N.pl3     1 RES1   0.0000
     9 N7       1.4462   4.2393  11.5200   N.2       1 RES1   0.0000
    10 N8      -1.1439   5.3984  12.6701   N.pl3     1 RES1   0.0000
    11 N9      -1.3810   4.4210  11.7316   N.2       1 RES1   0.0000
    12 C1      -0.0476   1.6386  14.3575   C.ar      1 RES1   0.0000
    13 C2      -0.3292   1.6651  15.7138   C.ar      1 RES1   0.0000
    14 H1      -0.4644   0.8488  16.1811   H         1 RES1   0.0000
    15 C3      -0.4144   2.8647  16.3973   C.ar      1 RES1   0.0000
    16 H2      -0.6243   2.8822  17.3233   H         1 RES1   0.0000
    17 C4      -0.1908   4.0349  15.7050   C.ar      1 RES1   0.0000
    18 H3      -0.2260   4.8653  16.1653   H         1 RES1   0.0000
    19 C5       0.0871   4.0144  14.3434   C.ar      1 RES1   0.0000
    20 C6       2.3860   0.9199  10.7941   C.2       1 RES1   0.0000
    21 H4       2.7200   1.4342  10.0683   H         1 RES1   0.0000
    22 C7       2.9211  -0.2791  11.2081   C.2       1 RES1   0.0000
    23 H5       3.6677  -0.7404  10.8433   H         1 RES1   0.0000
    24 C8       2.1344  -0.6602  12.2667   C.2       1 RES1   0.0000
    25 H6       2.2465  -1.4535  12.7774   H         1 RES1   0.0000
    26 C9      -2.6835   1.1279  11.1552   C.2       1 RES1   0.0000
    27 H7      -3.0284   1.6587  10.4470   H         1 RES1   0.0000
    28 C10     -3.3587   0.0953  11.7576   C.2       1 RES1   0.0000
    29 H8      -4.2355  -0.2136  11.5605   H         1 RES1   0.0000
    30 C11     -2.4906  -0.3992  12.7141   C.2       1 RES1   0.0000
    31 H9      -2.6703  -1.1180  13.3090   H         1 RES1   0.0000
    32 C12      0.1836  -1.0973  14.3681   C.ar      1 RES1   0.0000
    33 C13     -0.3738  -2.3424  14.0598   C.ar      1 RES1   0.0000
    34 H10     -0.9764  -2.4103  13.3284   H         1 RES1   0.0000
    35 C14     -0.0719  -3.4836  14.7961   C.ar      1 RES1   0.0000
    36 H11     -0.4954  -4.3040  14.5707   H         1 RES1   0.0000
    37 C15      0.8263  -3.4577  15.8424   C.ar      1 RES1   0.0000
    38 C16      1.4312  -2.2441  16.1190   C.ar      1 RES1   0.0000
    39 H12      2.0809  -2.1973  16.8103   H         1 RES1   0.0000
    40 C17      1.1155  -1.1002  15.4144   C.ar      1 RES1   0.0000
    41 H13      1.5456  -0.2861  15.6488   H         1 RES1   0.0000
    42 C18      1.1678  -4.7084  16.6227   C.3       1 RES1   0.0000
    43 H14      0.7233  -4.6802  17.4959   H         1 RES1   0.0000
    44 H15      2.1383  -4.7579  16.7524   H         1 RES1   0.0000
    45 H16      0.8639  -5.4969  16.1269   H         1 RES1   0.0000
    46 C19      2.5157   4.4672  10.7518   C.2       1 RES1   0.0000
    47 H17      2.7964   3.9073  10.0371   H         1 RES1   0.0000
    48 C20      3.1535   5.6227  11.1341   C.2       1 RES1   0.0000
    49 H18      3.9344   6.0081  10.7549   H         1 RES1   0.0000
    50 C21      2.4063   6.0963  12.1945   C.2       1 RES1   0.0000
    51 H19      2.5880   6.8884  12.6864   H         1 RES1   0.0000
    52 C22     -2.6471   4.5775  11.3331   C.2       1 RES1   0.0000
    53 H20     -3.0755   4.0507  10.6690   H         1 RES1   0.0000
    54 C23     -3.2455   5.6178  12.0236   C.2       1 RES1   0.0000
    55 H21     -4.1381   5.9319  11.9360   H         1 RES1   0.0000
    56 C24     -2.2709   6.0978  12.8656   C.2       1 RES1   0.0000
    57 H22     -2.3777   6.8093  13.4854   H         1 RES1   0.0000
    58 C25      0.5136   6.7346  14.2853   C.ar      1 RES1   0.0000
    59 C26      0.0652   7.9932  13.8943   C.ar      1 RES1   0.0000
    60 H23     -0.5506   8.0581  13.1741   H         1 RES1   0.0000
    61 C27      0.4875   9.1588  14.5249   C.ar      1 RES1   0.0000
    62 H24      0.1324   9.9945  14.2449   H         1 RES1   0.0000
    63 C28      1.4167   9.1240  15.5518   C.ar      1 RES1   0.0000
    64 C29      1.8966   7.8789  15.9234   C.ar      1 RES1   0.0000
    65 H25      2.5449   7.8196  16.6154   H         1 RES1   0.0000
    66 C30      1.4548   6.7192  15.3140   C.ar      1 RES1   0.0000
    67 H26      1.8032   5.8850  15.6046   H         1 RES1   0.0000
    68 C31      1.9116  10.3804  16.2158   C.3       1 RES1   0.0000
    69 H27      1.8179  11.1198  15.6094   H         1 RES1   0.0000
    70 H28      2.8357  10.2758  16.4517   H         1 RES1   0.0000
    71 H29      1.3953  10.5495  17.0071   H         1 RES1   0.0000
    72 B1      -0.0099   0.2490  13.5120   B         1 RES1  -1.0000
    73 B2       0.2088   5.3739  13.4768   B         1 RES1  -1.0000
    74 C32      6.1161   2.8271  14.2166   C.ar      2 RES2   0.0000
    75 H30      6.9711   2.8568  13.8038   H         2 RES2   0.0000
    76 C33      6.0077   2.8649  15.5870   C.ar      2 RES2   0.0000
    77 H31      6.7885   2.9296  16.1251   H         2 RES2   0.0000
    78 C34      4.7731   2.8080  16.1753   C.ar      2 RES2   0.0000
    79 H32      4.6994   2.8270  17.1217   H         2 RES2   0.0000
    80 C35      3.6377   2.7234  15.4038   C.ar      2 RES2   0.0000
    81 H33      2.7817   2.6874  15.8143   H         2 RES2   0.0000
    82 C36      3.7525   2.6918  14.0352   C.ar      2 RES2   0.0000
    83 H34      2.9736   2.6313  13.4935   H         2 RES2   0.0000
    84 C37      4.9879   2.7476  13.4504   C.ar      2 RES2   0.0000
    85 H35      5.0618   2.7309  12.5043   H         2 RES2   0.0000
    86 C38     -0.8816   7.4275   8.9041   C.ar      3 RES3   0.0000
    87 H36     -1.5079   6.7160   8.9654   H         3 RES3   0.0000
    88 C39      0.2867   7.3728   9.6298   C.ar      3 RES3   0.0000
    89 H37      0.4613   6.6351  10.2023   H         3 RES3   0.0000
    90 C40      1.2010   8.4017   9.5188   C.ar      3 RES3   0.0000
    91 H38      2.0165   8.3649  10.0053   H         3 RES3   0.0000
    92 C38A     0.9343   9.4747   8.7103   C.ar      3 RES3   0.0000
    93 H36A     1.5606  10.1861   8.6490   H         3 RES3   0.0000
    94 C39A    -0.2340   9.5294   7.9846   C.ar      3 RES3   0.0000
    95 H37A    -0.4086  10.2671   7.4121   H         3 RES3   0.0000
    96 C40A    -1.1483   8.5004   8.0956   C.ar      3 RES3   0.0000
    97 H38A    -1.9638   8.5372   7.6091   H         3 RES3   0.0000
    98 C41     -4.2757   8.2814   9.8887   C.ar      4 RES4   0.0000
    99 H39     -3.7057   8.1617  10.6381   H         4 RES4   0.0000
   100 C42     -4.4745   7.2443   9.0168   C.ar      4 RES4   0.0000
   101 H40     -4.0401   6.4121   9.1650   H         4 RES4   0.0000
   102 C43     -5.3057   7.4021   7.9230   C.ar      4 RES4   0.0000
   103 H41     -5.4497   6.6851   7.3171   H         4 RES4   0.0000
   104 C41A    -5.9236   8.6207   7.7257   C.ar      4 RES4   0.0000
   105 H39A    -6.4935   8.7405   6.9763   H         4 RES4   0.0000
   106 C42A    -5.7247   9.6578   8.5976   C.ar      4 RES4   0.0000
   107 H40A    -6.1592  10.4901   8.4494   H         4 RES4   0.0000
   108 C43A    -4.8936   9.5001   9.6915   C.ar      4 RES4   0.0000
   109 H41A    -4.7496  10.2171  10.2973   H         4 RES4   0.0000
@<TRIPOS>BOND
     1     1     2    1
     2     2     3    1
     3     3    12   ar
     4     4     5    1
     5     5     2    1
     6     6     7    1
     7     7     2    1
     8     8     9    1
     9     9     2    1
    10    10    11    1
    11    11     2    1
    12    12    13   ar
    13    13    14    1
    14    15    13   ar
    15    16    15    1
    16    17    15   ar
    17    18    17    1
    18    19     3   ar
    19    20     5    2
    20    21    20    1
    21    22    20    1
    22    23    22    1
    23    24     4    1
    24    25    24    1
    25    26     7    2
    26    27    26    1
    27    28    26    1
    28    29    28    1
    29    30     6    1
    30    31    30    1
    31    32    33   ar
    32    33    34    1
    33    35    33   ar
    34    36    35    1
    35    37    35   ar
    36    38    37   ar
    37    39    38    1
    38    40    32   ar
    39    41    40    1
    40    42    37    1
    41    43    42    1
    42    44    42    1
    43    45    42    1
    44    46     9    2
    45    47    46    1
    46    48    46    1
    47    49    48    1
    48    50     8    1
    49    51    50    1
    50    52    11    2
    51    53    52    1
    52    54    52    1
    53    55    54    1
    54    56    10    1
    55    57    56    1
    56    58    59   ar
    57    59    60    1
    58    61    59   ar
    59    62    61    1
    60    63    61   ar
    61    64    63   ar
    62    65    64    1
    63    66    58   ar
    64    67    66    1
    65    68    63    1
    66    69    68    1
    67    70    68    1
    68    71    68    1
    69    72     4    1
    70    73     8    1
    71     6    72    1
    72    10    73    1
    73    12    72    1
    74    17    19   ar
    75    19    73    1
    76    22    24    2
    77    28    30    2
    78    32    72    1
    79    38    40   ar
    80    48    50    2
    81    54    56    2
    82    58    73    1
    83    64    66   ar
    84    74    75    1
    85    76    74   ar
    86    77    76    1
    87    78    76   ar
    88    79    78    1
    89    80    78   ar
    90    81    80    1
    91    82    80   ar
    92    83    82    1
    93    84    74   ar
    94    85    84    1
    95    82    84   ar
    96    86    87    1
    97    88    86   ar
    98    89    88    1
    99    90    88   ar
   100    91    90    1
   101    92    90   ar
   102    93    92    1
   103    94    92   ar
   104    95    94    1
   105    96    86   ar
   106    97    96    1
   107    94    96   ar
   108    98    99    1
   109   100    98   ar
   110   101   100    1
   111   102   100   ar
   112   103   102    1
   113   104   102   ar
   114   105   104    1
   115   106   104   ar
   116   107   106    1
   117   108    98   ar
   118   109   108    1
   119   106   108   ar
@<TRIPOS>SUBSTRUCTURE
     1 RES1        1 GROUP             0 ****  ****    0  
     2 RES2       74 GROUP             0 ****  ****    0  
     3 RES3       86 GROUP             0 ****  ****    0  
     4 RES4       98 GROUP             0 ****  ****    0  
@<TRIPOS>CRYSIN
   10.2520   12.0250   18.4000  104.1920   92.6180  112.9010     2     1
