@<TRIPOS>MOLECULE
IKEHOY
    95   104     3     0     0
SMALL
USER_CHARGES
****
Generated from the CSD

@<TRIPOS>ATOM
     1 Sb1      5.6356  12.4741   8.3594   Sb        1 RES1   0.0000
     2 F1       4.9599  13.2039   9.9487   F         1 RES1  -1.0000
     3 F2       4.3192  13.4382   7.4668   F         1 RES1   0.0000
     4 F3       6.7491  13.9229   8.1857   F         1 RES1   0.0000
     5 F4       4.4874  11.0367   8.5505   F         1 RES1   0.0000
     6 F5       6.9371  11.5319   9.2786   F         1 RES1   0.0000
     7 F6       6.2411  11.7448   6.7465   F         1 RES1   0.0000
     8 Fe1      1.4178  16.6645   9.1637   Fe        2 RES2   3.0000
     9 N1       1.9584  16.0545  10.9359   N.2       2 RES2   0.0000
    10 N2       1.1981  16.3824  12.0116   N.pl3     2 RES2   0.0000
    11 N3      -0.4305  16.0582   9.6223   N.2       2 RES2   0.0000
    12 N4      -0.9885  16.3806  10.8235   N.pl3     2 RES2   0.0000
    13 N5       0.9254  18.4764   9.8786   N.ar      2 RES2   0.0000
    14 N6       0.9386  17.2742   7.3307   N.2       2 RES2   0.0000
    15 N7       1.2831  18.5149   6.8761   N.pl3     2 RES2   0.0000
    16 N8       3.2170  17.2536   8.7328   N.2       2 RES2   0.0000
    17 N9       3.3966  18.4973   8.2082   N.pl3     2 RES2   0.0000
    18 N10      1.8022  14.8354   8.4236   N.3       2 RES2   0.0000
    19 H1       1.1811  14.6278   7.7915   H         2 RES2   0.0000
    20 H2       1.7664  14.2230   9.0961   H         2 RES2   0.0000
    21 H3       2.6309  14.8276   8.0495   H         2 RES2   0.0000
    22 C1       2.9604  15.2877  11.3826   C.2       2 RES2   0.0000
    23 H4       3.6362  14.9034  10.8365   H         2 RES2   0.0000
    24 C2       2.8685  15.1364  12.7543   C.2       2 RES2   0.0000
    25 H5       3.4575  14.6562  13.3245   H         2 RES2   0.0000
    26 C3       1.7300  15.8383  13.1151   C.2       2 RES2   0.0000
    27 H6       1.3836  15.9201  13.9961   H         2 RES2   0.0000
    28 C4      -1.3826  15.4454   8.9126   C.2       2 RES2   0.0000
    29 H7      -1.2604  15.0885   8.0402   H         2 RES2   0.0000
    30 C5      -2.5660  15.4024   9.6183   C.2       2 RES2   0.0000
    31 H8      -3.3942  15.0326   9.3363   H         2 RES2   0.0000
    32 C6      -2.2871  16.0107  10.8183   C.2       2 RES2   0.0000
    33 H9      -2.9048  16.1482  11.5261   H         2 RES2   0.0000
    34 C7      -0.7065  17.3900  13.3279   C.ar      2 RES2   0.0000
    35 C8      -1.5667  16.4969  13.9649   C.ar      2 RES2   0.0000
    36 H10     -1.9699  15.8013  13.4590   H         2 RES2   0.0000
    37 C9      -1.8503  16.5993  15.3261   C.ar      2 RES2   0.0000
    38 H11     -2.4653  15.9920  15.7189   H         2 RES2   0.0000
    39 C10     -1.2561  17.5631  16.1151   C.ar      2 RES2   0.0000
    40 C11     -0.3749  18.4550  15.5005   C.ar      2 RES2   0.0000
    41 H12      0.0535  19.1246  16.0203   H         2 RES2   0.0000
    42 C12     -0.1177  18.3750  14.1420   C.ar      2 RES2   0.0000
    43 H13      0.4746  19.0045  13.7475   H         2 RES2   0.0000
    44 C13     -1.5345  17.6361  17.6111   C.3       2 RES2   0.0000
    45 H14     -2.4928  17.5135  17.7707   H         2 RES2   0.0000
    46 H15     -1.2534  18.5093  17.9535   H         2 RES2   0.0000
    47 H16     -1.0336  16.9284  18.0698   H         2 RES2   0.0000
    48 C14      0.1671  18.5572  11.0033   C.ar      2 RES2   0.0000
    49 C15     -0.4631  19.7656  11.3046   C.ar      2 RES2   0.0000
    50 H17     -1.0122  19.8286  12.0781   H         2 RES2   0.0000
    51 C16     -0.3014  20.8651  10.4971   C.ar      2 RES2   0.0000
    52 H18     -0.7752  21.6696  10.6724   H         2 RES2   0.0000
    53 C17      0.5631  20.7778   9.4240   C.ar      2 RES2   0.0000
    54 H19      0.7245  21.5435   8.8849   H         2 RES2   0.0000
    55 C18      1.2023  19.5766   9.1240   C.ar      2 RES2   0.0000
    56 C19      2.7579  20.7594   7.2091   C.ar      2 RES2   0.0000
    57 C20      3.2200  21.7610   8.0813   C.ar      2 RES2   0.0000
    58 H20      3.1205  21.6323   9.0179   H         2 RES2   0.0000
    59 C21      3.8101  22.9217   7.6320   C.ar      2 RES2   0.0000
    60 H21      4.1120  23.5667   8.2602   H         2 RES2   0.0000
    61 C22      3.9710  23.1640   6.2774   C.ar      2 RES2   0.0000
    62 C23      3.5472  22.1833   5.3946   C.ar      2 RES2   0.0000
    63 H22      3.6504  22.3184   4.4603   H         2 RES2   0.0000
    64 C24      2.9756  21.0134   5.8532   C.ar      2 RES2   0.0000
    65 H23      2.7209  20.3530   5.2197   H         2 RES2   0.0000
    66 C25      4.6113  24.4397   5.7963   C.3       2 RES2   0.0000
    67 H24      4.9559  24.3103   4.8885   H         2 RES2   0.0000
    68 H25      5.3490  24.6803   6.3950   H         2 RES2   0.0000
    69 H26      3.9450  25.1584   5.7940   H         2 RES2   0.0000
    70 C26      0.2353  16.6957   6.3527   C.2       2 RES2   0.0000
    71 H27     -0.1046  15.8091   6.3801   H         2 RES2   0.0000
    72 C27      0.0756  17.5644   5.3008   C.2       2 RES2   0.0000
    73 H28     -0.3960  17.4068   4.4918   H         2 RES2   0.0000
    74 C28      0.7419  18.7130   5.6682   C.2       2 RES2   0.0000
    75 H29      0.8059  19.5085   5.1526   H         2 RES2   0.0000
    76 C29      4.4272  16.6730   8.7910   C.2       2 RES2   0.0000
    77 H30      4.5962  15.7935   9.1073   H         2 RES2   0.0000
    78 C30      5.3869  17.5445   8.3218   C.2       2 RES2   0.0000
    79 H31      6.3228  17.3910   8.2591   H         2 RES2   0.0000
    80 C31      4.7051  18.6818   7.9650   C.2       2 RES2   0.0000
    81 H32      5.0944  19.4700   7.6057   H         2 RES2   0.0000
    82 B1      -0.1275  17.2086  11.8425   B         2 RES2  -1.0000
    83 B2       2.1630  19.3967   7.8289   B         2 RES2  -1.0000
    84 C32     -0.7150  12.4897  11.0707   C.ar      3 RES3   0.0000
    85 H33     -1.3218  12.8334  11.7151   H         3 RES3   0.0000
    86 C33     -1.1865  11.9562   9.9183   C.ar      3 RES3   0.0000
    87 H34     -2.1208  11.9314   9.7495   H         3 RES3   0.0000
    88 C34     -0.2838  11.4353   8.9787   C.ar      3 RES3   0.0000
    89 H35     -0.5912  11.0525   8.1659   H         3 RES3   0.0000
    90 C35      1.0746  11.4982   9.2720   C.ar      3 RES3   0.0000
    91 H36      1.7031  11.1585   8.6474   H         3 RES3   0.0000
    92 C36      1.5133  12.0368  10.4310   C.ar      3 RES3   0.0000
    93 H37      2.4433  12.0563  10.6232   H         3 RES3   0.0000
    94 C37      0.6348  12.5426  11.3112   C.ar      3 RES3   0.0000
    95 H38      0.9531  12.9410  12.1120   H         3 RES3   0.0000
@<TRIPOS>BOND
     1     1     2    1
     2     3     1    1
     3     4     1    1
     4     5     1    1
     5     6     1    1
     6     7     1    1
     7     8     9    1
     8     9    10    1
     9    10    26    1
    10    11     8    1
    11    12    11    1
    12    13     8    1
    13    14     8    1
    14    15    14    1
    15    16     8    1
    16    17    16    1
    17    18     8    1
    18    19    18    1
    19    20    18    1
    20    21    18    1
    21    22     9    2
    22    23    22    1
    23    24    22    1
    24    25    24    1
    25    26    24    2
    26    27    26    1
    27    28    11    2
    28    29    28    1
    29    30    28    1
    30    31    30    1
    31    32    12    1
    32    33    32    1
    33    34    35   ar
    34    35    36    1
    35    37    35   ar
    36    38    37    1
    37    39    37   ar
    38    40    39   ar
    39    41    40    1
    40    42    34   ar
    41    43    42    1
    42    44    39    1
    43    45    44    1
    44    46    44    1
    45    47    44    1
    46    48    13   ar
    47    49    48   ar
    48    50    49    1
    49    51    49   ar
    50    52    51    1
    51    53    51   ar
    52    54    53    1
    53    55    13   ar
    54    56    57   ar
    55    57    58    1
    56    59    57   ar
    57    60    59    1
    58    61    59   ar
    59    62    61   ar
    60    63    62    1
    61    64    56   ar
    62    65    64    1
    63    66    61    1
    64    67    66    1
    65    68    66    1
    66    69    66    1
    67    70    14    2
    68    71    70    1
    69    72    70    1
    70    73    72    1
    71    74    15    1
    72    75    74    1
    73    76    16    2
    74    77    76    1
    75    78    76    1
    76    79    78    1
    77    80    17    1
    78    81    80    1
    79    82    10    1
    80    83    15    1
    81    12    82    1
    82    17    83    1
    83    30    32    2
    84    34    82    1
    85    40    42   ar
    86    48    82    1
    87    53    55   ar
    88    55    83    1
    89    56    83    1
    90    62    64   ar
    91    72    74    2
    92    78    80    2
    93    84    85    1
    94    86    84   ar
    95    87    86    1
    96    88    86   ar
    97    89    88    1
    98    90    88   ar
    99    91    90    1
   100    92    90   ar
   101    93    92    1
   102    94    84   ar
   103    95    94    1
   104    92    94   ar
@<TRIPOS>SUBSTRUCTURE
     1 RES1        1 GROUP             0 ****  ****    0  
     2 RES2        8 GROUP             0 ****  ****    0  
     3 RES3       84 GROUP             0 ****  ****    0  
@<TRIPOS>CRYSIN
   11.9800   25.1657   14.4893   90.0000  114.2040   90.0000   231     1
