@<TRIPOS>MOLECULE
IKODUK
    89    98     3     0     0
SMALL
USER_CHARGES
****
Generated from the CSD

@<TRIPOS>ATOM
     1 Fe1     10.8484   7.2511   5.1363   Fe        1 RES1   2.0000
     2 N1       9.3001   7.1808   3.7046   N.2       1 RES1   0.0000
     3 N2       7.8700   8.1980   2.3488   N.pl3     1 RES1   0.0000
     4 N3      10.7416   9.3375   4.2666   N.ar      1 RES1   0.0000
     5 N4       9.3005  10.7232   3.0012   N.ar      1 RES1   0.0000
     6 N5      12.1490   8.0554   6.6188   N.2       1 RES1   0.0000
     7 N6      12.4245   8.9963   8.6236   N.pl3     1 RES1   0.0000
     8 N7       9.5030   7.9897   6.7053   N.ar      1 RES1   0.0000
     9 N8       9.4841   9.1128   8.8000   N.ar      1 RES1   0.0000
    10 N9      11.0399   5.2548   5.8575   N.2       1 RES1   0.0000
    11 N10     12.2532   3.3767   5.9440   N.pl3     1 RES1   0.0000
    12 N11     12.3493   6.3616   3.8377   N.ar      1 RES1   0.0000
    13 N12     13.7487   4.4402   3.5971   N.ar      1 RES1   0.0000
    14 C1       8.3874   6.2463   3.2687   C.ar      1 RES1   0.0000
    15 C2       8.2730   4.8858   3.5582   C.ar      1 RES1   0.0000
    16 H1       8.8740   4.4520   4.1199   H         1 RES1   0.0000
    17 C3       7.2273   4.2225   2.9692   C.ar      1 RES1   0.0000
    18 H2       7.1214   3.3136   3.1353   H         1 RES1   0.0000
    19 C4       6.3190   4.8652   2.1267   C.ar      1 RES1   0.0000
    20 H3       5.6257   4.3725   1.7500   H         1 RES1   0.0000
    21 C5       6.4155   6.2051   1.8356   C.ar      1 RES1   0.0000
    22 H4       5.8015   6.6375   1.2877   H         1 RES1   0.0000
    23 C6       7.4874   6.8743   2.4144   C.ar      1 RES1   0.0000
    24 C7       8.9600   8.3318   3.1356   C.2       1 RES1   0.0000
    25 C8       7.1421   9.2275   1.5993   C.3       1 RES1   0.0000
    26 H5       6.5422   9.6908   2.1918   H         1 RES1   0.0000
    27 H6       6.6394   8.8157   0.8938   H         1 RES1   0.0000
    28 H7       7.7674   9.8526   1.2243   H         1 RES1   0.0000
    29 C9       9.7022   9.5496   3.4538   C.ar      1 RES1   0.0000
    30 C10      9.9841  11.7984   3.4298   C.ar      1 RES1   0.0000
    31 H8       9.7225  12.6411   3.1387   H         1 RES1   0.0000
    32 C11     11.0505  11.6925   4.2825   C.ar      1 RES1   0.0000
    33 H9      11.5060  12.4440   4.5873   H         1 RES1   0.0000
    34 C12     11.4169  10.4291   4.6627   C.ar      1 RES1   0.0000
    35 H10     12.1564  10.3217   5.2157   H         1 RES1   0.0000
    36 C13     13.5007   8.2906   6.7995   C.ar      1 RES1   0.0000
    37 C14     14.5820   8.0656   5.9594   C.ar      1 RES1   0.0000
    38 H11     14.4759   7.6582   5.1301   H         1 RES1   0.0000
    39 C15     15.8187   8.4715   6.4075   C.ar      1 RES1   0.0000
    40 H12     16.5636   8.3436   5.8630   H         1 RES1   0.0000
    41 C16     15.9814   9.0686   7.6524   C.ar      1 RES1   0.0000
    42 H13     16.8353   9.3260   7.9161   H         1 RES1   0.0000
    43 C17     14.9369   9.2922   8.5000   C.ar      1 RES1   0.0000
    44 H14     15.0577   9.6893   9.3322   H         1 RES1   0.0000
    45 C18     13.6747   8.8907   8.0515   C.ar      1 RES1   0.0000
    46 C19     11.5496   8.5039   7.7157   C.2       1 RES1   0.0000
    47 C20     12.1587   9.5363   9.9520   C.3       1 RES1   0.0000
    48 H15     11.6939  10.3717   9.8698   H         1 RES1   0.0000
    49 H16     12.9885   9.6746  10.4127   H         1 RES1   0.0000
    50 H17     11.6165   8.9157  10.4469   H         1 RES1   0.0000
    51 C21     10.0909   8.5348   7.7832   C.ar      1 RES1   0.0000
    52 C22      8.1438   9.1731   8.7226   C.ar      1 RES1   0.0000
    53 H18      7.6751   9.5834   9.4127   H         1 RES1   0.0000
    54 C23      7.4403   8.6524   7.6712   C.ar      1 RES1   0.0000
    55 H19      6.5122   8.7024   7.6353   H         1 RES1   0.0000
    56 C24      8.1643   8.0524   6.6700   C.ar      1 RES1   0.0000
    57 H20      7.7123   7.6788   5.9469   H         1 RES1   0.0000
    58 C25     10.5656   4.4696   6.9046   C.ar      1 RES1   0.0000
    59 C26      9.5700   4.7093   7.8395   C.ar      1 RES1   0.0000
    60 H21      9.0549   5.4830   7.8116   H         1 RES1   0.0000
    61 C27      9.3722   3.7504   8.8145   C.ar      1 RES1   0.0000
    62 H22      8.7233   3.8945   9.4657   H         1 RES1   0.0000
    63 C28     10.1207   2.5738   8.8476   C.ar      1 RES1   0.0000
    64 H23      9.9489   1.9458   9.5120   H         1 RES1   0.0000
    65 C29     11.1062   2.3179   7.9229   C.ar      1 RES1   0.0000
    66 H24     11.6025   1.5325   7.9401   H         1 RES1   0.0000
    67 C30     11.3195   3.2974   6.9603   C.ar      1 RES1   0.0000
    68 C31     12.0368   4.5608   5.3175   C.2       1 RES1   0.0000
    69 C32     13.2340   2.3208   5.6678   C.3       1 RES1   0.0000
    70 H25     13.6480   2.4826   4.8168   H         1 RES1   0.0000
    71 H26     12.7915   1.4693   5.6524   H         1 RES1   0.0000
    72 H27     13.9043   2.3194   6.3544   H         1 RES1   0.0000
    73 C33     12.7672   5.1314   4.1830   C.ar      1 RES1   0.0000
    74 C34     14.3137   5.0461   2.5342   C.ar      1 RES1   0.0000
    75 H28     14.9951   4.6005   2.0839   H         1 RES1   0.0000
    76 C35     13.9402   6.2683   2.0839   C.ar      1 RES1   0.0000
    77 H29     14.3439   6.6493   1.3373   H         1 RES1   0.0000
    78 C36     12.9458   6.9287   2.7697   C.ar      1 RES1   0.0000
    79 H30     12.6818   7.7759   2.4914   H         1 RES1   0.0000
    80 Cl1      4.4917   8.4486   4.9606   Cl        2 RES2   0.0000
    81 O1       4.4848   8.0200   6.2911   O.2       2 RES2   0.0000
    82 O2       5.7966   8.5362   4.5685   O.2       2 RES2   0.0000
    83 O3       3.8832   9.7467   5.0428   O.3       2 RES2  -1.0000
    84 O4       3.6339   7.6067   4.2483   O.2       2 RES2   0.0000
    85 Cl2     11.8772  12.8949   8.2560   Cl        3 RES3   0.0000
    86 O5      11.6333  11.7278   7.5154   O.2       3 RES3   0.0000
    87 O6      12.2218  13.9339   7.3699   O.3       3 RES3  -1.0000
    88 O7      10.7588  13.2897   8.9812   O.2       3 RES3   0.0000
    89 O8      12.9788  12.7088   9.0788   O.2       3 RES3   0.0000
@<TRIPOS>BOND
     1     1     2    1
     2     2    14    1
     3     3    23    1
     4     4     1    1
     5     5    29   ar
     6     6     1    1
     7     7    45    1
     8     8     1    1
     9     9    51   ar
    10    10     1    1
    11    11    67    1
    12    12     1    1
    13    13    73   ar
    14    14    15   ar
    15    15    16    1
    16    17    15   ar
    17    18    17    1
    18    19    17   ar
    19    20    19    1
    20    21    19   ar
    21    22    21    1
    22    23    14   ar
    23    24     2    2
    24    25     3    1
    25    26    25    1
    26    27    25    1
    27    28    25    1
    28    29     4   ar
    29    30     5   ar
    30    31    30    1
    31    32    30   ar
    32    33    32    1
    33    34     4   ar
    34    35    34    1
    35    36     6    1
    36    37    36   ar
    37    38    37    1
    38    39    37   ar
    39    40    39    1
    40    41    39   ar
    41    42    41    1
    42    43    41   ar
    43    44    43    1
    44    45    36   ar
    45    46     6    2
    46    47     7    1
    47    48    47    1
    48    49    47    1
    49    50    47    1
    50    51     8   ar
    51    52     9   ar
    52    53    52    1
    53    54    52   ar
    54    55    54    1
    55    56     8   ar
    56    57    56    1
    57    58    10    1
    58    59    58   ar
    59    60    59    1
    60    61    59   ar
    61    62    61    1
    62    63    61   ar
    63    64    63    1
    64    65    63   ar
    65    66    65    1
    66    67    58   ar
    67    68    10    2
    68    69    11    1
    69    70    69    1
    70    71    69    1
    71    72    69    1
    72    73    12   ar
    73    74    13   ar
    74    75    74    1
    75    76    74   ar
    76    77    76    1
    77    78    12   ar
    78    79    78    1
    79     3    24    1
    80     7    46    1
    81    11    68    1
    82    21    23   ar
    83    24    29    1
    84    32    34   ar
    85    43    45   ar
    86    46    51    1
    87    54    56   ar
    88    65    67   ar
    89    68    73    1
    90    76    78   ar
    91    80    81    2
    92    82    80    2
    93    83    80    1
    94    84    80    2
    95    85    86    2
    96    87    85    1
    97    88    85    2
    98    89    85    2
@<TRIPOS>SUBSTRUCTURE
     1 RES1        1 GROUP             0 ****  ****    0  
     2 RES2       80 GROUP             0 ****  ****    0  
     3 RES3       85 GROUP             0 ****  ****    0  
@<TRIPOS>CRYSIN
   14.9848   14.7075   17.1641   90.0000   93.9532   90.0000    14     1
