@<TRIPOS>MOLECULE
ILAWEZ
    97   105     4     0     0
SMALL
USER_CHARGES
****
Generated from the CSD

@<TRIPOS>ATOM
     1 Fe1      3.6391   0.9158  10.0676   Fe        1 RES1   2.0000
     2 Cl1      4.7328   4.2973  15.2862   Cl        1 RES1   0.0000
     3 O1       2.4929   6.1380   9.8170   O.3       1 RES1   0.0000
     4 H1       2.9802   6.7334  10.1578   H         1 RES1   0.0000
     5 O2       6.4404  -2.0975  13.7132   O.3       1 RES1   0.0000
     6 H2       5.8028  -1.6362  14.1373   H         1 RES1   0.0000
     7 N1       2.7206   3.7064   8.9930   N.pl3     1 RES1   0.0000
     8 H3       2.8610   4.1928   9.7136   H         1 RES1   0.0000
     9 N2       2.9439   2.3861   8.9107   N.2       1 RES1   0.0000
    10 N3       3.3082  -0.0591   8.4381   N.ar      1 RES1   0.0000
    11 N4       4.2565  -0.9340  10.5481   N.2       1 RES1   0.0000
    12 N5       4.8252  -1.5635  11.5968   N.pl3     1 RES1   0.0000
    13 H4       5.0325  -1.1703  12.3575   H         1 RES1   0.0000
    14 N6       5.4839   1.4862   9.6830   N.ar      1 RES1   0.0000
    15 N7       3.9678   1.9384  11.6158   N.ar      1 RES1   0.0000
    16 N8       1.9112   0.6068  10.9828   N.ar      1 RES1   0.0000
    17 C1       2.0115   6.5766   8.6332   C.ar      1 RES1   0.0000
    18 C2       1.6533   7.8651   8.4001   C.ar      1 RES1   0.0000
    19 H5       1.7361   8.5082   9.0953   H         1 RES1   0.0000
    20 C3       1.1732   8.2537   7.1710   C.ar      1 RES1   0.0000
    21 H6       0.9563   9.1650   7.0148   H         1 RES1   0.0000
    22 C4       1.0006   7.3129   6.1487   C.ar      1 RES1   0.0000
    23 H7       0.6411   7.5697   5.3068   H         1 RES1   0.0000
    24 C5       1.3624   6.0108   6.3882   C.ar      1 RES1   0.0000
    25 H8       1.2549   5.3699   5.6971   H         1 RES1   0.0000
    26 C6       1.8800   5.6063   7.6130   C.ar      1 RES1   0.0000
    27 C7       2.2470   4.1996   7.8082   C.2       1 RES1   0.0000
    28 C8       2.1751   3.1292   6.9357   C.2       1 RES1   0.0000
    29 H9       1.8852   3.1474   6.0316   H         1 RES1   0.0000
    30 C9       2.6097   2.0271   7.6479   C.2       1 RES1   0.0000
    31 C10      2.8097   0.6295   7.3641   C.ar      1 RES1   0.0000
    32 C11      2.5455  -0.0500   6.1571   C.ar      1 RES1   0.0000
    33 H10      2.1760   0.4022   5.4091   H         1 RES1   0.0000
    34 C12      2.8436  -1.4044   6.0991   C.ar      1 RES1   0.0000
    35 H11      2.7079  -1.8748   5.2857   H         1 RES1   0.0000
    36 C13      3.3370  -2.0884   7.2132   C.ar      1 RES1   0.0000
    37 H12      3.4993  -3.0247   7.1784   H         1 RES1   0.0000
    38 C14      3.5790  -1.3771   8.3484   C.ar      1 RES1   0.0000
    39 C15      4.1371  -1.8703   9.6028   C.2       1 RES1   0.0000
    40 C16      4.6171  -3.1042  10.0259   C.2       1 RES1   0.0000
    41 H13      4.6521  -3.9178   9.5374   H         1 RES1   0.0000
    42 C17      5.0349  -2.8724  11.3299   C.2       1 RES1   0.0000
    43 C18      5.6293  -3.8064  12.2868   C.ar      1 RES1   0.0000
    44 C19      5.5837  -5.1858  12.0389   C.ar      1 RES1   0.0000
    45 H14      5.1363  -5.4926  11.2581   H         1 RES1   0.0000
    46 C20      6.1559  -6.1176  12.8765   C.ar      1 RES1   0.0000
    47 H15      6.1111  -7.0447  12.6729   H         1 RES1   0.0000
    48 C21      6.8105  -5.6812  14.0223   C.ar      1 RES1   0.0000
    49 H16      7.2007  -6.3130  14.6163   H         1 RES1   0.0000
    50 C22      6.8915  -4.3587  14.2966   C.ar      1 RES1   0.0000
    51 H17      7.3498  -4.0632  15.0742   H         1 RES1   0.0000
    52 C23      6.3124  -3.4360  13.4484   C.ar      1 RES1   0.0000
    53 C24      6.1666   1.2362   8.5784   C.ar      1 RES1   0.0000
    54 H18      5.7861   0.6795   7.9106   H         1 RES1   0.0000
    55 C25      7.4509   1.7839   8.3748   C.ar      1 RES1   0.0000
    56 H19      7.9207   1.5953   7.5730   H         1 RES1   0.0000
    57 C26      8.0154   2.5884   9.3327   C.ar      1 RES1   0.0000
    58 H20      8.8754   2.9702   9.2009   H         1 RES1   0.0000
    59 C27      7.3060   2.8293  10.4901   C.ar      1 RES1   0.0000
    60 H21      7.6864   3.3519  11.1875   H         1 RES1   0.0000
    61 C28      6.0392   2.3043  10.6262   C.ar      1 RES1   0.0000
    62 C29      5.1714   2.5179  11.7835   C.ar      1 RES1   0.0000
    63 C30      5.4711   3.2701  12.9145   C.ar      1 RES1   0.0000
    64 H22      6.3207   3.6724  13.0527   H         1 RES1   0.0000
    65 C31      4.4256   3.3883  13.8313   C.ar      1 RES1   0.0000
    66 C32      3.1876   2.8452  13.6583   C.ar      1 RES1   0.0000
    67 H23      2.4967   2.9838  14.2966   H         1 RES1   0.0000
    68 C33      2.9696   2.0816  12.5147   C.ar      1 RES1   0.0000
    69 C34      1.7649   1.2931  12.1918   C.ar      1 RES1   0.0000
    70 C35      0.6371   1.1431  12.9673   C.ar      1 RES1   0.0000
    71 H24      0.5472   1.6430  13.7712   H         1 RES1   0.0000
    72 C36     -0.3702   0.2682  12.5790   C.ar      1 RES1   0.0000
    73 H25     -1.1560   0.1682  13.1044   H         1 RES1   0.0000
    74 C37     -0.2046  -0.4431  11.4248   C.ar      1 RES1   0.0000
    75 H26     -0.8552  -1.0794  11.1526   H         1 RES1   0.0000
    76 C38      0.9164  -0.2250  10.6642   C.ar      1 RES1   0.0000
    77 H27      0.9901  -0.7022   9.8465   H         1 RES1   0.0000
    78 Cl2      2.9076   5.2086   2.9752   Cl        2 RES2   0.0000
    79 O3       3.4072   4.7813   1.7112   O.2       2 RES2   0.0000
    80 O4       1.6785   5.9517   2.8042   O.2       2 RES2   0.0000
    81 O5       3.9071   6.0199   3.6113   O.2       2 RES2   0.0000
    82 O6       2.6217   4.0291   3.7801   O.3       2 RES2  -1.0000
    83 Cl3      4.6908   0.1659  15.3464   Cl        3 RES3   0.0000
    84 O7       4.4300   0.0364  13.9358   O.2       3 RES3   0.0000
    85 O8       5.7696   1.1453  15.5373   O.3       3 RES3  -1.0000
    86 O9       5.1625  -1.0817  15.8306   O.2       3 RES3   0.0000
    87 O10      3.5008   0.6045  15.9962   O.2       3 RES3   0.0000
    88 O11      3.0061   8.1424  11.5187   O.2       4 RES4   0.0000
    89 C39      3.8280   7.7765  12.3248   C.2       4 RES4   0.0000
    90 C40      4.3966   6.4244  12.3564   C.3       4 RES4   0.0000
    91 H28      4.5425   6.1108  11.4396   H         4 RES4   0.0000
    92 H29      3.7720   5.8199  12.8122   H         4 RES4   0.0000
    93 H30      5.2482   6.4380  12.8386   H         4 RES4   0.0000
    94 C41      4.2342   8.6741  13.4167   C.3       4 RES4   0.0000
    95 H31      3.8209   9.5513  13.2891   H         4 RES4   0.0000
    96 H32      5.2116   8.7696  13.4136   H         4 RES4   0.0000
    97 H33      3.9479   8.2969  14.2745   H         4 RES4   0.0000
@<TRIPOS>BOND
     1     1     9    1
     2     2    65    1
     3     3     4    1
     4     5     6    1
     5     7     8    1
     6     9     7    1
     7    10     1    1
     8    11     1    1
     9    12    11    1
    10    13    12    1
    11    14     1    1
    12    15     1    1
    13    16     1    1
    14    17     3    1
    15    18    17   ar
    16    19    18    1
    17    20    18   ar
    18    21    20    1
    19    22    20   ar
    20    23    22    1
    21    24    22   ar
    22    25    24    1
    23    26    17   ar
    24    27     7    1
    25    28    27    2
    26    29    28    1
    27    30     9    2
    28    31    10   ar
    29    32    31   ar
    30    33    32    1
    31    34    32   ar
    32    35    34    1
    33    36    34   ar
    34    37    36    1
    35    38    10   ar
    36    39    11    2
    37    40    39    1
    38    41    40    1
    39    42    12    1
    40    43    42    1
    41    44    43   ar
    42    45    44    1
    43    46    44   ar
    44    47    46    1
    45    48    46   ar
    46    49    48    1
    47    50    48   ar
    48    51    50    1
    49    52     5    1
    50    53    14   ar
    51    54    53    1
    52    55    53   ar
    53    56    55    1
    54    57    55   ar
    55    58    57    1
    56    59    57   ar
    57    60    59    1
    58    61    14   ar
    59    62    15   ar
    60    63    62   ar
    61    64    63    1
    62    65    63   ar
    63    66    65   ar
    64    67    66    1
    65    68    15   ar
    66    69    16   ar
    67    70    69   ar
    68    71    70    1
    69    72    70   ar
    70    73    72    1
    71    74    72   ar
    72    75    74    1
    73    76    16   ar
    74    77    76    1
    75    24    26   ar
    76    26    27    1
    77    28    30    1
    78    30    31    1
    79    36    38   ar
    80    38    39    1
    81    40    42    2
    82    43    52   ar
    83    50    52   ar
    84    59    61   ar
    85    61    62    1
    86    66    68   ar
    87    68    69    1
    88    74    76   ar
    89    78    79    2
    90    80    78    2
    91    81    78    2
    92    82    78    1
    93    83    84    2
    94    85    83    1
    95    86    83    2
    96    87    83    2
    97    88    89    2
    98    89    90    1
    99    90    91    1
   100    92    90    1
   101    93    90    1
   102    94    89    1
   103    95    94    1
   104    96    94    1
   105    97    94    1
@<TRIPOS>SUBSTRUCTURE
     1 RES1        1 GROUP             0 ****  ****    0  
     2 RES2       78 GROUP             0 ****  ****    0  
     3 RES3       83 GROUP             0 ****  ****    0  
     4 RES4       88 GROUP             0 ****  ****    0  
@<TRIPOS>CRYSIN
    8.4710   22.7250   10.8330   90.0000  103.1200   90.0000     4     1
