@<TRIPOS>MOLECULE
ILAWEZ01
    97   105     4     0     0
SMALL
USER_CHARGES
****
Generated from the CSD

@<TRIPOS>ATOM
     1 Fe1      3.7295   0.9516  10.1766   Fe        1 RES1   2.0000
     2 Cl1      4.8451   4.2820  15.4346   Cl        1 RES1   0.0000
     3 O1       2.6774   6.2138   9.9706   O.3       1 RES1   0.0000
     4 H1       2.8618   6.9042  10.4993   H         1 RES1   0.0000
     5 O2       6.5823  -2.1013  13.7064   O.3       1 RES1   0.0000
     6 H2       5.7374  -1.8473  14.0132   H         1 RES1   0.0000
     7 N1       2.7838   3.7454   9.1425   N.pl3     1 RES1   0.0000
     8 H3       2.9228   4.2118   9.8517   H         1 RES1   0.0000
     9 N2       3.0085   2.4107   9.0534   N.2       1 RES1   0.0000
    10 N3       3.3633   0.0069   8.5448   N.ar      1 RES1   0.0000
    11 N4       4.3255  -0.8844  10.6447   N.2       1 RES1   0.0000
    12 N5       4.9137  -1.5494  11.6798   N.pl3     1 RES1   0.0000
    13 H4       5.2074  -1.1315  12.4420   H         1 RES1   0.0000
    14 N6       5.5768   1.5517   9.7965   N.ar      1 RES1   0.0000
    15 N7       4.0523   1.9535  11.7318   N.ar      1 RES1   0.0000
    16 N8       2.0223   0.6396  11.1235   N.ar      1 RES1   0.0000
    17 C1       2.1583   6.6086   8.7901   C.ar      1 RES1   0.0000
    18 C2       1.8443   7.9618   8.5597   C.ar      1 RES1   0.0000
    19 H5       1.9878   8.6014   9.2200   H         1 RES1   0.0000
    20 C3       1.3200   8.3197   7.3420   C.ar      1 RES1   0.0000
    21 H6       1.0912   9.2064   7.1860   H         1 RES1   0.0000
    22 C4       1.1312   7.4030   6.3654   C.ar      1 RES1   0.0000
    23 H7       0.7839   7.6616   5.5416   H         1 RES1   0.0000
    24 C5       1.4529   6.1053   6.5957   C.ar      1 RES1   0.0000
    25 H8       1.3125   5.4841   5.9184   H         1 RES1   0.0000
    26 C6       1.9796   5.6735   7.7922   C.ar      1 RES1   0.0000
    27 C7       2.3152   4.2511   7.9811   C.2       1 RES1   0.0000
    28 C8       2.2415   3.2096   7.0947   C.2       1 RES1   0.0000
    29 H9       1.9621   3.2489   6.2083   H         1 RES1   0.0000
    30 C9       2.6716   2.0759   7.7954   C.2       1 RES1   0.0000
    31 C10      2.8677   0.6812   7.4663   C.ar      1 RES1   0.0000
    32 C11      2.5725   0.0254   6.2847   C.ar      1 RES1   0.0000
    33 H10      2.1640   0.4711   5.5798   H         1 RES1   0.0000
    34 C12      2.9025  -1.3162   6.1796   C.ar      1 RES1   0.0000
    35 H11      2.7886  -1.7572   5.3696   H         1 RES1   0.0000
    36 C13      3.4093  -2.0112   7.2911   C.ar      1 RES1   0.0000
    37 H12      3.5964  -2.9210   7.2338   H         1 RES1   0.0000
    38 C14      3.6209  -1.3277   8.4546   C.ar      1 RES1   0.0000
    39 C15      4.1778  -1.8057   9.6765   C.2       1 RES1   0.0000
    40 C16      4.6417  -3.0457  10.1245   C.2       1 RES1   0.0000
    41 H13      4.6355  -3.8400   9.6436   H         1 RES1   0.0000
    42 C17      5.1098  -2.8725  11.4101   C.2       1 RES1   0.0000
    43 C18      5.7071  -3.8146  12.3358   C.ar      1 RES1   0.0000
    44 C19      5.5936  -5.1816  12.0800   C.ar      1 RES1   0.0000
    45 H14      5.1167  -5.4887  11.3432   H         1 RES1   0.0000
    46 C20      6.2141  -6.0891  12.9611   C.ar      1 RES1   0.0000
    47 H15      6.1583  -6.9989  12.7828   H         1 RES1   0.0000
    48 C21      6.8856  -5.6919  14.0344   C.ar      1 RES1   0.0000
    49 H16      7.2754  -6.3223  14.5939   H         1 RES1   0.0000
    50 C22      7.0083  -4.3434  14.3285   C.ar      1 RES1   0.0000
    51 H17      7.4613  -4.0525  15.0864   H         1 RES1   0.0000
    52 C23      6.4302  -3.4544  13.4463   C.ar      1 RES1   0.0000
    53 C24      6.2946   1.3254   8.6775   C.ar      1 RES1   0.0000
    54 H18      5.9187   0.7989   8.0098   H         1 RES1   0.0000
    55 C25      7.5502   1.8357   8.4737   C.ar      1 RES1   0.0000
    56 H19      8.0194   1.6556   7.6913   H         1 RES1   0.0000
    57 C26      8.0989   2.6278   9.4642   C.ar      1 RES1   0.0000
    58 H20      8.9478   2.9926   9.3591   H         1 RES1   0.0000
    59 C27      7.3720   2.8656  10.6075   C.ar      1 RES1   0.0000
    60 H21      7.7336   3.3898  11.2848   H         1 RES1   0.0000
    61 C28      6.1290   2.3368  10.7498   C.ar      1 RES1   0.0000
    62 C29      5.2570   2.5585  11.8878   C.ar      1 RES1   0.0000
    63 C30      5.5293   3.2905  13.0492   C.ar      1 RES1   0.0000
    64 H22      6.3604   3.6830  13.1872   H         1 RES1   0.0000
    65 C31      4.5121   3.4059  13.9898   C.ar      1 RES1   0.0000
    66 C32      3.3090   2.8217  13.8083   C.ar      1 RES1   0.0000
    67 H23      2.6381   2.9187  14.4442   H         1 RES1   0.0000
    68 C33      3.0846   2.0736  12.6628   C.ar      1 RES1   0.0000
    69 C34      1.9080   1.2816  12.3157   C.ar      1 RES1   0.0000
    70 C35      0.7911   1.1522  13.1150   C.ar      1 RES1   0.0000
    71 H24      0.7213   1.6302  13.9081   H         1 RES1   0.0000
    72 C36     -0.2099   0.3094  12.7265   C.ar      1 RES1   0.0000
    73 H25     -0.9630   0.2009  13.2605   H         1 RES1   0.0000
    74 C37     -0.1008  -0.3695  11.5534   C.ar      1 RES1   0.0000
    75 H26     -0.7734  -0.9513  11.2848   H         1 RES1   0.0000
    76 C38      1.0261  -0.1847  10.7551   C.ar      1 RES1   0.0000
    77 H27      1.0908  -0.6419   9.9472   H         1 RES1   0.0000
    78 Cl2      2.9492   5.2740   2.9523   Cl        2 RES2   0.0000
    79 O3       3.4734   4.8283   1.7665   O.2       2 RES2   0.0000
    80 O4       1.7675   5.9598   2.7527   O.2       2 RES2   0.0000
    81 O5       3.8432   6.0937   3.6084   O.2       2 RES2   0.0000
    82 O6       2.6059   4.1310   3.7262   O.3       2 RES2  -1.0000
    83 Cl3      4.7546  -0.0229  15.4538   Cl        3 RES3   0.0000
    84 O7       4.6155   0.0092  14.0822   O.2       3 RES3   0.0000
    85 O8       5.7079   0.9467  15.7584   O.3       3 RES3  -1.0000
    86 O9       5.4087  -1.1384  15.9092   O.2       3 RES3   0.0000
    87 O10      3.7508   0.5473  16.1183   O.2       3 RES3   0.0000
    88 O11      3.3150   8.2758  11.5640   O.2       4 RES4   0.0000
    89 C39      4.0193   8.0357  12.4813   C.2       4 RES4   0.0000
    90 C40      4.5515   6.6618  12.6724   C.3       4 RES4   0.0000
    91 H28      4.1286   6.0660  12.0513   H         4 RES4   0.0000
    92 H29      4.3723   6.3708  13.5694   H         4 RES4   0.0000
    93 H30      5.5007   6.6618  12.5205   H         4 RES4   0.0000
    94 C41      4.5097   9.1648  13.3337   C.3       4 RES4   0.0000
    95 H31      5.1791   9.6590  12.8528   H         4 RES4   0.0000
    96 H32      4.8865   8.8161  14.1416   H         4 RES4   0.0000
    97 H33      3.7749   9.7444  13.5439   H         4 RES4   0.0000
@<TRIPOS>BOND
     1     1     9    1
     2     2    65    1
     3     3     4    1
     4     5     6    1
     5     7     8    1
     6     9     7    1
     7    10     1    1
     8    11     1    1
     9    12    11    1
    10    13    12    1
    11    14     1    1
    12    15     1    1
    13    16     1    1
    14    17     3    1
    15    18    17   ar
    16    19    18    1
    17    20    18   ar
    18    21    20    1
    19    22    20   ar
    20    23    22    1
    21    24    22   ar
    22    25    24    1
    23    26    17   ar
    24    27     7    1
    25    28    27    2
    26    29    28    1
    27    30     9    2
    28    31    10   ar
    29    32    31   ar
    30    33    32    1
    31    34    32   ar
    32    35    34    1
    33    36    34   ar
    34    37    36    1
    35    38    10   ar
    36    39    11    2
    37    40    39    1
    38    41    40    1
    39    42    12    1
    40    43    42    1
    41    44    43   ar
    42    45    44    1
    43    46    44   ar
    44    47    46    1
    45    48    46   ar
    46    49    48    1
    47    50    48   ar
    48    51    50    1
    49    52     5    1
    50    53    14   ar
    51    54    53    1
    52    55    53   ar
    53    56    55    1
    54    57    55   ar
    55    58    57    1
    56    59    57   ar
    57    60    59    1
    58    61    14   ar
    59    62    15   ar
    60    63    62   ar
    61    64    63    1
    62    65    63   ar
    63    66    65   ar
    64    67    66    1
    65    68    15   ar
    66    69    16   ar
    67    70    69   ar
    68    71    70    1
    69    72    70   ar
    70    73    72    1
    71    74    72   ar
    72    75    74    1
    73    76    16   ar
    74    77    76    1
    75    24    26   ar
    76    26    27    1
    77    28    30    1
    78    30    31    1
    79    36    38   ar
    80    38    39    1
    81    40    42    2
    82    43    52   ar
    83    50    52   ar
    84    59    61   ar
    85    61    62    1
    86    66    68   ar
    87    68    69    1
    88    74    76   ar
    89    78    79    2
    90    80    78    2
    91    81    78    2
    92    82    78    1
    93    83    84    2
    94    85    83    1
    95    86    83    2
    96    87    83    2
    97    88    89    2
    98    89    90    1
    99    90    91    1
   100    92    90    1
   101    93    90    1
   102    94    89    1
   103    95    94    1
   104    96    94    1
   105    97    94    1
@<TRIPOS>SUBSTRUCTURE
     1 RES1        1 GROUP             0 ****  ****    0  
     2 RES2       78 GROUP             0 ****  ****    0  
     3 RES3       83 GROUP             0 ****  ****    0  
     4 RES4       88 GROUP             0 ****  ****    0  
@<TRIPOS>CRYSIN
    8.6059   23.0910   10.8988   90.0000  103.0800   90.0000     4     1
