@<TRIPOS>MOLECULE
ILOWUD
   101   103     7     0     0
SMALL
USER_CHARGES
****
Generated from the CSD

@<TRIPOS>ATOM
     1 Fe1      4.5547   7.2215   3.0542   Fe        1 RES1   2.0000
     2 N1       7.5967   9.7233   6.3281   N.pl3     1 RES1   0.0000
     3 H1       7.2407  10.4742   6.0400   H         1 RES1   0.0000
     4 H2       8.2027   9.7399   6.9651   H         1 RES1   0.0000
     5 N2       6.2877   8.6116   4.8302   N.ar      1 RES1   0.0000
     6 N3       5.9561   7.4531   4.2938   N.ar      1 RES1   0.0000
     7 N4       7.4010   6.2817   5.7503   N.ar      1 RES1   0.0000
     8 N5       7.7528   7.4220   6.3131   N.ar      1 RES1   0.0000
     9 N6       6.2130   5.1955   4.0404   N.pl3     1 RES1   0.0000
    10 N7       5.2551   5.3613   3.0754   N.2       1 RES1   0.0000
    11 N8       2.9375   6.5049   7.8523   N.pl3     1 RES1   0.0000
    12 H3       2.3525   6.2192   8.4429   H         1 RES1   0.0000
    13 H4       3.6985   6.8572   8.1204   H         1 RES1   0.0000
    14 N9       3.6400   6.8370   5.7152   N.ar      1 RES1   0.0000
    15 N10      3.3585   6.7298   4.4394   N.ar      1 RES1   0.0000
    16 N11      1.2499   5.7697   4.9077   N.ar      1 RES1   0.0000
    17 N12      1.4913   5.8562   6.2014   N.ar      1 RES1   0.0000
    18 N13      1.9687   6.1876   2.7147   N.pl3     1 RES1   0.0000
    19 N14      2.9699   6.7787   1.9699   N.2       1 RES1   0.0000
    20 N15      1.9610  11.3886   4.5927   N.pl3     1 RES1   0.0000
    21 H5       1.7579  12.2429   4.5319   H         1 RES1   0.0000
    22 H6       1.5595  10.8832   5.1905   H         1 RES1   0.0000
    23 N16      3.1473   9.5454   3.9317   N.ar      1 RES1   0.0000
    24 N17      4.0357   9.0540   3.1022   N.ar      1 RES1   0.0000
    25 N18      4.3334  11.1563   2.0649   N.ar      1 RES1   0.0000
    26 N19      3.4540  11.6883   2.8858   N.ar      1 RES1   0.0000
    27 N20      5.5132   9.2460   1.3691   N.pl3     1 RES1   0.0000
    28 N21      5.6895   7.8914   1.5832   N.2       1 RES1   0.0000
    29 C1       7.2189   8.5666   5.8016   C.ar      1 RES1   0.0000
    30 C2       6.5718   6.3404   4.7398   C.ar      1 RES1   0.0000
    31 C3       4.1369   3.8940   1.4238   C.3       1 RES1   0.0000
    32 H7       3.2304   3.8334   1.7897   H         1 RES1   0.0000
    33 H8       4.3691   3.0503   0.9812   H         1 RES1   0.0000
    34 H9       4.1795   4.6263   0.7737   H         1 RES1   0.0000
    35 C4       5.0967   4.1548   2.5239   C.2       1 RES1   0.0000
    36 C5       5.9640   3.2365   3.1296   C.2       1 RES1   0.0000
    37 H10      6.0430   2.3146   2.9132   H         1 RES1   0.0000
    38 C6       6.6758   3.9025   4.0860   C.2       1 RES1   0.0000
    39 C7       7.7228   3.4279   5.0144   C.3       1 RES1   0.0000
    40 H11      7.8791   2.4723   4.8680   H         1 RES1   0.0000
    41 H12      7.4307   3.5738   5.9385   H         1 RES1   0.0000
    42 H13      8.5529   3.9242   4.8529   H         1 RES1   0.0000
    43 C8       2.6774   6.4062   6.5728   C.ar      1 RES1   0.0000
    44 C9       2.1694   6.2176   4.0847   C.ar      1 RES1   0.0000
    45 C10      3.2785   7.3573  -0.4078   C.3       1 RES1   0.0000
    46 H14      3.3386   8.3271  -0.2801   H         1 RES1   0.0000
    47 H15      2.8140   7.1671  -1.2492   H         1 RES1   0.0000
    48 H16      4.1808   6.9744  -0.4391   H         1 RES1   0.0000
    49 C11      2.5244   6.7558   0.7195   C.2       1 RES1   0.0000
    50 C12      1.2781   6.1206   0.6744   C.2       1 RES1   0.0000
    51 H17      0.7637   5.9623  -0.1090   H         1 RES1   0.0000
    52 C13      0.9281   5.7698   1.9354   C.2       1 RES1   0.0000
    53 C14     -0.2962   5.0842   2.4510   C.3       1 RES1   0.0000
    54 H18     -0.8933   4.8762   1.7019   H         1 RES1   0.0000
    55 H19     -0.7582   5.6733   3.0828   H         1 RES1   0.0000
    56 H20     -0.0396   4.2550   2.9057   H         1 RES1   0.0000
    57 C15      2.8645  10.8670   3.7896   C.ar      1 RES1   0.0000
    58 C16      4.5980   9.8692   2.1942   C.ar      1 RES1   0.0000
    59 C17      7.0928   6.1026   0.5919   C.3       1 RES1   0.0000
    60 H21      7.5543   5.8437   1.4173   H         1 RES1   0.0000
    61 H22      7.7121   6.0307  -0.1635   H         1 RES1   0.0000
    62 H23      6.3278   5.5086   0.4452   H         1 RES1   0.0000
    63 C18      6.6149   7.5084   0.7095   C.2       1 RES1   0.0000
    64 C19      7.0199   8.6079  -0.0603   C.2       1 RES1   0.0000
    65 H24      7.6658   8.5938  -0.7556   H         1 RES1   0.0000
    66 C20      6.3263   9.6979   0.3634   C.2       1 RES1   0.0000
    67 C21      6.3893  11.1186  -0.0863   C.3       1 RES1   0.0000
    68 H25      7.0272  11.1987  -0.8252   H         1 RES1   0.0000
    69 H26      6.6796  11.6845   0.6587   H         1 RES1   0.0000
    70 H27      5.5018  11.4053  -0.3876   H         1 RES1   0.0000
    71 Cl1      0.0815  14.9220   3.2073   Cl        2 RES2   0.0000
    72 O1       0.7714  15.6728   2.1880   O.3       2 RES2  -1.0000
    73 O2      -0.9936  14.2057   2.6593   O.2       2 RES2   0.0000
    74 O3      -0.3650  15.8013   4.2128   O.2       2 RES2   0.0000
    75 O4       1.0238  14.0149   3.7884   O.2       2 RES2   0.0000
    76 Cl2     10.0005   6.4608   3.2794   Cl        3 RES3   0.0000
    77 O5       8.7194   7.0953   3.1048   O.3       3 RES3  -1.0000
    78 O6      11.0062   7.1988   2.5822   O.2       3 RES3   0.0000
    79 O7      10.3039   6.4173   4.6674   O.2       3 RES3   0.0000
    80 O8       9.9445   5.1232   2.7641   O.2       3 RES3   0.0000
    81 O9       3.5978  14.7272   2.2535   O.3       4 RES4   0.0000
    82 H28      2.7223  14.7418   2.0593   H         4 RES4   0.0000
    83 H29      3.6373  13.9600   2.5589   H         4 RES4   0.0000
    84 N22     -1.1012   4.2215  -1.5066   N.1       5 RES5   0.0000
    85 C22      1.1458   2.9414  -1.3249   C.3       5 RES5   0.0000
    86 H30      1.8746   3.4970  -1.6731   H         5 RES5   0.0000
    87 H31      1.0973   2.1080  -1.8382   H         5 RES5   0.0000
    88 H32      1.3130   2.7348  -0.3816   H         5 RES5   0.0000
    89 C23     -0.1135   3.6617  -1.4475   C.1       5 RES5   0.0000
    90 N23     -3.0161   2.7641   1.1541   N.1       6 RES6   0.0000
    91 C24     -1.6883   0.9912  -0.1696   C.3       6 RES6   0.0000
    92 H33     -2.0758   0.1089   0.0045   H         6 RES6   0.0000
    93 H34     -0.7495   0.9981   0.1120   H         6 RES6   0.0000
    94 H35     -1.7439   1.1894  -1.1265   H         6 RES6   0.0000
    95 C25     -2.4289   2.0047   0.5814   C.1       6 RES6   0.0000
    96 N24      4.4325  17.8629   6.4436   N.1       7 RES7   0.0000
    97 C26      2.9189  16.3583   4.9964   C.3       7 RES7   0.0000
    98 H36      3.4563  15.6366   4.6076   H         7 RES7   0.0000
    99 H37      2.5110  16.8846   4.2775   H         7 RES7   0.0000
   100 H38      2.2156  15.9744   5.5615   H         7 RES7   0.0000
   101 C27      3.7633  17.2085   5.7929   C.1       7 RES7   0.0000
@<TRIPOS>BOND
     1     1     6    1
     2     2     3    1
     3     4     2    1
     4     5     6   ar
     5     6    30   ar
     6     7     8   ar
     7     8    29   ar
     8     9    10    1
     9    10     1    1
    10    11    12    1
    11    13    11    1
    12    14    15   ar
    13    15     1    1
    14    16    17   ar
    15    17    43   ar
    16    18    19    1
    17    19     1    1
    18    20    21    1
    19    22    20    1
    20    23    24   ar
    21    24     1    1
    22    25    26   ar
    23    26    57   ar
    24    27    28    1
    25    28     1    1
    26    29     2    1
    27    30     7   ar
    28    31    32    1
    29    33    31    1
    30    34    31    1
    31    35    10    2
    32    36    35    1
    33    37    36    1
    34    38     9    1
    35    39    38    1
    36    40    39    1
    37    41    39    1
    38    42    39    1
    39    43    11    1
    40    44    15   ar
    41    45    46    1
    42    47    45    1
    43    48    45    1
    44    49    19    2
    45    50    49    1
    46    51    50    1
    47    52    18    1
    48    53    52    1
    49    54    53    1
    50    55    53    1
    51    56    53    1
    52    57    20    1
    53    58    24   ar
    54    59    60    1
    55    61    59    1
    56    62    59    1
    57    63    28    2
    58    64    63    1
    59    65    64    1
    60    66    27    1
    61    67    66    1
    62    68    67    1
    63    69    67    1
    64    70    67    1
    65     5    29   ar
    66     9    30    1
    67    14    43   ar
    68    16    44   ar
    69    18    44    1
    70    23    57   ar
    71    25    58   ar
    72    27    58    1
    73    31    35    1
    74    36    38    2
    75    45    49    1
    76    50    52    2
    77    59    63    1
    78    64    66    2
    79    71    72    1
    80    73    71    2
    81    74    71    2
    82    75    71    2
    83    76    77    1
    84    78    76    2
    85    79    76    2
    86    80    76    2
    87    81    82    1
    88    83    81    1
    89    84    89    3
    90    85    86    1
    91    87    85    1
    92    88    85    1
    93    89    85    1
    94    90    95    3
    95    91    92    1
    96    93    91    1
    97    94    91    1
    98    95    91    1
    99    96   101    3
   100    97    98    1
   101    99    97    1
   102   100    97    1
   103   101    97    1
@<TRIPOS>SUBSTRUCTURE
     1 RES1        1 GROUP             0 ****  ****    0  
     2 RES2       71 GROUP             0 ****  ****    0  
     3 RES3       76 GROUP             0 ****  ****    0  
     4 RES4       81 GROUP             0 ****  ****    0  
     5 RES5       84 GROUP             0 ****  ****    0  
     6 RES6       90 GROUP             0 ****  ****    0  
     7 RES7       96 GROUP             0 ****  ****    0  
@<TRIPOS>CRYSIN
   19.1000   13.9600   16.0300   90.0000  109.1650   90.0000    14     1
