@<TRIPOS>MOLECULE
ILOXAK
   149   153     8     0     0
SMALL
USER_CHARGES
****
Generated from the CSD

@<TRIPOS>ATOM
     1 Fe1      5.2685  -0.5791   4.7017   Fe        1 RES1   2.0000
     2 N1       6.5288  -6.8050   2.2556   N.pl3     1 RES1   0.0000
     3 H1       6.8119  -7.6382   2.2542   H         1 RES1   0.0000
     4 H2       6.0693  -6.4951   1.5716   H         1 RES1   0.0000
     5 N2       7.4680  -6.3447   4.3790   N.2       1 RES1   0.0000
     6 N3       7.4898  -5.2680   5.2195   N.2       1 RES1   0.0000
     7 N4       6.5580  -3.0759   5.0432   N.2       1 RES1   0.0000
     8 N5       5.8232  -2.3199   4.2667   N.2       1 RES1   0.0000
     9 N6       5.5912  -4.0184   2.5429   N.2       1 RES1   0.0000
    10 N7       6.3889  -4.7400   3.3621   N.pl3     1 RES1   0.0000
    11 N8       4.5651  -1.9744   2.3851   N.pl3     1 RES1   0.0000
    12 N9       4.4494  -0.6994   2.9198   N.2       1 RES1   0.0000
    13 N10      9.4618  -0.6919  10.0949   N.pl3     1 RES1   0.0000
    14 H3      10.0360  -0.3274   9.5360   H         1 RES1   0.0000
    15 H4       9.7053  -0.8752  10.9198   H         1 RES1   0.0000
    16 N11      7.2597  -1.4989  10.4519   N.2       1 RES1   0.0000
    17 N12      6.1448  -1.6520   9.7081   N.2       1 RES1   0.0000
    18 N13      5.6645  -1.1463   7.4425   N.2       1 RES1   0.0000
    19 N14      6.1986  -0.6570   6.3587   N.2       1 RES1   0.0000
    20 N15      8.3737  -0.3287   7.3315   N.2       1 RES1   0.0000
    21 N16      7.7419  -0.7387   8.4807   N.pl3     1 RES1   0.0000
    22 N17      7.9382   0.1711   5.1228   N.pl3     1 RES1   0.0000
    23 N18      6.9981   0.1215   4.1102   N.2       1 RES1   0.0000
    24 N19     -0.9118  -1.7662   7.3699   N.pl3     1 RES1   0.0000
    25 H5      -0.9104  -0.8957   7.5022   H         1 RES1   0.0000
    26 H6      -1.6146  -2.2449   7.5946   H         1 RES1   0.0000
    27 N20      0.2630  -3.6669   6.5678   N.2       1 RES1   0.0000
    28 N21      1.4901  -3.9065   6.0146   N.2       1 RES1   0.0000
    29 N22      3.2790  -2.4658   5.4556   N.2       1 RES1   0.0000
    30 N23      3.6335  -1.2038   5.4371   N.2       1 RES1   0.0000
    31 N24      1.5976  -0.4375   6.4754   N.2       1 RES1   0.0000
    32 N25      1.2600  -1.7530   6.4483   N.pl3     1 RES1   0.0000
    33 N26      3.2403   1.0180   5.8211   N.pl3     1 RES1   0.0000
    34 N27      4.4839   1.1342   5.2252   N.2       1 RES1   0.0000
    35 C1       6.7917  -6.0202   3.2853   C.2       1 RES1   0.0000
    36 C2       6.8249  -4.3003   4.6080   C.2       1 RES1   0.0000
    37 C3       5.3644  -2.8547   3.0677   C.2       1 RES1   0.0000
    38 C4       3.2837   1.3865   2.2969   C.3       1 RES1   0.0000
    39 H7       2.7145   1.6780   1.5545   H         1 RES1   0.0000
    40 H8       2.7879   1.4650   3.1388   H         1 RES1   0.0000
    41 H9       4.0846   1.9503   2.3353   H         1 RES1   0.0000
    42 C5       3.6837  -0.0294   2.0878   C.2       1 RES1   0.0000
    43 C6       3.3194  -0.8496   1.0140   C.2       1 RES1   0.0000
    44 H10      2.7814  -0.5871   0.2759   H         1 RES1   0.0000
    45 C7       3.8566  -2.0738   1.1989   C.2       1 RES1   0.0000
    46 C8       3.8009  -3.3225   0.4139   C.3       1 RES1   0.0000
    47 H11      4.3222  -4.0177   0.8676   H         1 RES1   0.0000
    48 H12      2.8701  -3.6148   0.3314   H         1 RES1   0.0000
    49 H13      4.1751  -3.1643  -0.4779   H         1 RES1   0.0000
    50 C9       8.2300  -0.9650   9.6910   C.2       1 RES1   0.0000
    51 C10      6.4477  -1.1994   8.5134   C.2       1 RES1   0.0000
    52 C11      7.5370  -0.2883   6.3730   C.2       1 RES1   0.0000
    53 C12      6.9961   0.6671   1.6953   C.3       1 RES1   0.0000
    54 H14      7.6413   1.0247   1.0496   H         1 RES1   0.0000
    55 H15      6.7079  -0.2243   1.4094   H         1 RES1   0.0000
    56 H16      6.2193   1.2611   1.7451   H         1 RES1   0.0000
    57 C13      7.6332   0.5755   3.0279   C.2       1 RES1   0.0000
    58 C14      8.9393   0.9313   3.3635   C.2       1 RES1   0.0000
    59 H17      9.5856   1.2930   2.7705   H         1 RES1   0.0000
    60 C15      9.1298   0.6730   4.6748   C.2       1 RES1   0.0000
    61 C16     10.3362   0.8457   5.5353   C.3       1 RES1   0.0000
    62 H18     10.1293   0.5576   6.4498   H         1 RES1   0.0000
    63 H19     11.0706   0.3012   5.1811   H         1 RES1   0.0000
    64 H20     10.6018   1.7883   5.5410   H         1 RES1   0.0000
    65 C17      0.1370  -2.3498   6.8338   C.2       1 RES1   0.0000
    66 C18      2.0851  -2.7442   5.9520   C.2       1 RES1   0.0000
    67 C19      2.7593  -0.2755   5.9548   C.2       1 RES1   0.0000
    68 C20      1.4363   2.3916   6.8807   C.3       1 RES1   0.0000
    69 H21      1.0070   1.5160   6.9760   H         1 RES1   0.0000
    70 H22      1.5758   2.7870   7.7667   H         1 RES1   0.0000
    71 H23      0.8608   2.9803   6.3474   H         1 RES1   0.0000
    72 C21      2.7373   2.2321   6.2037   C.2       1 RES1   0.0000
    73 C22      3.6757   3.1291   5.8553   C.2       1 RES1   0.0000
    74 H24      3.6182   4.0689   5.9875   H         1 RES1   0.0000
    75 C23      4.7415   2.4620   5.2679   C.2       1 RES1   0.0000
    76 C24      5.9931   3.0419   4.7275   C.3       1 RES1   0.0000
    77 H25      5.9854   4.0130   4.8569   H         1 RES1   0.0000
    78 H26      6.7622   2.6556   5.1982   H         1 RES1   0.0000
    79 H27      6.0605   2.8392   3.7703   H         1 RES1   0.0000
    80 Cl1     -3.1838  -4.2540  16.7395   Cl        2 RES2   0.0000
    81 O1      -2.7008  -4.8635  17.9214   O.2       2 RES2   0.0000
    82 O2      -4.2094  -4.9561  16.2104   O.2       2 RES2   0.0000
    83 O3      -3.6459  -2.8995  17.0154   O.3       2 RES2  -1.0000
    84 O4      -2.1171  -4.0985  15.8350   O.2       2 RES2   0.0000
    85 Cl2      2.7383   2.8809  13.0004   Cl        3 RES3   0.0000
    86 O5       1.6172   2.5337  13.8211   O.2       3 RES3   0.0000
    87 O6       3.9275   2.4270  13.6661   O.3       3 RES3  -1.0000
    88 O7       2.6115   2.2254  11.7290   O.2       3 RES3   0.0000
    89 O8       2.7788   4.2753  12.8071   O.2       3 RES3   0.0000
    90 O9      -4.4881 -13.3902   7.7027   O.2       4 RES4   0.0000
    91 N28     -5.5514 -13.4981   9.7024   N.am      4 RES4   0.0000
    92 C25     -4.5296 -13.2230   8.8946   C.2       4 RES4   0.0000
    93 H28     -3.7529 -12.8570   9.3013   H         4 RES4   0.0000
    94 C26     -6.7692 -14.0428   9.1975   C.3       4 RES4   0.0000
    95 H29     -7.3990 -14.1763   9.9356   H         4 RES4   0.0000
    96 H30     -7.1578 -13.4219   8.5447   H         4 RES4   0.0000
    97 H31     -6.5875 -14.9023   8.7623   H         4 RES4   0.0000
    98 C27     -5.5726 -13.1331  11.0919   C.3       4 RES4   0.0000
    99 H32     -6.4145 -13.4304  11.4944   H         4 RES4   0.0000
   100 H33     -4.8210 -13.5583  11.5527   H         4 RES4   0.0000
   101 H34     -5.4978 -12.1596  11.1744   H         4 RES4   0.0000
   102 O10     -4.1690  -6.1527  10.5301   O.2       5 RES5   0.0000
   103 N29     -2.7475  -5.7423  12.2439   N.am      5 RES5   0.0000
   104 C28     -3.2849  -6.4922  11.2711   C.2       5 RES5   0.0000
   105 H35     -2.9358  -7.3676  11.1573   H         5 RES5   0.0000
   106 C29     -1.7291  -6.2686  13.1143   C.3       5 RES5   0.0000
   107 H36     -1.4606  -5.5784  13.7571   H         5 RES5   0.0000
   108 H37     -2.0817  -7.0454  13.5978   H         5 RES5   0.0000
   109 H38     -0.9525  -6.5381  12.5824   H         5 RES5   0.0000
   110 C30     -3.2198  -4.4509  12.4899   C.3       5 RES5   0.0000
   111 H39     -2.7134  -4.0534  13.2295   H         5 RES5   0.0000
   112 H40     -3.1047  -3.9027  11.6864   H         5 RES5   0.0000
   113 H41     -4.1701  -4.4894  12.7274   H         5 RES5   0.0000
   114 O11     -4.6914  -2.2843   2.2215   O.2       6 RES6   0.0000
   115 N30     -3.2318  -3.8888   2.8203   N.am      6 RES6   0.0000
   116 C31     -4.1449  -3.3278   2.0466   C.2       6 RES6   0.0000
   117 H42     -4.3921  -3.8094   1.2658   H         6 RES6   0.0000
   118 C32     -2.7834  -3.1958   3.9964   C.3       6 RES6   0.0000
   119 H43     -2.1103  -3.7381   4.4587   H         6 RES6   0.0000
   120 H44     -2.3892  -2.3359   3.7376   H         6 RES6   0.0000
   121 H45     -3.5442  -3.0382   4.5923   H         6 RES6   0.0000
   122 C33     -2.7540  -5.2668   2.5230   C.3       6 RES6   0.0000
   123 H46     -2.0826  -5.5302   3.1872   H         6 RES6   0.0000
   124 H47     -3.5097  -5.8895   2.5586   H         6 RES6   0.0000
   125 H48     -2.3536  -5.2880   1.6284   H         6 RES6   0.0000
   126 O12     -5.7638   0.3225  19.5982   O.2       7 RES7   0.0000
   127 N31     -6.0989  -1.7323  18.9169   N.am      7 RES7   0.0000
   128 C34     -6.4035  -0.5154  18.9368   C.2       7 RES7   0.0000
   129 H49     -7.1500  -0.2240  18.4277   H         7 RES7   0.0000
   130 C35     -6.8236  -2.7623  18.2044   C.3       7 RES7   0.0000
   131 H50     -6.3853  -3.6276  18.3466   H         7 RES7   0.0000
   132 H51     -7.7439  -2.8047  18.5372   H         7 RES7   0.0000
   133 H52     -6.8312  -2.5543  17.2472   H         7 RES7   0.0000
   134 C36     -4.9885  -2.2299  19.7774   C.3       7 RES7   0.0000
   135 H53     -4.8784  -3.1948  19.6451   H         7 RES7   0.0000
   136 H54     -4.1565  -1.7715  19.5342   H         7 RES7   0.0000
   137 H55     -5.1973  -2.0498  20.7175   H         7 RES7   0.0000
   138 O13      9.8287  -1.1601  12.8697   O.2       8 RES8   0.0000
   139 N32      7.8843  -0.5005  14.3644   N.am      8 RES8   0.0000
   140 C37      8.9569  -1.1427  14.0743   C.2       8 RES8   0.0000
   141 H56      9.2528  -1.7206  14.7683   H         8 RES8   0.0000
   142 C38      7.2325   0.2566  13.3859   C.3       8 RES8   0.0000
   143 H57      7.7063   0.1652  12.5326   H         8 RES8   0.0000
   144 H58      6.3124  -0.0638  13.2849   H         8 RES8   0.0000
   145 H59      7.2241   1.1994  13.6547   H         8 RES8   0.0000
   146 C39      7.4252  -0.5501  15.6615   C.3       8 RES8   0.0000
   147 H60      8.0106  -1.1286  16.1934   H         8 RES8   0.0000
   148 H61      7.4251   0.3532  16.0426   H         8 RES8   0.0000
   149 H62      6.5133  -0.9084  15.6728   H         8 RES8   0.0000
@<TRIPOS>BOND
     1     1     8    1
     2     2     3    1
     3     4     2    1
     4     5     6    1
     5     6    36    2
     6     7     8    2
     7     8    37    1
     8     9    10    1
     9    10    35    1
    10    11    12    1
    11    12     1    1
    12    13    14    1
    13    15    13    1
    14    16    17    1
    15    17    51    2
    16    18    19    2
    17    19     1    1
    18    20    21    1
    19    21    50    1
    20    22    23    1
    21    23     1    1
    22    24    25    1
    23    26    24    1
    24    27    28    1
    25    28    66    2
    26    29    30    2
    27    30     1    1
    28    31    32    1
    29    32    65    1
    30    33    34    1
    31    34     1    1
    32    35     2    1
    33    36     7    1
    34    37     9    2
    35    38    39    1
    36    40    38    1
    37    41    38    1
    38    42    12    2
    39    43    42    1
    40    44    43    1
    41    45    11    1
    42    46    45    1
    43    47    46    1
    44    48    46    1
    45    49    46    1
    46    50    13    1
    47    51    18    1
    48    52    19    1
    49    53    54    1
    50    55    53    1
    51    56    53    1
    52    57    23    2
    53    58    57    1
    54    59    58    1
    55    60    22    1
    56    61    60    1
    57    62    61    1
    58    63    61    1
    59    64    61    1
    60    65    24    1
    61    66    29    1
    62    67    30    1
    63    68    69    1
    64    70    68    1
    65    71    68    1
    66    72    33    1
    67    73    72    2
    68    74    73    1
    69    75    34    2
    70    76    75    1
    71    77    76    1
    72    78    76    1
    73    79    76    1
    74     5    35    2
    75    10    36    1
    76    11    37    1
    77    16    50    2
    78    20    52    2
    79    21    51    1
    80    22    52    1
    81    27    65    2
    82    31    67    2
    83    32    66    1
    84    33    67    1
    85    38    42    1
    86    43    45    2
    87    53    57    1
    88    58    60    2
    89    68    72    1
    90    73    75    1
    91    80    81    2
    92    82    80    2
    93    83    80    1
    94    84    80    2
    95    85    86    2
    96    87    85    1
    97    88    85    2
    98    89    85    2
    99    90    92    2
   100    91    92   am
   101    92    93    1
   102    94    91    1
   103    95    94    1
   104    96    94    1
   105    97    94    1
   106    98    91    1
   107    99    98    1
   108   100    98    1
   109   101    98    1
   110   102   104    2
   111   103   104   am
   112   104   105    1
   113   106   103    1
   114   107   106    1
   115   108   106    1
   116   109   106    1
   117   110   103    1
   118   111   110    1
   119   112   110    1
   120   113   110    1
   121   114   116    2
   122   115   116   am
   123   116   117    1
   124   118   115    1
   125   119   118    1
   126   120   118    1
   127   121   118    1
   128   122   115    1
   129   123   122    1
   130   124   122    1
   131   125   122    1
   132   126   128    2
   133   127   128   am
   134   128   129    1
   135   130   127    1
   136   131   130    1
   137   132   130    1
   138   133   130    1
   139   134   127    1
   140   135   134    1
   141   136   134    1
   142   137   134    1
   143   138   140    2
   144   139   140   am
   145   140   141    1
   146   142   139    1
   147   143   142    1
   148   144   142    1
   149   145   142    1
   150   146   139    1
   151   147   146    1
   152   148   146    1
   153   149   146    1
@<TRIPOS>SUBSTRUCTURE
     1 RES1        1 GROUP             0 ****  ****    0  
     2 RES2       80 GROUP             0 ****  ****    0  
     3 RES3       85 GROUP             0 ****  ****    0  
     4 RES4       90 GROUP             0 ****  ****    0  
     5 RES5      102 GROUP             0 ****  ****    0  
     6 RES6      114 GROUP             0 ****  ****    0  
     7 RES7      126 GROUP             0 ****  ****    0  
     8 RES8      138 GROUP             0 ****  ****    0  
@<TRIPOS>CRYSIN
   12.9410   15.7900   16.2800  115.9550  100.0850   94.8380     2     1
