@<TRIPOS>MOLECULE
IMELAN
    98   110     1     0     0
SMALL
NO_CHARGES
****
Generated from the CSD

@<TRIPOS>ATOM
     1 Fe1      3.0377   1.9501   3.6949   Fe        1 RES1   0.0000
     2 N1       1.3889   2.5352   2.6967   N.2       1 RES1   0.0000
     3 N2       3.7576   3.8299   3.5690   N.2       1 RES1   0.0000
     4 N3       4.6025   1.4376   4.8271   N.2       1 RES1   0.0000
     5 N4       2.2513   0.1297   3.9147   N.2       1 RES1   0.0000
     6 N5       3.8787   1.3752   2.2624   N.2       1 RES1   0.0000
     7 O1       4.4324   0.4204   1.8742   O.2       1 RES1   0.0000
     8 N6       1.9623   2.3603   5.6610   N.ar      1 RES1   0.0000
     9 C1       0.2995   1.7575   2.3615   C.2       1 RES1   0.0000
    10 C2       1.1652   3.7588   2.1085   C.2       1 RES1   0.0000
    11 C3       3.2303   4.8708   2.8391   C.2       1 RES1   0.0000
    12 C4       4.9628   4.2926   4.0552   C.2       1 RES1   0.0000
    13 C5       5.6911   2.2189   5.1559   C.2       1 RES1   0.0000
    14 C6       4.8267   0.2158   5.4179   C.2       1 RES1   0.0000
    15 C7       2.8159  -0.9348   4.5817   C.2       1 RES1   0.0000
    16 C8       1.0619  -0.3403   3.3979   C.2       1 RES1   0.0000
    17 C9      -0.6397   2.5224   1.5745   C.2       1 RES1   0.0000
    18 H1      -1.4754   2.2196   1.2393   H         1 RES1   0.0000
    19 C10     -0.1017   3.7538   1.4070   C.2       1 RES1   0.0000
    20 H2      -0.4820   4.4758   0.9214   H         1 RES1   0.0000
    21 C11      4.1163   6.0116   2.8788   C.2       1 RES1   0.0000
    22 H3       3.9757   6.8509   2.4564   H         1 RES1   0.0000
    23 C12      5.1854   5.6572   3.6333   C.2       1 RES1   0.0000
    24 H4       5.9353   6.2005   3.8444   H         1 RES1   0.0000
    25 C13      6.6040   1.4695   5.9822   C.2       1 RES1   0.0000
    26 H5       7.4265   1.7800   6.3418   H         1 RES1   0.0000
    27 C14      6.0654   0.2371   6.1483   C.2       1 RES1   0.0000
    28 H6       6.4364  -0.4782   6.6512   H         1 RES1   0.0000
    29 C15      1.9638  -2.0947   4.4692   C.2       1 RES1   0.0000
    30 H7       2.1275  -2.9533   4.8410   H         1 RES1   0.0000
    31 C16      0.8872  -1.7269   3.7338   C.2       1 RES1   0.0000
    32 H8       0.1551  -2.2799   3.4871   H         1 RES1   0.0000
    33 C17      2.0204   4.8586   2.1448   C.2       1 RES1   0.0000
    34 C18      5.8778   3.5558   4.7984   C.2       1 RES1   0.0000
    35 C19      4.0035  -0.9092   5.3095   C.2       1 RES1   0.0000
    36 C20      0.1248   0.4168   2.6923   C.2       1 RES1   0.0000
    37 C21      1.6409   6.0735   1.3555   C.ar      1 RES1   0.0000
    38 C22      2.1435   6.2571   0.0684   C.ar      1 RES1   0.0000
    39 H9       2.7172   5.6020  -0.3111   H         1 RES1   0.0000
    40 C23      1.8123   7.3928  -0.6646   C.ar      1 RES1   0.0000
    41 H10      2.1544   7.5050  -1.5436   H         1 RES1   0.0000
    42 C24      0.9845   8.3612  -0.1161   C.ar      1 RES1   0.0000
    43 H11      0.7823   9.1508  -0.6051   H         1 RES1   0.0000
    44 C25      0.4539   8.1688   1.1509   C.ar      1 RES1   0.0000
    45 H12     -0.1319   8.8181   1.5231   H         1 RES1   0.0000
    46 C26      0.7754   7.0293   1.8779   C.ar      1 RES1   0.0000
    47 H13      0.3997   6.9014   2.7419   H         1 RES1   0.0000
    48 C27      7.1470   4.2236   5.2290   C.ar      1 RES1   0.0000
    49 C28      7.1855   4.9775   6.3943   C.ar      1 RES1   0.0000
    50 H14      6.3928   5.1026   6.9025   H         1 RES1   0.0000
    51 C29      8.3818   5.5515   6.8235   C.ar      1 RES1   0.0000
    52 H15      8.4059   6.0483   7.6324   H         1 RES1   0.0000
    53 C30      9.5317   5.3984   6.0745   C.ar      1 RES1   0.0000
    54 H16     10.3485   5.7821   6.3726   H         1 RES1   0.0000
    55 C31      9.4937   4.6914   4.8982   C.ar      1 RES1   0.0000
    56 H17     10.2799   4.6090   4.3709   H         1 RES1   0.0000
    57 C32      8.3095   4.0926   4.4721   C.ar      1 RES1   0.0000
    58 H18      8.2946   3.5941   3.6632   H         1 RES1   0.0000
    59 C33      4.4132  -2.1517   6.0398   C.ar      1 RES1   0.0000
    60 C34      4.1598  -2.2687   7.4064   C.ar      1 RES1   0.0000
    61 H19      3.7483  -1.5504   7.8734   H         1 RES1   0.0000
    62 C35      4.5040  -3.4267   8.0890   C.ar      1 RES1   0.0000
    63 H20      4.3240  -3.4969   9.0187   H         1 RES1   0.0000
    64 C36      5.1085  -4.4818   7.4242   C.ar      1 RES1   0.0000
    65 H21      5.3334  -5.2766   7.8939   H         1 RES1   0.0000
    66 C37      5.3835  -4.3700   6.0685   C.ar      1 RES1   0.0000
    67 H22      5.8048  -5.0859   5.6085   H         1 RES1   0.0000
    68 C38      5.0395  -3.2054   5.3841   C.ar      1 RES1   0.0000
    69 H23      5.2356  -3.1307   4.4581   H         1 RES1   0.0000
    70 C39     -1.1682  -0.2338   2.3027   C.ar      1 RES1   0.0000
    71 C40     -1.2585  -1.0478   1.1805   C.ar      1 RES1   0.0000
    72 H24     -0.4822  -1.2271   0.6632   H         1 RES1   0.0000
    73 C41     -2.4842  -1.6028   0.8106   C.ar      1 RES1   0.0000
    74 H25     -2.5397  -2.1577   0.0410   H         1 RES1   0.0000
    75 C42     -3.6171  -1.3474   1.5588   C.ar      1 RES1   0.0000
    76 H26     -4.4540  -1.7110   1.2940   H         1 RES1   0.0000
    77 C43     -3.5319  -0.5617   2.6952   C.ar      1 RES1   0.0000
    78 H27     -4.3052  -0.4046   3.2239   H         1 RES1   0.0000
    79 C44     -2.3113  -0.0022   3.0630   C.ar      1 RES1   0.0000
    80 H28     -2.2584   0.5422   3.8393   H         1 RES1   0.0000
    81 C45      2.5842   2.4503   6.8471   C.ar      1 RES1   0.0000
    82 H29      3.5146   2.6410   6.8375   H         1 RES1   0.0000
    83 C46      1.9812   2.2874   8.0825   C.ar      1 RES1   0.0000
    84 H30      2.4901   2.3712   8.8803   H         1 RES1   0.0000
    85 C47      0.6017   1.9957   8.1423   C.ar      1 RES1   0.0000
    86 C48     -0.0656   1.9577   6.9081   C.ar      1 RES1   0.0000
    87 H31     -1.0043   1.8108   6.8803   H         1 RES1   0.0000
    88 C49      0.6373   2.1327   5.7381   C.ar      1 RES1   0.0000
    89 H32      0.1508   2.0898   4.9230   H         1 RES1   0.0000
    90 N7      -0.0487   1.7552   9.3151   N.pl3     1 RES1   0.0000
    91 C50     -1.4548   1.3654   9.2989   C.3       1 RES1   0.0000
    92 H33     -1.9967   2.1130   8.9691   H         1 RES1   0.0000
    93 H34     -1.7396   1.1317  10.2067   H         1 RES1   0.0000
    94 H35     -1.5721   0.5909   8.7093   H         1 RES1   0.0000
    95 C51      0.6643   1.7664  10.5835   C.3       1 RES1   0.0000
    96 H36      1.2597   0.9886  10.6307   H         1 RES1   0.0000
    97 H37      0.0204   1.7290  11.3213   H         1 RES1   0.0000
    98 H38      1.1933   2.5881  10.6529   H         1 RES1   0.0000
@<TRIPOS>BOND
     1     1     2    1
     2     2     9    1
     3     3     1    1
     4     4     1    1
     5     5     1    1
     6     6     1    1
     7     7     6    2
     8     8     1    1
     9     9    17    1
    10    10     2    1
    11    11     3    2
    12    12     3    1
    13    13     4    1
    14    14     4    1
    15    15     5    1
    16    16     5    2
    17    17    18    1
    18    19    10    1
    19    20    19    1
    20    21    11    1
    21    22    21    1
    22    23    12    1
    23    24    23    1
    24    25    13    2
    25    26    25    1
    26    27    14    2
    27    28    27    1
    28    29    15    1
    29    30    29    1
    30    31    16    1
    31    32    31    1
    32    33    10    2
    33    34    12    2
    34    35    14    1
    35    36     9    2
    36    37    33    1
    37    38    37   ar
    38    39    38    1
    39    40    38   ar
    40    41    40    1
    41    42    40   ar
    42    43    42    1
    43    44    42   ar
    44    45    44    1
    45    46    37   ar
    46    47    46    1
    47    48    34    1
    48    49    48   ar
    49    50    49    1
    50    51    49   ar
    51    52    51    1
    52    53    51   ar
    53    54    53    1
    54    55    53   ar
    55    56    55    1
    56    57    48   ar
    57    58    57    1
    58    59    35    1
    59    60    59   ar
    60    61    60    1
    61    62    60   ar
    62    63    62    1
    63    64    62   ar
    64    65    64    1
    65    66    64   ar
    66    67    66    1
    67    68    59   ar
    68    69    68    1
    69    70    36    1
    70    71    70   ar
    71    72    71    1
    72    73    71   ar
    73    74    73    1
    74    75    73   ar
    75    76    75    1
    76    77    75   ar
    77    78    77    1
    78    79    70   ar
    79    80    79    1
    80    81     8   ar
    81    82    81    1
    82    83    81   ar
    83    84    83    1
    84    85    83   ar
    85    86    85   ar
    86    87    86    1
    87    88     8   ar
    88    89    88    1
    89    90    85    1
    90    91    90    1
    91    92    91    1
    92    93    91    1
    93    94    91    1
    94    95    90    1
    95    96    95    1
    96    97    95    1
    97    98    95    1
    98    11    33    1
    99    13    34    1
   100    15    35    2
   101    16    36    1
   102    17    19    2
   103    21    23    2
   104    25    27    1
   105    29    31    2
   106    44    46   ar
   107    55    57   ar
   108    66    68   ar
   109    77    79   ar
   110    86    88   ar
@<TRIPOS>SUBSTRUCTURE
     1 RES1        1 GROUP             0 ****  ****    0  
@<TRIPOS>CRYSIN
   10.8807   11.1420   17.1221   90.1900   93.1130  105.6130     2     1
