@<TRIPOS>MOLECULE
IMONUU
    76    79     6     0     0
SMALL
USER_CHARGES
****
Generated from the CSD

@<TRIPOS>ATOM
     1 Fe1      4.7321   4.9621   3.4925   Fe        1 RES1  -3.0000
     2 O1       3.7044   6.5534   2.8349   O.co2     1 RES1   0.0000
     3 O2       1.6902   7.1617   2.0859   O.co2     1 RES1   0.0000
     4 O3       3.0365   4.1028   3.0738   O.co2     1 RES1   0.0000
     5 O4       1.0064   4.4817   2.2401   O.co2     1 RES1   0.0000
     6 C1       2.5214   6.3081   2.4773   C.2       1 RES1   0.0000
     7 C2       2.0951   4.8606   2.5671   C.2       1 RES1   0.0000
     8 O5       6.2367   6.1702   4.1227   O.co2     1 RES1   0.0000
     9 O6       6.9871   7.2648   5.9358   O.co2     1 RES1   0.0000
    10 O7       4.2366   5.1786   5.4494   O.co2     1 RES1   0.0000
    11 O8       4.7677   6.3342   7.2727   O.co2     1 RES1   0.0000
    12 C3       6.1692   6.5476   5.3681   C.2       1 RES1   0.0000
    13 C4       4.9586   5.9785   6.1137   C.2       1 RES1   0.0000
    14 O9       5.6618   4.8026   1.6809   O.co2     1 RES1   0.0000
    15 O10      7.3220   3.7006   0.6812   O.co2     1 RES1   0.0000
    16 O11      5.7953   3.2840   3.7990   O.co2     1 RES1   0.0000
    17 O12      7.5356   2.1283   2.9264   O.co2     1 RES1   0.0000
    18 C5       6.5632   3.8894   1.6047   C.2       1 RES1   0.0000
    19 C6       6.6528   2.9965   2.8789   C.2       1 RES1   0.0000
    20 S1       9.2533   5.0544   8.1493   S.3       2 RES2   0.0000
    21 N1       7.0425   5.2294   9.4196   N.pl3     2 RES2   1.0000
    22 H1       6.2188   5.1205   9.6433   H         2 RES2   0.0000
    23 N2       6.9612   3.7485   7.6201   N.pl3     2 RES2   0.0000
    24 H2       7.4750   3.4335   7.0473   H         2 RES2   0.0000
    25 H3       6.1192   3.6527   7.6489   H         2 RES2   0.0000
    26 C7       7.6022   4.6037   8.4165   C.2       2 RES2   0.0000
    27 C8       9.1732   6.1324   9.5382   C.ar      2 RES2   0.0000
    28 C9      10.1715   6.9222  10.0618   C.ar      2 RES2   0.0000
    29 H4      11.0260   6.9149   9.6941   H         2 RES2   0.0000
    30 C10      9.8701   7.7366  11.1632   C.ar      2 RES2   0.0000
    31 H5      10.5218   8.2883  11.5309   H         2 RES2   0.0000
    32 C11      8.6186   7.7105  11.6851   C.ar      2 RES2   0.0000
    33 H6       8.4274   8.2709  12.4019   H         2 RES2   0.0000
    34 C12      7.6132   6.8961  11.2056   C.ar      2 RES2   0.0000
    35 H7       6.7721   6.8786  11.6055   H         2 RES2   0.0000
    36 C13      7.9107   6.0918  10.0906   C.ar      2 RES2   0.0000
    37 S2       1.0992  -0.0595   7.9568   S.3       3 RES3   0.0000
    38 N3       2.7595  -0.4602   6.0662   N.pl3     3 RES3   1.0000
    39 H8       3.4535  -0.4051   5.5630   H         3 RES3   0.0000
    40 N4       3.4456   1.1702   7.5642   N.pl3     3 RES3   0.0000
    41 H9       4.0836   1.3298   6.8457   H         3 RES3   0.0000
    42 H10      3.5134   1.4925   8.4029   H         3 RES3   0.0000
    43 C14      2.6128   0.2773   7.1473   C.2       3 RES3   0.0000
    44 C15      0.6754  -1.2340   6.7356   C.ar      3 RES3   0.0000
    45 C16     -0.4687  -1.9701   6.6169   C.ar      3 RES3   0.0000
    46 H11     -1.1705  -1.8699   7.2185   H         3 RES3   0.0000
    47 C17     -0.5459  -2.8688   5.5731   C.ar      3 RES3   0.0000
    48 H12     -1.3026  -3.4030   5.4867   H         3 RES3   0.0000
    49 C18      0.4676  -2.9922   4.6632   C.ar      3 RES3   0.0000
    50 H13      0.3875  -3.6092   3.9719   H         3 RES3   0.0000
    51 C19      1.5821  -2.2329   4.7530   C.ar      3 RES3   0.0000
    52 H14      2.2590  -2.3098   4.1210   H         3 RES3   0.0000
    53 C20      1.6984  -1.3473   5.7917   C.ar      3 RES3   0.0000
    54 S3       8.4833   9.8272   8.3258   S.3       4 RES4   0.0000
    55 N5       6.5570  10.1553  10.0991   N.pl3     4 RES4   1.0000
    56 H15      5.8057  10.0842  10.5125   H         4 RES4   0.0000
    57 N6       6.1544   8.5656   8.3724   N.pl3     4 RES4   0.0000
    58 H16      5.2220   8.3827   8.6588   H         4 RES4   0.0000
    59 H17      6.5697   8.0923   7.7048   H         4 RES4   0.0000
    60 C21      6.9414   9.4904   9.0112   C.2       4 RES4   0.0000
    61 C22      8.7359  10.9408   9.5975   C.ar      4 RES4   0.0000
    62 C23      9.8210  11.7755   9.8619   C.ar      4 RES4   0.0000
    63 H18     10.5799  11.7581   9.3247   H         4 RES4   0.0000
    64 C24      9.7378  12.6336  10.9480   C.ar      4 RES4   0.0000
    65 H19     10.4283  13.2273  11.1378   H         4 RES4   0.0000
    66 C25      8.6554  12.5886  11.7089   C.ar      4 RES4   0.0000
    67 H20      8.6375  13.1620  12.4426   H         4 RES4   0.0000
    68 C26      7.5951  11.8133  11.5360   C.ar      4 RES4   0.0000
    69 H21      6.8755  11.8220  12.1240   H         4 RES4   0.0000
    70 C27      7.6252  10.9916  10.4295   C.ar      4 RES4   0.0000
    71 O13      5.6257   1.5404   5.9815   O.3       5 RES5   0.0000
    72 H22      6.2073   0.9335   5.7697   H         5 RES5   0.0000
    73 H23      5.6677   2.1124   5.2851   H         5 RES5   0.0000
    74 O14      2.4982   9.7706   2.7196   O.3       6 RES6   0.0000
    75 H24      2.7757   9.5398   3.6177   H         6 RES6   0.0000
    76 H25      2.4832   9.0273   2.2367   H         6 RES6   0.0000
@<TRIPOS>BOND
     1     1     2    1
     2     2     6    1
     3     3     6    2
     4     4     1    1
     5     5     7    2
     6     6     7    1
     7     7     4    1
     8     8     1    1
     9     9    12    2
    10    10     1    1
    11    11    13    2
    12    12     8    1
    13    13    10    1
    14    14     1    1
    15    15    18    2
    16    16     1    1
    17    17    19    2
    18    18    14    1
    19    19    16    1
    20    12    13    1
    21    18    19    1
    22    20    26    1
    23    21    22    1
    24    23    24    1
    25    25    23    1
    26    26    21    2
    27    27    20    1
    28    28    27   ar
    29    29    28    1
    30    30    28   ar
    31    31    30    1
    32    32    30   ar
    33    33    32    1
    34    34    32   ar
    35    35    34    1
    36    36    21    1
    37    23    26    1
    38    27    36   ar
    39    34    36   ar
    40    37    43    1
    41    38    39    1
    42    40    41    1
    43    42    40    1
    44    43    38    2
    45    44    37    1
    46    45    44   ar
    47    46    45    1
    48    47    45   ar
    49    48    47    1
    50    49    47   ar
    51    50    49    1
    52    51    49   ar
    53    52    51    1
    54    53    38    1
    55    40    43    1
    56    44    53   ar
    57    51    53   ar
    58    54    60    1
    59    55    56    1
    60    57    58    1
    61    59    57    1
    62    60    55    2
    63    61    54    1
    64    62    61   ar
    65    63    62    1
    66    64    62   ar
    67    65    64    1
    68    66    64   ar
    69    67    66    1
    70    68    66   ar
    71    69    68    1
    72    70    55    1
    73    57    60    1
    74    61    70   ar
    75    68    70   ar
    76    71    72    1
    77    73    71    1
    78    74    75    1
    79    76    74    1
@<TRIPOS>SUBSTRUCTURE
     1 RES1        1 GROUP             0 ****  ****    0  
     2 RES2       20 GROUP             0 ****  ****    0  
     3 RES3       37 GROUP             0 ****  ****    0  
     4 RES4       54 GROUP             0 ****  ****    0  
     5 RES5       71 GROUP             0 ****  ****    0  
     6 RES6       74 GROUP             0 ****  ****    0  
@<TRIPOS>CRYSIN
   13.8564   14.5180   17.7860   90.0000  107.6920   90.0000    14     1
