@<TRIPOS>MOLECULE
INOXAK
    79    82     2     0     0
SMALL
USER_CHARGES
****
Generated from the CSD

@<TRIPOS>ATOM
     1 Fe1      4.9984   3.4766   3.0698   Fe        1 RES1   0.0000
     2 O1       2.9976   3.4846   2.9712   O.co2     1 RES1   0.0000
     3 O2       1.0988   3.4831   4.1215   O.co2     1 RES1   0.0000
     4 O3       5.1872   3.5130   1.2130   O.3       1 RES1   0.0000
     5 O4       3.8044  -1.3781   0.5161   O.2       1 RES1   0.0000
     6 O5       3.9139   8.4355   0.5992   O.2       1 RES1   0.0000
     7 N1       4.5726   3.4736   5.2223   N.3       1 RES1   0.0000
     8 N2       4.8521   1.3404   3.5384   N.ar      1 RES1   0.0000
     9 N3       4.8585   5.6383   3.5661   N.ar      1 RES1   0.0000
    10 N4       4.4188   0.6482   1.3719   N.am      1 RES1   0.0000
    11 N5       4.4274   6.3730   1.4084   N.am      1 RES1   0.0000
    12 N6       7.0857   3.4485   3.5180   N.2       1 RES1   0.0000
    13 N7       7.6108   4.2602   3.3620   N.1       1 RES1   1.0000
    14 N8       8.3746   5.3111   3.1622   N.3       1 RES1  -1.0000
    15 C1       5.1882   2.2481   5.7705   C.3       1 RES1   0.0000
    16 C2       4.9965   1.0745   4.8549   C.ar      1 RES1   0.0000
    17 C3       5.0067  -0.2187   5.3637   C.ar      1 RES1   0.0000
    18 C4       4.8885  -1.2822   4.4831   C.ar      1 RES1   0.0000
    19 C5       4.7303  -1.0304   3.1345   C.ar      1 RES1   0.0000
    20 C6       4.6651   0.2910   2.6884   C.ar      1 RES1   0.0000
    21 C7       3.9210  -0.1872   0.3849   C.2       1 RES1   0.0000
    22 C8       3.5217   0.5317  -0.9229   C.3       1 RES1   0.0000
    23 C9       4.7928   1.0053  -1.6198   C.3       1 RES1   0.0000
    24 C10      2.7909  -0.4547  -1.8239   C.3       1 RES1   0.0000
    25 C11      2.5996   1.7164  -0.6284   C.3       1 RES1   0.0000
    26 C12      5.2141   4.6787   5.7880   C.3       1 RES1   0.0000
    27 C13      5.0374   5.8775   4.8797   C.ar      1 RES1   0.0000
    28 C14      5.0977   7.1408   5.4045   C.ar      1 RES1   0.0000
    29 C15      4.9880   8.2215   4.5618   C.ar      1 RES1   0.0000
    30 C16      4.7717   7.9950   3.2031   C.ar      1 RES1   0.0000
    31 C17      4.6931   6.6892   2.7438   C.ar      1 RES1   0.0000
    32 C18      4.0305   7.2383   0.4141   C.2       1 RES1   0.0000
    33 C19      3.7548   6.6247  -0.9564   C.3       1 RES1   0.0000
    34 C20      2.7369   7.5089  -1.6999   C.3       1 RES1   0.0000
    35 C21      3.2013   5.1963  -0.8762   C.3       1 RES1   0.0000
    36 C22      5.0780   6.6310  -1.7058   C.3       1 RES1   0.0000
    37 C23      3.0967   3.4894   5.3768   C.3       1 RES1   0.0000
    38 C24      2.3213   3.4862   4.0530   C.2       1 RES1   0.0000
    39 C25      6.4360   3.6309   0.5044   C.3       1 RES1   0.0000
    40 H1       4.6183   1.5512   1.1270   H         1 RES1   0.0000
    41 H2       4.5236   5.4511   1.1663   H         1 RES1   0.0000
    42 H3       6.1245   2.3960   5.8958   H         1 RES1   0.0000
    43 H4       4.7936   2.0577   6.6190   H         1 RES1   0.0000
    44 H5       5.0930  -0.3697   6.3011   H         1 RES1   0.0000
    45 H6       4.9213  -2.1805   4.8009   H         1 RES1   0.0000
    46 H7       4.6576  -1.7541   2.5149   H         1 RES1   0.0000
    47 H8       5.3472   0.2674  -1.8326   H         1 RES1   0.0000
    48 H9       4.5597   1.4599  -2.4362   H         1 RES1   0.0000
    49 H10      5.2668   1.6125  -1.0643   H         1 RES1   0.0000
    50 H11      2.0136  -0.7929  -1.3821   H         1 RES1   0.0000
    51 H12      2.5397  -0.0456  -2.6359   H         1 RES1   0.0000
    52 H13      3.3686  -1.2019  -2.0178   H         1 RES1   0.0000
    53 H14      3.0465   2.3504  -0.0671   H         1 RES1   0.0000
    54 H15      2.3457   2.1474  -1.4361   H         1 RES1   0.0000
    55 H16      1.8103   1.4190  -0.1750   H         1 RES1   0.0000
    56 H17      4.8375   4.8612   6.6335   H         1 RES1   0.0000
    57 H18      6.1527   4.5056   5.8915   H         1 RES1   0.0000
    58 H19      5.1954   7.2698   6.3449   H         1 RES1   0.0000
    59 H20      5.0632   9.1120   4.9001   H         1 RES1   0.0000
    60 H21      4.6756   8.7313   2.5951   H         1 RES1   0.0000
    61 H22      3.0976   8.3914  -1.7962   H         1 RES1   0.0000
    62 H23      2.5515   7.1549  -2.5572   H         1 RES1   0.0000
    63 H24      1.9301   7.5655  -1.1970   H         1 RES1   0.0000
    64 H25      2.3807   5.1900  -0.4038   H         1 RES1   0.0000
    65 H26      3.0651   4.8470  -1.7524   H         1 RES1   0.0000
    66 H27      3.8300   4.6362  -0.4199   H         1 RES1   0.0000
    67 H28      5.7187   6.0962  -1.2334   H         1 RES1   0.0000
    68 H29      4.9595   6.2346  -2.5791   H         1 RES1   0.0000
    69 H30      5.4007   7.5042  -1.8049   H         1 RES1   0.0000
    70 H31      2.8285   2.7232   5.8769   H         1 RES1   0.0000
    71 H32      2.8434   4.2744   5.8579   H         1 RES1   0.0000
    72 H33      7.0024   2.8837   0.7304   H         1 RES1   0.0000
    73 H34      6.2859   3.6199  -0.4315   H         1 RES1   0.0000
    74 H35      6.8833   4.4301   0.7479   H         1 RES1   0.0000
    75 O6      12.3757   3.6026   1.7393   O.3       2 RES2   0.0000
    76 C26     11.1639   4.1045   2.1927   C.3       2 RES2   0.0000
    77 H36     11.3298   4.8832   2.7496   H         2 RES2   0.0000
    78 H37     10.6238   4.3719   1.4667   H         2 RES2   0.0000
    79 H38     10.7073   3.4626   2.7219   H         2 RES2   0.0000
@<TRIPOS>BOND
     1     1     2    1
     2     2    38    1
     3     3    38    2
     4     4     1    1
     5     5    21    2
     6     6    32    2
     7     7     1    1
     8     8     1    1
     9     9     1    1
    10    10    20    1
    11    11    31    1
    12    12     1    1
    13    13    12    2
    14    14    13    2
    15    15     7    1
    16    16     8   ar
    17    17    16   ar
    18    18    17   ar
    19    19    18   ar
    20    20     8   ar
    21    21    10   am
    22    22    21    1
    23    23    22    1
    24    24    22    1
    25    25    22    1
    26    26     7    1
    27    27     9   ar
    28    28    27   ar
    29    29    28   ar
    30    30    29   ar
    31    31     9   ar
    32    32    11   am
    33    33    32    1
    34    34    33    1
    35    35    33    1
    36    36    33    1
    37    37     7    1
    38    38    37    1
    39    39     4    1
    40    40    10    1
    41    41    11    1
    42    42    15    1
    43    43    15    1
    44    44    17    1
    45    45    18    1
    46    46    19    1
    47    47    23    1
    48    48    23    1
    49    49    23    1
    50    50    24    1
    51    51    24    1
    52    52    24    1
    53    53    25    1
    54    54    25    1
    55    55    25    1
    56    56    26    1
    57    57    26    1
    58    58    28    1
    59    59    29    1
    60    60    30    1
    61    61    34    1
    62    62    34    1
    63    63    34    1
    64    64    35    1
    65    65    35    1
    66    66    35    1
    67    67    36    1
    68    68    36    1
    69    69    36    1
    70    70    37    1
    71    71    37    1
    72    72    39    1
    73    73    39    1
    74    74    39    1
    75    15    16    1
    76    19    20   ar
    77    26    27    1
    78    30    31   ar
    79    75    76    1
    80    76    77    1
    81    78    76    1
    82    79    76    1
@<TRIPOS>SUBSTRUCTURE
     1 RES1        1 GROUP             0 ****  ****    0  
     2 RES2       75 GROUP             0 ****  ****    0  
@<TRIPOS>CRYSIN
   12.7290   15.7320   14.5940   90.0000   92.5780   90.0000   231     1
