@<TRIPOS>MOLECULE
IPAJOY
    93   109     2     0     0
SMALL
NO_CHARGES
****
Generated from the CSD

@<TRIPOS>ATOM
     1 Fe1      8.9303   4.6703   1.5122   Fe        1 RES1   0.0000
     2 N1      10.0252   5.1856   3.0339   N.2       1 RES1   0.0000
     3 N2      11.4375   6.8789   2.0163   N.2       1 RES1   0.0000
     4 N3       9.8052   6.0058   0.4352   N.2       1 RES1   0.0000
     5 N4       8.5739   5.7824  -1.6366   N.2       1 RES1   0.0000
     6 N5       7.8560   4.1303  -0.0105   N.2       1 RES1   0.0000
     7 N6       6.6003   2.2871   0.9425   N.2       1 RES1   0.0000
     8 N7       8.0625   3.3160   2.5926   N.2       1 RES1   0.0000
     9 N8       9.2098   3.6393   4.7065   N.2       1 RES1   0.0000
    10 N9       6.7725   6.8524   2.1236   N.1       1 RES1   0.0000
    11 N10     11.1539   2.6310   0.7489   N.1       1 RES1   0.0000
    12 C1       9.9923   4.6124   4.2810   C.2       1 RES1   0.0000
    13 C2      11.0364   5.2003   5.1177   C.2       1 RES1   0.0000
    14 C3      11.3967   4.9857   6.4422   C.2       1 RES1   0.0000
    15 C4      12.4722   5.7265   6.9217   C.2       1 RES1   0.0000
    16 C5      13.1774   6.5849   6.1150   C.2       1 RES1   0.0000
    17 C6      12.8286   6.8025   4.7785   C.2       1 RES1   0.0000
    18 C7      11.7198   6.1087   4.3125   C.2       1 RES1   0.0000
    19 C8      11.0579   6.0969   3.0061   C.2       1 RES1   0.0000
    20 C9      10.8201   6.8466   0.8412   C.2       1 RES1   0.0000
    21 C10     11.1663   7.7637  -0.2326   C.2       1 RES1   0.0000
    22 C11     12.1369   8.7397  -0.3347   C.2       1 RES1   0.0000
    23 C12     12.2182   9.4217  -1.5181   C.2       1 RES1   0.0000
    24 C13     11.3517   9.1454  -2.5806   C.2       1 RES1   0.0000
    25 C14     10.3843   8.1547  -2.4928   C.2       1 RES1   0.0000
    26 C15     10.3103   7.4610  -1.2944   C.2       1 RES1   0.0000
    27 C16      9.4852   6.3498  -0.8615   C.2       1 RES1   0.0000
    28 C17      7.8488   4.7506  -1.2374   C.2       1 RES1   0.0000
    29 C18      6.8778   4.1038  -2.1071   C.2       1 RES1   0.0000
    30 C19      6.5182   4.3449  -3.4263   C.2       1 RES1   0.0000
    31 C20      5.5580   3.5100  -3.9771   C.2       1 RES1   0.0000
    32 C21      4.9991   2.4782  -3.2447   C.2       1 RES1   0.0000
    33 C22      5.3696   2.2312  -1.9180   C.2       1 RES1   0.0000
    34 C23      6.3140   3.0661  -1.3680   C.2       1 RES1   0.0000
    35 C24      6.9314   3.1131  -0.0293   C.2       1 RES1   0.0000
    36 C25      7.1361   2.3900   2.1484   C.2       1 RES1   0.0000
    37 C26      6.8044   1.4845   3.2455   C.2       1 RES1   0.0000
    38 C27      5.9913   0.3616   3.3370   C.2       1 RES1   0.0000
    39 C28      5.9236  -0.2852   4.5557   C.2       1 RES1   0.0000
    40 C29      6.6495   0.1558   5.6505   C.2       1 RES1   0.0000
    41 C30      7.4751   1.2553   5.5672   C.2       1 RES1   0.0000
    42 C31      7.5378   1.9108   4.3546   C.2       1 RES1   0.0000
    43 C32      8.3285   3.0514   3.9081   C.2       1 RES1   0.0000
    44 C33      7.5578   6.0352   1.9473   C.1       1 RES1   0.0000
    45 C34     10.3323   3.3660   1.0183   C.1       1 RES1   0.0000
    46 H1      10.9256   4.3596   6.9765   H         1 RES1   0.0000
    47 H2      12.7427   5.6501   7.8649   H         1 RES1   0.0000
    48 H3      13.9368   7.0729   6.4422   H         1 RES1   0.0000
    49 H4      13.3204   7.3786   4.2067   H         1 RES1   0.0000
    50 H5      12.7252   8.9220   0.3850   H         1 RES1   0.0000
    51 H6      12.8599  10.0979  -1.6246   H         1 RES1   0.0000
    52 H7      11.4242   9.6305  -3.3881   H         1 RES1   0.0000
    53 H8       9.7748   7.9460  -3.2545   H         1 RES1   0.0000
    54 H9       6.9162   5.0416  -3.9441   H         1 RES1   0.0000
    55 H10      5.2793   3.6540  -4.8746   H         1 RES1   0.0000
    56 H11      4.3449   1.9137  -3.6537   H         1 RES1   0.0000
    57 H12      4.9947   1.5139  -1.4243   H         1 RES1   0.0000
    58 H13      5.4847   0.0353   2.5941   H         1 RES1   0.0000
    59 H14      5.3698  -1.0612   4.6435   H         1 RES1   0.0000
    60 H15      6.5474  -0.3204   6.4624   H         1 RES1   0.0000
    61 H16      7.9687   1.5228   6.3371   H         1 RES1   0.0000
    62 O1       6.4435  14.8073   2.4801   O.3       2 RES2   0.0000
    63 O2      10.7984  12.6525   1.1946   O.3       2 RES2   0.0000
    64 C35      7.2852  12.5231   2.2167   C.ar      2 RES2   0.0000
    65 C36      8.5297  13.0288   1.8715   C.ar      2 RES2   0.0000
    66 C37      8.7223  14.4104   1.8302   C.ar      2 RES2   0.0000
    67 C38      9.9721  14.9425   1.4693   C.ar      2 RES2   0.0000
    68 C39     10.1887  16.3330   1.3995   C.ar      2 RES2   0.0000
    69 C40      9.0896  17.1825   1.6989   C.ar      2 RES2   0.0000
    70 C41      7.8648  16.6622   2.0598   C.ar      2 RES2   0.0000
    71 C42      7.6709  15.2923   2.1319   C.ar      2 RES2   0.0000
    72 C43      6.2255  13.4227   2.5318   C.ar      2 RES2   0.0000
    73 C44      5.0103  12.9670   2.8898   C.ar      2 RES2   0.0000
    74 C45      4.8138  11.5677   2.9408   C.ar      2 RES2   0.0000
    75 C46      5.7970  10.6711   2.6579   C.ar      2 RES2   0.0000
    76 C47      7.0471  11.1385   2.2625   C.ar      2 RES2   0.0000
    77 C48      8.1269  10.2831   1.8880   C.ar      2 RES2   0.0000
    78 C49      9.3513  10.7975   1.5286   C.ar      2 RES2   0.0000
    79 C50      9.5725  12.1704   1.5361   C.ar      2 RES2   0.0000
    80 C51     11.0156  14.0429   1.1631   C.ar      2 RES2   0.0000
    81 C52     12.2513  14.4986   0.8337   C.ar      2 RES2   0.0000
    82 C53     12.4550  15.9038   0.7579   C.ar      2 RES2   0.0000
    83 C54     11.4569  16.7622   1.0356   C.ar      2 RES2   0.0000
    84 H17      9.2122  18.1086   1.6846   H         2 RES2   0.0000
    85 H18      7.1555  17.2472   2.2392   H         2 RES2   0.0000
    86 H19      4.2607  13.6079   3.1149   H         2 RES2   0.0000
    87 H20      3.9738  11.2444   3.1802   H         2 RES2   0.0000
    88 H21      5.6125   9.7010   2.7682   H         2 RES2   0.0000
    89 H22      8.0479   9.3512   1.8497   H         2 RES2   0.0000
    90 H23     10.1050  10.1919   1.2517   H         2 RES2   0.0000
    91 H24     12.9781  13.8195   0.6641   H         2 RES2   0.0000
    92 H25     13.3542  16.1213   0.5005   H         2 RES2   0.0000
    93 H26     11.7223  17.6411   0.9875   H         2 RES2   0.0000
@<TRIPOS>BOND
     1     1     2    1
     2     2    12    1
     3     3    19    2
     4     4     1    1
     5     5    27    2
     6     6     1    1
     7     7    35    1
     8     8     1    1
     9     9    12    2
    10    10    44    3
    11    11    45    3
    12    12    13    1
    13    13    14    1
    14    14    15    2
    15    15    16    1
    16    16    17    2
    17    17    18    1
    18    18    13    2
    19    19     2    1
    20    20     3    1
    21    21    20    1
    22    22    21    1
    23    23    22    2
    24    24    23    1
    25    25    24    2
    26    26    21    2
    27    27     4    1
    28    28     5    1
    29    29    28    2
    30    30    29    1
    31    31    30    2
    32    32    31    1
    33    33    32    2
    34    34    29    1
    35    35     6    1
    36    36     7    2
    37    37    36    1
    38    38    37    1
    39    39    38    2
    40    40    39    1
    41    41    40    2
    42    42    37    2
    43    43     8    2
    44    44     1    1
    45    45     1    1
    46    46    14    1
    47    47    15    1
    48    48    16    1
    49    49    17    1
    50    50    22    1
    51    51    23    1
    52    52    24    1
    53    53    25    1
    54    54    30    1
    55    55    31    1
    56    56    32    1
    57    57    33    1
    58    58    38    1
    59    59    39    1
    60    60    40    1
    61    61    41    1
    62     4    20    2
    63     6    28    1
    64     8    36    1
    65     9    43    1
    66    18    19    1
    67    25    26    1
    68    26    27    1
    69    33    34    1
    70    34    35    2
    71    41    42    1
    72    42    43    1
    73    62    71    1
    74    63    79    1
    75    64    65   ar
    76    65    66    1
    77    66    67   ar
    78    67    68   ar
    79    68    69   ar
    80    69    70   ar
    81    70    71   ar
    82    71    66   ar
    83    72    62    1
    84    73    72   ar
    85    74    73   ar
    86    75    74   ar
    87    76    64   ar
    88    77    76   ar
    89    78    77   ar
    90    79    65   ar
    91    80    63    1
    92    81    80   ar
    93    82    81   ar
    94    83    68   ar
    95    84    69    1
    96    85    70    1
    97    86    73    1
    98    87    74    1
    99    88    75    1
   100    89    77    1
   101    90    78    1
   102    91    81    1
   103    92    82    1
   104    93    83    1
   105    64    72   ar
   106    67    80   ar
   107    75    76   ar
   108    78    79   ar
   109    82    83   ar
@<TRIPOS>SUBSTRUCTURE
     1 RES1        1 GROUP             0 ****  ****    0  
     2 RES2       62 GROUP             0 ****  ****    0  
@<TRIPOS>CRYSIN
   17.8250   29.3970    7.6800   90.0000  102.2900   90.0000    14     2
