@<TRIPOS>MOLECULE
IPEYUZ
    76    80     1     0     0
SMALL
NO_CHARGES
****
Generated from the CSD

@<TRIPOS>ATOM
     1 Fe1      4.0372   5.9228   3.1963   Fe        1 RES1   0.0000
     2 P1       3.2123   7.9545   3.6202   P.3       1 RES1   0.0000
     3 P2       4.2795   3.7403   2.7829   P.3       1 RES1   0.0000
     4 N1       2.1761   5.5434   2.6056   N.ar      1 RES1   0.0000
     5 C1       1.4715   7.4278   3.9517   C.3       1 RES1   0.0000
     6 H1       1.3853   7.1070   4.8847   H         1 RES1   0.0000
     7 H2       0.8551   8.1923   3.8258   H         1 RES1   0.0000
     8 C2       1.1286   6.3315   3.0000   C.ar      1 RES1   0.0000
     9 C3      -0.1555   6.1069   2.5306   C.ar      1 RES1   0.0000
    10 H3      -0.8753   6.6448   2.8388   H         1 RES1   0.0000
    11 C4      -0.3931   5.1004   1.6117   C.ar      1 RES1   0.0000
    12 H4      -1.2651   4.9565   1.2647   H         1 RES1   0.0000
    13 C5       0.6625   4.3104   1.2118   C.ar      1 RES1   0.0000
    14 H5       0.5201   3.6087   0.5882   H         1 RES1   0.0000
    15 C6       1.9268   4.5368   1.7165   C.ar      1 RES1   0.0000
    16 C7       3.1070   3.6813   1.3612   C.3       1 RES1   0.0000
    17 H6       3.5447   4.0253   0.5423   H         1 RES1   0.0000
    18 H7       2.8162   2.7496   1.1953   H         1 RES1   0.0000
    19 C8       3.6693   8.8657   5.1635   C.3       1 RES1   0.0000
    20 H8       3.4406   8.2508   5.9188   H         1 RES1   0.0000
    21 C9       5.1772   9.1236   5.2788   C.3       1 RES1   0.0000
    22 H9       5.4400   9.8159   4.6364   H         1 RES1   0.0000
    23 H10      5.6657   8.2964   5.0858   H         1 RES1   0.0000
    24 H11      5.3888   9.4235   6.1870   H         1 RES1   0.0000
    25 C10      2.8566  10.1432   5.4058   C.3       1 RES1   0.0000
    26 H12      3.0312  10.4752   6.3117   H         1 RES1   0.0000
    27 H13      1.9017   9.9464   5.3094   H         1 RES1   0.0000
    28 H14      3.1173  10.8262   4.7529   H         1 RES1   0.0000
    29 C11      2.9401   9.2569   2.3212   C.3       1 RES1   0.0000
    30 H15      2.2337   9.8770   2.6635   H         1 RES1   0.0000
    31 C12      2.4041   8.6161   1.0353   C.3       1 RES1   0.0000
    32 H16      2.2594   9.3118   0.3600   H         1 RES1   0.0000
    33 H17      1.5552   8.1645   1.2247   H         1 RES1   0.0000
    34 H18      3.0545   7.9642   0.7000   H         1 RES1   0.0000
    35 C13      4.1776  10.0997   2.0153   C.3       1 RES1   0.0000
    36 H19      4.8801   9.5256   1.6447   H         1 RES1   0.0000
    37 H20      4.4990  10.5203   2.8411   H         1 RES1   0.0000
    38 H21      3.9458  10.7948   1.3647   H         1 RES1   0.0000
    39 C14      3.5613   2.4055   3.8729   C.3       1 RES1   0.0000
    40 H22      3.5368   1.5678   3.3270   H         1 RES1   0.0000
    41 C15      2.1241   2.7008   4.2964   C.3       1 RES1   0.0000
    42 H23      1.8066   1.9886   4.8905   H         1 RES1   0.0000
    43 H24      1.5511   2.7415   3.5023   H         1 RES1   0.0000
    44 H25      2.0918   3.5594   4.7670   H         1 RES1   0.0000
    45 C16      4.4406   2.1185   5.0870   C.3       1 RES1   0.0000
    46 H26      4.6231   2.9552   5.5635   H         1 RES1   0.0000
    47 H27      5.2853   1.7193   4.7917   H         1 RES1   0.0000
    48 H28      3.9769   1.4955   5.6858   H         1 RES1   0.0000
    49 C17      5.8311   3.0138   2.0859   C.3       1 RES1   0.0000
    50 H29      6.0402   3.5489   1.2670   H         1 RES1   0.0000
    51 C18      5.7058   1.5714   1.6212   C.3       1 RES1   0.0000
    52 H30      6.5292   1.3034   1.1612   H         1 RES1   0.0000
    53 H31      4.9477   1.4910   1.0047   H         1 RES1   0.0000
    54 H32      5.5605   0.9895   2.3964   H         1 RES1   0.0000
    55 C19      7.0310   3.1914   3.0223   C.3       1 RES1   0.0000
    56 H33      6.9670   2.5504   3.7611   H         1 RES1   0.0000
    57 H34      7.0340   4.1038   3.3811   H         1 RES1   0.0000
    58 H35      7.8603   3.0334   2.5247   H         1 RES1   0.0000
    59 C20      3.7511   5.5880   5.0564   C.1       1 RES1   0.0000
    60 C21      3.6704   5.3892   6.2458   C.1       1 RES1   0.0000
    61 C22      3.5837   5.1259   7.6587   C.ar      1 RES1   0.0000
    62 C23      4.2749   5.9085   8.5881   C.ar      1 RES1   0.0000
    63 H36      4.8397   6.6072   8.2799   H         1 RES1   0.0000
    64 C24      4.1516   5.6863   9.9517   C.ar      1 RES1   0.0000
    65 H37      4.6306   6.2316  10.5634   H         1 RES1   0.0000
    66 C25      3.3361   4.6756  10.4281   C.ar      1 RES1   0.0000
    67 H38      3.2429   4.5349  11.3622   H         1 RES1   0.0000
    68 C26      2.6564   3.8712   9.5281   C.ar      1 RES1   0.0000
    69 H39      2.0985   3.1724   9.8493   H         1 RES1   0.0000
    70 C27      2.7831   4.0747   8.1599   C.ar      1 RES1   0.0000
    71 H40      2.3260   3.5012   7.5552   H         1 RES1   0.0000
    72 B1       5.7684   6.5459   2.1482   B         1 RES1   0.0000
    73 H41      4.6926   6.2678   1.6588   H         1 RES1   0.0000
    74 H42      5.5788   6.2575   3.3882   H         1 RES1   0.0000
    75 H43      6.5202   5.8711   1.7294   H         1 RES1   0.0000
    76 H44      6.0166   7.6930   2.0000   H         1 RES1   0.0000
@<TRIPOS>BOND
     1     1     2    1
     2     2     5    1
     3     3     1    1
     4     4     1    1
     5     5     6    1
     6     7     5    1
     7     8     4   ar
     8     9     8   ar
     9    10     9    1
    10    11     9   ar
    11    12    11    1
    12    13    11   ar
    13    14    13    1
    14    15     4   ar
    15    16     3    1
    16    17    16    1
    17    18    16    1
    18    19     2    1
    19    20    19    1
    20    21    19    1
    21    22    21    1
    22    23    21    1
    23    24    21    1
    24    25    19    1
    25    26    25    1
    26    27    25    1
    27    28    25    1
    28    29     2    1
    29    30    29    1
    30    31    29    1
    31    32    31    1
    32    33    31    1
    33    34    31    1
    34    35    29    1
    35    36    35    1
    36    37    35    1
    37    38    35    1
    38    39     3    1
    39    40    39    1
    40    41    39    1
    41    42    41    1
    42    43    41    1
    43    44    41    1
    44    45    39    1
    45    46    45    1
    46    47    45    1
    47    48    45    1
    48    49     3    1
    49    50    49    1
    50    51    49    1
    51    52    51    1
    52    53    51    1
    53    54    51    1
    54    55    49    1
    55    56    55    1
    56    57    55    1
    57    58    55    1
    58    59     1    1
    59    60    59    3
    60    61    60    1
    61    62    61   ar
    62    63    62    1
    63    64    62   ar
    64    65    64    1
    65    66    64   ar
    66    67    66    1
    67    68    66   ar
    68    69    68    1
    69    70    61   ar
    70    71    70    1
    71    72    73    1
    72    73     1    1
    73    74     1    1
    74    75    72    1
    75    76    72    1
    76     5     8    1
    77    13    15   ar
    78    15    16    1
    79    68    70   ar
    80    72    74    1
@<TRIPOS>SUBSTRUCTURE
     1 RES1        1 GROUP             0 ****  ****    0  
@<TRIPOS>CRYSIN
   10.0925   11.3904   12.5923   70.8770   80.9650   87.1280     2     1
