@<TRIPOS>MOLECULE
IQACIP
    92    98     2     0     0
SMALL
NO_CHARGES
****
Generated from the CSD

@<TRIPOS>ATOM
     1 C1       3.6082   3.5875  13.6527   C.ar      1 RES1   0.0000
     2 C2       2.7326   4.6300  13.3776   C.ar      1 RES1   0.0000
     3 C3       2.2856   5.4019  14.4585   C.ar      1 RES1   0.0000
     4 H1       1.6801   6.1157  14.2971   H         1 RES1   0.0000
     5 C4       2.7004   5.1520  15.7622   C.ar      1 RES1   0.0000
     6 C5       3.5623   4.0918  15.9817   C.ar      1 RES1   0.0000
     7 H2       3.8454   3.9096  16.8703   H         1 RES1   0.0000
     8 C6       4.0308   3.2799  14.9499   C.ar      1 RES1   0.0000
     9 C7       2.2718   4.9243  11.9887   C.3       1 RES1   0.0000
    10 H3       1.6619   5.6921  12.0039   H         1 RES1   0.0000
    11 H4       3.0448   5.1318  11.4254   H         1 RES1   0.0000
    12 H5       1.8032   4.1428  11.6287   H         1 RES1   0.0000
    13 C8       2.2182   6.0097  16.9185   C.3       1 RES1   0.0000
    14 H6       1.6195   6.7074  16.5772   H         1 RES1   0.0000
    15 H7       1.7343   5.4496  17.5600   H         1 RES1   0.0000
    16 H8       2.9868   6.4254  17.3596   H         1 RES1   0.0000
    17 C9       4.9217   2.1058  15.2349   C.3       1 RES1   0.0000
    18 H9       5.1485   1.6573  14.3924   H         1 RES1   0.0000
    19 H10      5.7429   2.4173  15.6692   H         1 RES1   0.0000
    20 H11      4.4566   1.4779  15.8243   H         1 RES1   0.0000
    21 C10      3.6557   1.5882  12.1132   C.2       1 RES1   0.0000
    22 H12      2.8964   1.1330  12.4581   H         1 RES1   0.0000
    23 C11      4.4471   1.1741  11.1227   C.2       1 RES1   0.0000
    24 H13      4.3595   0.3698  10.6259   H         1 RES1   0.0000
    25 C12      5.2570   3.1867  11.8580   C.3       1 RES1   0.0000
    26 C13      6.5720   2.2078  10.1498   C.ar      1 RES1   0.0000
    27 C14      7.0006   1.2924   9.2041   C.ar      1 RES1   0.0000
    28 C15      8.2314   1.5690   8.6027   C.ar      1 RES1   0.0000
    29 H14      8.5636   0.9532   7.9605   H         1 RES1   0.0000
    30 C16      8.9953   2.6943   8.8897   C.ar      1 RES1   0.0000
    31 C17      8.4626   3.5771   9.8412   C.ar      1 RES1   0.0000
    32 C18      6.2490   0.0384   8.8212   C.3       1 RES1   0.0000
    33 H15      6.7503  -0.4457   8.1337   H         1 RES1   0.0000
    34 H16      6.1429  -0.5319   9.6118   H         1 RES1   0.0000
    35 H17      5.3656   0.2812   8.4734   H         1 RES1   0.0000
    36 C19     10.3057   2.9087   8.1857   C.3       1 RES1   0.0000
    37 H18     10.4704   2.1640   7.5693   H         1 RES1   0.0000
    38 H19     11.0281   2.9519   8.8458   H         1 RES1   0.0000
    39 H20     10.2718   3.7480   7.6816   H         1 RES1   0.0000
    40 C20     10.2552   5.3620  10.1511   C.2       1 RES1   0.0000
    41 H21     10.9217   5.1100   9.5242   H         1 RES1   0.0000
    42 C21     10.3103   6.3839  11.0159   C.2       1 RES1   0.0000
    43 H22     11.0308   6.9952  11.1208   H         1 RES1   0.0000
    44 C22      8.2896   5.3886  11.3605   C.3       1 RES1   0.0000
    45 C23      8.8040   7.3214  12.8116   C.ar      1 RES1   0.0000
    46 C24      8.0278   8.4408  12.5128   C.ar      1 RES1   0.0000
    47 C25      7.7033   9.3103  13.5381   C.ar      1 RES1   0.0000
    48 H23      7.1586  10.0665  13.3553   H         1 RES1   0.0000
    49 C26      8.1702   9.0900  14.8418   C.ar      1 RES1   0.0000
    50 C27      8.9662   7.9750  15.0842   C.ar      1 RES1   0.0000
    51 H24      9.2922   7.8205  15.9647   H         1 RES1   0.0000
    52 C28      9.2969   7.0833  14.0776   C.ar      1 RES1   0.0000
    53 C29      7.5624   8.7233  11.1043   C.3       1 RES1   0.0000
    54 H25      7.8768   8.0128  10.5063   H         1 RES1   0.0000
    55 H26      6.5828   8.7568  11.0835   H         1 RES1   0.0000
    56 H27      7.9243   9.5841  10.8058   H         1 RES1   0.0000
    57 C30     10.1603   5.8855  14.3767   C.3       1 RES1   0.0000
    58 H28     10.4091   5.8917  15.3259   H         1 RES1   0.0000
    59 H29      9.6633   5.0659  14.1757   H         1 RES1   0.0000
    60 H30     10.9706   5.9208  13.8276   H         1 RES1   0.0000
    61 C31      7.8258  10.0527  15.9424   C.3       1 RES1   0.0000
    62 H31      7.2612  10.7692  15.5844   H         1 RES1   0.0000
    63 H32      7.3425   9.5794  16.6517   H         1 RES1   0.0000
    64 H33      8.6489  10.4379  16.3094   H         1 RES1   0.0000
    65 C32      7.7247   3.3006  13.2073   C.3       1 RES1   0.0000
    66 H34      8.1730   2.5690  12.7357   H         1 RES1   0.0000
    67 H35      8.3947   3.8524  13.6656   H         1 RES1   0.0000
    68 H36      7.1017   2.9314  13.8680   H         1 RES1   0.0000
    69 N1       4.1532   2.8185  12.5518   N.pl3     1 RES1   0.0000
    70 N2       5.4269   2.1516  10.9569   N.pl3     1 RES1   0.0000
    71 N3       7.2854   3.3080  10.4538   N.ar      1 RES1   0.0000
    72 N4       9.0229   4.7424  10.3608   N.pl3     1 RES1   0.0000
    73 N5       9.1086   6.3868  11.7411   N.pl3     1 RES1   0.0000
    74 N6       6.0132   5.6726  13.0625   N.1       1 RES1   0.0000
    75 N7       5.6887   6.3129  13.8624   N.1       1 RES1   0.0000
    76 Fe1      6.5995   4.5593  11.7411   Fe        1 RES1   0.0000
    77 I1       5.3274   5.7755   9.6064   I         1 RES1   0.0000
    78 C33     12.1811   2.9368  12.1656   C.3       2 RES2   0.0000
    79 H37     12.0307   2.5649  11.2708   H         2 RES2   0.0000
    80 H38     12.6440   2.2760  12.7204   H         2 RES2   0.0000
    81 H39     11.3201   3.1631  12.5740   H         2 RES2   0.0000
    82 C34     13.0613   4.2308  12.0510   C.ar      2 RES2   0.0000
    83 C35     13.4027   4.9287  13.1876   C.ar      2 RES2   0.0000
    84 H40     13.2385   4.5398  14.0393   H         2 RES2   0.0000
    85 C36     13.9875   6.2005  13.1155   C.ar      2 RES2   0.0000
    86 H41     14.1874   6.6960  13.9014   H         2 RES2   0.0000
    87 C37     14.2691   6.7225  11.8315   C.ar      2 RES2   0.0000
    88 H42     14.6501   7.5889  11.7483   H         2 RES2   0.0000
    89 C38     14.0028   6.0023  10.7145   C.ar      2 RES2   0.0000
    90 H43     14.2068   6.3536   9.8571   H         2 RES2   0.0000
    91 C39     13.4455   4.7779  10.8357   C.ar      2 RES2   0.0000
    92 H44     13.3087   4.2650  10.0491   H         2 RES2   0.0000
@<TRIPOS>BOND
     1     1     2   ar
     2     2     3   ar
     3     3     4    1
     4     5     3   ar
     5     6     5   ar
     6     7     6    1
     7     8     1   ar
     8     9     2    1
     9    10     9    1
    10    11     9    1
    11    12     9    1
    12    13     5    1
    13    14    13    1
    14    15    13    1
    15    16    13    1
    16    17     8    1
    17    18    17    1
    18    19    17    1
    19    20    17    1
    20    21    22    1
    21    23    21    2
    22    24    23    1
    23    25    69    1
    24    26    27   ar
    25    27    28   ar
    26    28    29    1
    27    30    28   ar
    28    31    30   ar
    29    32    27    1
    30    33    32    1
    31    34    32    1
    32    35    32    1
    33    36    30    1
    34    37    36    1
    35    38    36    1
    36    39    36    1
    37    40    41    1
    38    42    40    2
    39    43    42    1
    40    44    72    1
    41    45    46   ar
    42    46    47   ar
    43    47    48    1
    44    49    47   ar
    45    50    49   ar
    46    51    50    1
    47    52    45   ar
    48    53    46    1
    49    54    53    1
    50    55    53    1
    51    56    53    1
    52    57    52    1
    53    58    57    1
    54    59    57    1
    55    60    57    1
    56    61    49    1
    57    62    61    1
    58    63    61    1
    59    64    61    1
    60    65    66    1
    61    67    65    1
    62    68    65    1
    63    69     1    1
    64    70    23    1
    65    71    26   ar
    66    72    31    1
    67    73    42    1
    68    74    75    3
    69    76    25    1
    70    77    76    1
    71     6     8   ar
    72    21    69    1
    73    25    70    1
    74    26    70    1
    75    31    71   ar
    76    40    72    1
    77    44    73    1
    78    44    76    1
    79    45    73    1
    80    50    52   ar
    81    65    76    1
    82    71    76    1
    83    74    76    1
    84    78    79    1
    85    80    78    1
    86    81    78    1
    87    82    78    1
    88    83    82   ar
    89    84    83    1
    90    85    83   ar
    91    86    85    1
    92    87    85   ar
    93    88    87    1
    94    89    87   ar
    95    90    89    1
    96    91    82   ar
    97    92    91    1
    98    89    91   ar
@<TRIPOS>SUBSTRUCTURE
     1 RES1        1 GROUP             0 ****  ****    0  
     2 RES2       78 GROUP             0 ****  ****    0  
@<TRIPOS>CRYSIN
   15.3086   14.7877   32.7561   90.0000   90.0000   90.0000    61     1
