@<TRIPOS>MOLECULE
IQAPEY
    90    97     1     0     0
SMALL
NO_CHARGES
****
Generated from the CSD

@<TRIPOS>ATOM
     1 Fe1      6.7858   8.8129  17.6427   Fe        1 RES1   0.0000
     2 P1       6.8669  10.4966  16.1954   P.3       1 RES1   0.0000
     3 C1       7.1878   7.2774  16.7557   C.3       1 RES1   0.0000
     4 P2       5.4349   9.5042  19.2938   P.3       1 RES1   0.0000
     5 N1       9.2725   9.1361  19.0938   N.1       1 RES1   0.0000
     6 N2       8.3525   9.0199  18.5482   N.1       1 RES1   0.0000
     7 C2       5.0898   8.3110  16.5963   C.3       1 RES1   0.0000
     8 C3       5.8114   7.0985  16.9905   C.3       1 RES1   0.0000
     9 C4       5.2317   8.6643  15.1299   C.ar      1 RES1   0.0000
    10 C5       6.0359   9.7424  14.7648   C.ar      1 RES1   0.0000
    11 C6       6.2047  10.0660  13.4235   C.ar      1 RES1   0.0000
    12 H1       6.7465  10.8067  13.1800   H         1 RES1   0.0000
    13 C7       5.5904   9.3184  12.4488   C.ar      1 RES1   0.0000
    14 H2       5.7137   9.5338  11.5318   H         1 RES1   0.0000
    15 C8       4.7924   8.2518  12.8096   C.ar      1 RES1   0.0000
    16 H3       4.3560   7.7435  12.1359   H         1 RES1   0.0000
    17 C9       4.6222   7.9156  14.1377   C.ar      1 RES1   0.0000
    18 H4       4.0851   7.1680  14.3717   H         1 RES1   0.0000
    19 C10      3.7913   8.7224  17.2570   C.ar      1 RES1   0.0000
    20 C11      3.7881   9.2261  18.5490   C.ar      1 RES1   0.0000
    21 C12      2.5922   9.6090  19.1684   C.ar      1 RES1   0.0000
    22 H5       2.6104   9.9292  20.0625   H         1 RES1   0.0000
    23 C13      1.3859   9.5293  18.4968   C.ar      1 RES1   0.0000
    24 H6       0.5756   9.7857  18.9199   H         1 RES1   0.0000
    25 C14      1.3901   9.0734  17.2143   C.ar      1 RES1   0.0000
    26 H7       0.5689   9.0256  16.7388   H         1 RES1   0.0000
    27 C15      2.5690   8.6711  16.5723   C.ar      1 RES1   0.0000
    28 H8       2.5415   8.3646  15.6728   H         1 RES1   0.0000
    29 C16      5.2158   5.8791  17.5839   C.ar      1 RES1   0.0000
    30 C17      3.8785   5.5338  17.3611   C.ar      1 RES1   0.0000
    31 H9       3.3219   6.1105  16.8508   H         1 RES1   0.0000
    32 C18      3.3589   4.3544  17.8796   C.ar      1 RES1   0.0000
    33 H10      2.4472   4.1379  17.7200   H         1 RES1   0.0000
    34 C19      4.1305   3.4997  18.6130   C.ar      1 RES1   0.0000
    35 H11      3.7623   2.6963  18.9609   H         1 RES1   0.0000
    36 C20      5.4470   3.8176  18.8390   C.ar      1 RES1   0.0000
    37 H12      5.9910   3.2250  19.3436   H         1 RES1   0.0000
    38 C21      5.9966   4.9937  18.3391   C.ar      1 RES1   0.0000
    39 H13      6.9077   5.1988  18.5099   H         1 RES1   0.0000
    40 C22      8.2021   6.3259  16.3124   C.ar      1 RES1   0.0000
    41 C23      9.5353   6.4148  16.7270   C.ar      1 RES1   0.0000
    42 H14      9.7912   7.0666  17.3674   H         1 RES1   0.0000
    43 C24     10.4853   5.5430  16.2003   C.ar      1 RES1   0.0000
    44 H15     11.3867   5.5908  16.4928   H         1 RES1   0.0000
    45 C25     10.1155   4.6062  15.2436   C.ar      1 RES1   0.0000
    46 H16     10.7668   4.0239  14.8719   H         1 RES1   0.0000
    47 C26      8.8049   4.5219  14.8364   C.ar      1 RES1   0.0000
    48 H17      8.5538   3.8780  14.1858   H         1 RES1   0.0000
    49 C27      7.8567   5.3595  15.3658   C.ar      1 RES1   0.0000
    50 H18      6.9525   5.2820  15.0851   H         1 RES1   0.0000
    51 C28      8.5408  10.9435  15.5457   C.3       1 RES1   0.0000
    52 H19      8.4158  11.5087  14.7298   H         1 RES1   0.0000
    53 C29      6.0295  12.1640  16.3277   C.3       1 RES1   0.0000
    54 H20      6.3005  12.5606  17.2061   H         1 RES1   0.0000
    55 C30      9.3235  11.7651  16.5756   C.3       1 RES1   0.0000
    56 H21     10.1991  12.0033  16.2058   H         1 RES1   0.0000
    57 H22      9.4461  11.2341  17.3920   H         1 RES1   0.0000
    58 H23      8.8266  12.5811  16.7880   H         1 RES1   0.0000
    59 C31      9.3078   9.6842  15.1349   C.3       1 RES1   0.0000
    60 H24     10.1929   9.9361  14.8008   H         1 RES1   0.0000
    61 H25      8.8127   9.2159  14.4318   H         1 RES1   0.0000
    62 H26      9.4082   9.0951  15.9106   H         1 RES1   0.0000
    63 C32      6.3806  13.1839  15.2488   C.3       1 RES1   0.0000
    64 H27      5.8885  14.0147  15.4131   H         1 RES1   0.0000
    65 H28      6.1346  12.8261  14.3690   H         1 RES1   0.0000
    66 H29      7.3435  13.3640  15.2710   H         1 RES1   0.0000
    67 C33      4.5135  11.9976  16.3627   C.3       1 RES1   0.0000
    68 H30      4.0949  12.8569  16.5775   H         1 RES1   0.0000
    69 H31      4.2731  11.3378  17.0476   H         1 RES1   0.0000
    70 H32      4.1984  11.6888  15.4869   H         1 RES1   0.0000
    71 C34      5.2997   8.6381  20.9191   C.3       1 RES1   0.0000
    72 H33      4.5630   9.0803  21.4318   H         1 RES1   0.0000
    73 C35      5.4941  11.3161  19.8211   C.3       1 RES1   0.0000
    74 H34      5.1424  11.8369  19.0429   H         1 RES1   0.0000
    75 C36      4.9289   7.2102  20.7567   C.3       1 RES1   0.0000
    76 H35      4.6391   6.8478  21.6204   H         1 RES1   0.0000
    77 H36      5.7045   6.7053  20.4342   H         1 RES1   0.0000
    78 H37      4.1977   7.1338  20.1089   H         1 RES1   0.0000
    79 C37      6.5775   8.7646  21.7571   C.3       1 RES1   0.0000
    80 H38      6.4352   8.3486  22.6345   H         1 RES1   0.0000
    81 H39      6.7972   9.7116  21.8774   H         1 RES1   0.0000
    82 H40      7.3155   8.3133  21.2979   H         1 RES1   0.0000
    83 C38      4.6831  11.7685  21.0194   C.3       1 RES1   0.0000
    84 H41      4.8229  12.7269  21.1640   H         1 RES1   0.0000
    85 H42      4.9695  11.2717  21.8145   H         1 RES1   0.0000
    86 H43      3.7321  11.5987  20.8524   H         1 RES1   0.0000
    87 C39      6.9674  11.7549  19.9889   C.3       1 RES1   0.0000
    88 H44      7.0029  12.7201  20.1554   H         1 RES1   0.0000
    89 H45      7.4661  11.5452  19.1714   H         1 RES1   0.0000
    90 H46      7.3659  11.2785  20.7458   H         1 RES1   0.0000
@<TRIPOS>BOND
     1     1     2    1
     2     2    10    1
     3     3     1   un
     4     4     1    1
     5     5     6    3
     6     6     1    1
     7     7     1   un
     8     8     1   un
     9     9     7    1
    10    10     9   ar
    11    11    10   ar
    12    12    11    1
    13    13    11   ar
    14    14    13    1
    15    15    13   ar
    16    16    15    1
    17    17     9   ar
    18    18    17    1
    19    19     7    1
    20    20     4    1
    21    21    20   ar
    22    22    21    1
    23    23    21   ar
    24    24    23    1
    25    25    23   ar
    26    26    25    1
    27    27    19   ar
    28    28    27    1
    29    29     8    1
    30    30    29   ar
    31    31    30    1
    32    32    30   ar
    33    33    32    1
    34    34    32   ar
    35    35    34    1
    36    36    34   ar
    37    37    36    1
    38    38    29   ar
    39    39    38    1
    40    40     3    1
    41    41    40   ar
    42    42    41    1
    43    43    41   ar
    44    44    43    1
    45    45    43   ar
    46    46    45    1
    47    47    45   ar
    48    48    47    1
    49    49    40   ar
    50    50    49    1
    51    51     2    1
    52    52    51    1
    53    53     2    1
    54    54    53    1
    55    55    51    1
    56    56    55    1
    57    57    55    1
    58    58    55    1
    59    59    51    1
    60    60    59    1
    61    61    59    1
    62    62    59    1
    63    63    53    1
    64    64    63    1
    65    65    63    1
    66    66    63    1
    67    67    53    1
    68    68    67    1
    69    69    67    1
    70    70    67    1
    71    71     4    1
    72    72    71    1
    73    73     4    1
    74    74    73    1
    75    75    71    1
    76    76    75    1
    77    77    75    1
    78    78    75    1
    79    79    71    1
    80    80    79    1
    81    81    79    1
    82    82    79    1
    83    83    73    1
    84    84    83    1
    85    85    83    1
    86    86    83    1
    87    87    73    1
    88    88    87    1
    89    89    87    1
    90    90    87    1
    91     3     8   un
    92     7     8   un
    93    15    17   ar
    94    19    20   ar
    95    25    27   ar
    96    36    38   ar
    97    47    49   ar
@<TRIPOS>SUBSTRUCTURE
     1 RES1        1 GROUP             0 ****  ****    0  
@<TRIPOS>CRYSIN
   11.2339   11.3959   27.6160   90.0000   98.2090   90.0000    14     1
