@<TRIPOS>MOLECULE
IQAPIC
   101   108     1     0     0
SMALL
NO_CHARGES
****
Generated from the CSD

@<TRIPOS>ATOM
     1 Fe1     13.8232   5.5479   5.2373   Fe        1 RES1   0.0000
     2 P1      14.7238   3.8425   6.3380   P.3       1 RES1   0.0000
     3 P2      11.9255   4.7159   4.3208   P.3       1 RES1   0.0000
     4 P3      14.9970   5.9131   3.3960   P.3       1 RES1   0.0000
     5 C1      13.0434   7.0138   6.4417   C.3       1 RES1   0.0000
     6 C2      12.7165   5.7155   6.9904   C.3       1 RES1   0.0000
     7 C3      14.4040   7.0621   6.0507   C.3       1 RES1   0.0000
     8 C4      13.5273   5.3325   8.2115   C.ar      1 RES1   0.0000
     9 C5      14.5548   4.4127   8.0650   C.ar      1 RES1   0.0000
    10 C6      15.3484   4.0589   9.1530   C.ar      1 RES1   0.0000
    11 H1      16.0486   3.4255   9.0435   H         1 RES1   0.0000
    12 C7      15.1190   4.6238  10.3838   C.ar      1 RES1   0.0000
    13 H2      15.6563   4.3767  11.1262   H         1 RES1   0.0000
    14 C8      14.1141   5.5459  10.5428   C.ar      1 RES1   0.0000
    15 H3      13.9634   5.9367  11.3956   H         1 RES1   0.0000
    16 C9      13.3146   5.9109   9.4631   C.ar      1 RES1   0.0000
    17 H4      12.6246   6.5533   9.5791   H         1 RES1   0.0000
    18 C10     10.7387   4.8619   5.7193   C.ar      1 RES1   0.0000
    19 C11     11.3063   5.2011   6.9512   C.ar      1 RES1   0.0000
    20 C12      8.6408   4.3936   6.7937   C.ar      1 RES1   0.0000
    21 H5       7.7195   4.1645   6.7357   H         1 RES1   0.0000
    22 C13      9.3928   4.5261   5.6577   C.ar      1 RES1   0.0000
    23 H6       8.9858   4.3846   4.8100   H         1 RES1   0.0000
    24 C14      9.2265   4.5957   8.0184   C.ar      1 RES1   0.0000
    25 H7       8.7252   4.4486   8.8115   H         1 RES1   0.0000
    26 C15     10.5393   5.0101   8.1061   C.ar      1 RES1   0.0000
    27 H8      10.9275   5.1663   8.9599   H         1 RES1   0.0000
    28 C16     12.1225   8.1717   6.2923   C.ar      1 RES1   0.0000
    29 C17     12.4179   9.1847   5.3865   C.ar      1 RES1   0.0000
    30 H9      13.1755   9.0937   4.8203   H         1 RES1   0.0000
    31 C18     11.6343  10.3235   5.2893   C.ar      1 RES1   0.0000
    32 H10     11.8535  10.9996   4.6599   H         1 RES1   0.0000
    33 C19     10.5442  10.4729   6.1029   C.ar      1 RES1   0.0000
    34 H11     10.0073  11.2535   6.0432   H         1 RES1   0.0000
    35 C20     10.2311   9.4857   7.0103   C.ar      1 RES1   0.0000
    36 H12      9.4726   9.5845   7.5715   H         1 RES1   0.0000
    37 C21     11.0185   8.3469   7.1076   C.ar      1 RES1   0.0000
    38 H13     10.7962   7.6775   7.7438   H         1 RES1   0.0000
    39 C22     14.4621   7.4136   2.4596   C.3       1 RES1   0.0000
    40 H14     15.0228   7.5180   1.6613   H         1 RES1   0.0000
    41 H15     14.5568   8.2054   3.0293   H         1 RES1   0.0000
    42 H16     13.5250   7.3148   2.1901   H         1 RES1   0.0000
    43 C23     16.8106   6.2444   3.4250   C.3       1 RES1   0.0000
    44 H17     17.2977   5.3965   3.4881   H         1 RES1   0.0000
    45 H18     17.0282   6.8049   4.1994   H         1 RES1   0.0000
    46 H19     17.0718   6.7094   2.6012   H         1 RES1   0.0000
    47 C24     15.0494   4.7687   1.9769   C.3       1 RES1   0.0000
    48 H20     15.5612   5.1764   1.2486   H         1 RES1   0.0000
    49 H21     14.1346   4.5856   1.6733   H         1 RES1   0.0000
    50 H22     15.4769   3.9309   2.2498   H         1 RES1   0.0000
    51 C25     15.3929   8.0830   6.3685   C.ar      1 RES1   0.0000
    52 C26     15.6634   8.3199   7.7203   C.ar      1 RES1   0.0000
    53 H23     15.1518   7.8741   8.3851   H         1 RES1   0.0000
    54 C27     16.6668   9.1971   8.1020   C.ar      1 RES1   0.0000
    55 H24     16.8406   9.3341   9.0265   H         1 RES1   0.0000
    56 C28     17.4128   9.8698   7.1707   C.ar      1 RES1   0.0000
    57 H25     18.1152  10.4493   7.4402   H         1 RES1   0.0000
    58 C29     17.1310   9.6924   5.8488   C.ar      1 RES1   0.0000
    59 H26     17.6232  10.1742   5.1938   H         1 RES1   0.0000
    60 C30     16.1386   8.8197   5.4531   C.ar      1 RES1   0.0000
    61 H27     15.9570   8.7197   4.5269   H         1 RES1   0.0000
    62 C31     16.5378   3.4895   6.2326   C.3       1 RES1   0.0000
    63 H28     16.7452   2.8291   6.9541   H         1 RES1   0.0000
    64 C32     14.0135   2.1036   6.4812   C.3       1 RES1   0.0000
    65 H29     13.8087   1.7902   5.5537   H         1 RES1   0.0000
    66 C33     17.3772   4.7159   6.5089   C.3       1 RES1   0.0000
    67 H30     18.3228   4.5036   6.3656   H         1 RES1   0.0000
    68 H31     17.2437   5.0023   7.4368   H         1 RES1   0.0000
    69 H32     17.1093   5.4381   5.9034   H         1 RES1   0.0000
    70 C34     16.8739   2.8167   4.9107   C.3       1 RES1   0.0000
    71 H33     16.6743   3.4299   4.1721   H         1 RES1   0.0000
    72 H34     16.3391   2.0025   4.8134   H         1 RES1   0.0000
    73 H35     17.8262   2.5854   4.8953   H         1 RES1   0.0000
    74 C35     12.6914   2.1294   7.2527   C.3       1 RES1   0.0000
    75 H36     12.0954   2.7965   6.8551   H         1 RES1   0.0000
    76 H37     12.8638   2.3608   8.1890   H         1 RES1   0.0000
    77 H38     12.2703   1.2455   7.2065   H         1 RES1   0.0000
    78 C36     14.9198   1.0580   7.1212   C.3       1 RES1   0.0000
    79 H39     14.4395   0.2067   7.1894   H         1 RES1   0.0000
    80 H40     15.1846   1.3578   8.0150   H         1 RES1   0.0000
    81 H41     15.7208   0.9367   6.5669   H         1 RES1   0.0000
    82 C37     11.7634   2.8796   3.8912   C.3       1 RES1   0.0000
    83 H42     11.8422   2.4012   4.7657   H         1 RES1   0.0000
    84 C38     10.8871   5.4987   2.9819   C.3       1 RES1   0.0000
    85 H43      9.9895   5.0596   3.0327   H         1 RES1   0.0000
    86 C39     12.9394   2.3821   3.0625   C.3       1 RES1   0.0000
    87 H44     12.8421   2.6909   2.1372   H         1 RES1   0.0000
    88 H45     12.9581   1.4016   3.0788   H         1 RES1   0.0000
    89 H46     13.7746   2.7314   3.4369   H         1 RES1   0.0000
    90 C40     10.4528   2.3832   3.2868   C.3       1 RES1   0.0000
    91 H47     10.3237   2.7943   2.4067   H         1 RES1   0.0000
    92 H48      9.7076   2.6292   3.8753   H         1 RES1   0.0000
    93 H49     10.4867   1.4084   3.1896   H         1 RES1   0.0000
    94 C41     11.3807   5.2965   1.5539   C.3       1 RES1   0.0000
    95 H50     10.7148   5.6447   0.9262   H         1 RES1   0.0000
    96 H51     11.5165   4.3397   1.3884   H         1 RES1   0.0000
    97 H52     12.2268   5.7739   1.4311   H         1 RES1   0.0000
    98 C42     10.6558   6.9767   3.2800   C.3       1 RES1   0.0000
    99 H53     11.5106   7.4563   3.2374   H         1 RES1   0.0000
   100 H54     10.2711   7.0733   4.1772   H         1 RES1   0.0000
   101 H55     10.0389   7.3507   2.6182   H         1 RES1   0.0000
@<TRIPOS>BOND
     1     1     2    1
     2     2     9    1
     3     3     1    1
     4     4     1    1
     5     5     1   un
     6     6     1   un
     7     7     1   un
     8     8     6    1
     9     9     8   ar
    10    10     9   ar
    11    11    10    1
    12    12    10   ar
    13    13    12    1
    14    14    12   ar
    15    15    14    1
    16    16     8   ar
    17    17    16    1
    18    18     3    1
    19    19     6    1
    20    20    21    1
    21    22    18   ar
    22    23    22    1
    23    24    20   ar
    24    25    24    1
    25    26    19   ar
    26    27    26    1
    27    28     5    1
    28    29    28   ar
    29    30    29    1
    30    31    29   ar
    31    32    31    1
    32    33    31   ar
    33    34    33    1
    34    35    33   ar
    35    36    35    1
    36    37    28   ar
    37    38    37    1
    38    39     4    1
    39    40    39    1
    40    41    39    1
    41    42    39    1
    42    43     4    1
    43    44    43    1
    44    45    43    1
    45    46    43    1
    46    47     4    1
    47    48    47    1
    48    49    47    1
    49    50    47    1
    50    51     7    1
    51    52    51   ar
    52    53    52    1
    53    54    52   ar
    54    55    54    1
    55    56    54   ar
    56    57    56    1
    57    58    56   ar
    58    59    58    1
    59    60    51   ar
    60    61    60    1
    61    62     2    1
    62    63    62    1
    63    64     2    1
    64    65    64    1
    65    66    62    1
    66    67    66    1
    67    68    66    1
    68    69    66    1
    69    70    62    1
    70    71    70    1
    71    72    70    1
    72    73    70    1
    73    74    64    1
    74    75    74    1
    75    76    74    1
    76    77    74    1
    77    78    64    1
    78    79    78    1
    79    80    78    1
    80    81    78    1
    81    82     3    1
    82    83    82    1
    83    84     3    1
    84    85    84    1
    85    86    82    1
    86    87    86    1
    87    88    86    1
    88    89    86    1
    89    90    82    1
    90    91    90    1
    91    92    90    1
    92    93    90    1
    93    94    84    1
    94    95    94    1
    95    96    94    1
    96    97    94    1
    97    98    84    1
    98    99    98    1
    99   100    98    1
   100   101    98    1
   101     5     6   un
   102     5     7   un
   103    14    16   ar
   104    18    19   ar
   105    20    22   ar
   106    24    26   ar
   107    35    37   ar
   108    58    60   ar
@<TRIPOS>SUBSTRUCTURE
     1 RES1        1 GROUP             0 ****  ****    0  
@<TRIPOS>CRYSIN
   19.4240   11.2310   17.3900   90.0000  101.2340   90.0000    14     1
