@<TRIPOS>MOLECULE
IQEFAO
    76    82     1     0     0
SMALL
NO_CHARGES
****
Generated from the CSD

@<TRIPOS>ATOM
     1 Fe1      8.4492   4.0046  15.2423   Fe        1 RES1   0.0000
     2 S1       8.1252   2.5159  19.7568   S.2       1 RES1   0.0000
     3 S2      10.4550   0.1691  12.9783   S.2       1 RES1   0.0000
     4 O1       4.8219   6.9655   7.1262   O.3       1 RES1   0.0000
     5 O2      13.5171   1.0342   8.4481   O.3       1 RES1   0.0000
     6 N1       7.0064   5.4427  16.1784   N.2       1 RES1   0.0000
     7 N2       6.6684   3.8547  14.0679   N.2       1 RES1   0.0000
     8 N3       6.3387   3.2131  12.9645   N.2       1 RES1   0.0000
     9 N4       5.1338   3.6918  12.6128   N.pl3     1 RES1   0.0000
    10 N5       9.8376   5.4644  16.0399   N.2       1 RES1   0.0000
    11 N6       9.2723   5.1794  13.4598   N.2       1 RES1   0.0000
    12 N7       9.2073   5.0590  12.1563   N.2       1 RES1   0.0000
    13 N8      10.3531   5.5865  11.6760   N.pl3     1 RES1   0.0000
    14 N9       8.2634   2.9181  16.9982   N.2       1 RES1   0.0000
    15 N10      9.4059   2.4078  14.2858   N.2       1 RES1   0.0000
    16 C1       8.5867   7.3827  19.0599   C.3       1 RES1   0.0000
    17 H1       8.5884   6.6398  19.6682   H         1 RES1   0.0000
    18 H2       7.8257   7.9400  19.2377   H         1 RES1   0.0000
    19 H3       9.3914   7.8930  19.1757   H         1 RES1   0.0000
    20 C2       8.5144   6.8660  17.6276   C.3       1 RES1   0.0000
    21 C3       7.2015   6.0896  17.4897   C.3       1 RES1   0.0000
    22 H4       7.1710   5.4081  18.1790   H         1 RES1   0.0000
    23 H5       6.4636   6.6992  17.6473   H         1 RES1   0.0000
    24 C4       9.7512   5.9566  17.4209   C.3       1 RES1   0.0000
    25 H6      10.5551   6.4552  17.6343   H         1 RES1   0.0000
    26 H7       9.6983   5.2010  18.0274   H         1 RES1   0.0000
    27 C5       5.8818   5.5440  15.5928   C.2       1 RES1   0.0000
    28 H8       5.2131   6.1039  15.9151   H         1 RES1   0.0000
    29 C6       5.6930   4.7450  14.4012   C.2       1 RES1   0.0000
    30 C7       4.7059   4.6410  13.4645   C.2       1 RES1   0.0000
    31 H9       3.9111   5.1224  13.4235   H         1 RES1   0.0000
    32 C8       4.4991   3.2213  11.3728   C.3       1 RES1   0.0000
    33 H10      3.5600   3.0444  11.5391   H         1 RES1   0.0000
    34 H11      4.9154   2.3910  11.0933   H         1 RES1   0.0000
    35 C9       4.6279   4.2437  10.2666   C.ar      1 RES1   0.0000
    36 C10      3.5456   5.0228   9.8782   C.ar      1 RES1   0.0000
    37 H12      2.7356   4.9311  10.3257   H         1 RES1   0.0000
    38 C11      3.6454   5.9222   8.8508   C.ar      1 RES1   0.0000
    39 H13      2.9069   6.4343   8.6110   H         1 RES1   0.0000
    40 C12      4.8402   6.0743   8.1674   C.ar      1 RES1   0.0000
    41 C13      5.9518   5.3549   8.5641   C.ar      1 RES1   0.0000
    42 H14      6.7694   5.4795   8.1384   H         1 RES1   0.0000
    43 C14      5.8321   4.4392   9.6122   C.ar      1 RES1   0.0000
    44 H15      6.5779   3.9508   9.8762   H         1 RES1   0.0000
    45 C15      6.0390   7.1565   6.3924   C.3       1 RES1   0.0000
    46 H16      5.8900   7.7875   5.6840   H         1 RES1   0.0000
    47 H17      6.3227   6.3186   6.0199   H         1 RES1   0.0000
    48 H18      6.7187   7.4917   6.9815   H         1 RES1   0.0000
    49 C16     10.6076   6.0670  15.2148   C.2       1 RES1   0.0000
    50 H19     11.2509   6.6713  15.5082   H         1 RES1   0.0000
    51 C17     10.4392   5.7738  13.8084   C.2       1 RES1   0.0000
    52 C18     11.1444   6.0353  12.6678   C.2       1 RES1   0.0000
    53 H20     11.9817   6.4330  12.5935   H         1 RES1   0.0000
    54 C19     10.6042   5.5594  10.2240   C.3       1 RES1   0.0000
    55 H21     11.1145   6.3460   9.9769   H         1 RES1   0.0000
    56 H22      9.7554   5.5973   9.7561   H         1 RES1   0.0000
    57 C20     11.3544   4.3279   9.7804   C.ar      1 RES1   0.0000
    58 C21     12.4408   4.4510   8.9199   C.ar      1 RES1   0.0000
    59 H23     12.7136   5.2945   8.6402   H         1 RES1   0.0000
    60 C22     13.1142   3.3380   8.4797   C.ar      1 RES1   0.0000
    61 H24     13.8294   3.4344   7.8934   H         1 RES1   0.0000
    62 C23     12.7383   2.0694   8.9015   C.ar      1 RES1   0.0000
    63 C24     11.6638   1.9328   9.7547   C.ar      1 RES1   0.0000
    64 H25     11.4016   1.0881  10.0428   H         1 RES1   0.0000
    65 C25     10.9741   3.0602  10.1831   C.ar      1 RES1   0.0000
    66 H26     10.2440   2.9609  10.7503   H         1 RES1   0.0000
    67 C26     13.2991  -0.2615   9.0269   C.3       1 RES1   0.0000
    68 H27     13.9819  -0.8651   8.7260   H         1 RES1   0.0000
    69 H28     12.4386  -0.5912   8.7579   H         1 RES1   0.0000
    70 H29     13.3308  -0.1936   9.9840   H         1 RES1   0.0000
    71 C27      8.2026   2.7363  18.1394   C.1       1 RES1   0.0000
    72 C28      9.8376   1.4812  13.7287   C.1       1 RES1   0.0000
    73 C29      8.5476   8.0550  16.6621   C.3       1 RES1   0.0000
    74 H30      9.3960   8.4986  16.7299   H         1 RES1   0.0000
    75 H31      7.8457   8.6697  16.8874   H         1 RES1   0.0000
    76 H32      8.4216   7.7408  15.7635   H         1 RES1   0.0000
@<TRIPOS>BOND
     1     1     6    1
     2     2    71    2
     3     3    72    2
     4     4    40    1
     5     5    62    1
     6     6    21    1
     7     7     1    1
     8     8     7    2
     9     9     8    1
    10    10     1    1
    11    11     1    1
    12    12    11    2
    13    13    12    1
    14    14     1    1
    15    15     1    1
    16    16    17    1
    17    18    16    1
    18    19    16    1
    19    20    16    1
    20    21    20    1
    21    22    21    1
    22    23    21    1
    23    24    10    1
    24    25    24    1
    25    26    24    1
    26    27     6    2
    27    28    27    1
    28    29     7    1
    29    30     9    1
    30    31    30    1
    31    32     9    1
    32    33    32    1
    33    34    32    1
    34    35    32    1
    35    36    35   ar
    36    37    36    1
    37    38    36   ar
    38    39    38    1
    39    40    38   ar
    40    41    40   ar
    41    42    41    1
    42    43    35   ar
    43    44    43    1
    44    45     4    1
    45    46    45    1
    46    47    45    1
    47    48    45    1
    48    49    10    2
    49    50    49    1
    50    51    11    1
    51    52    13    1
    52    53    52    1
    53    54    13    1
    54    55    54    1
    55    56    54    1
    56    57    54    1
    57    58    57   ar
    58    59    58    1
    59    60    58   ar
    60    61    60    1
    61    62    60   ar
    62    63    62   ar
    63    64    63    1
    64    65    57   ar
    65    66    65    1
    66    67     5    1
    67    68    67    1
    68    69    67    1
    69    70    67    1
    70    71    14    2
    71    72    15    2
    72    73    20    1
    73    74    73    1
    74    75    73    1
    75    76    73    1
    76    20    24    1
    77    27    29    1
    78    29    30    2
    79    41    43   ar
    80    49    51    1
    81    51    52    2
    82    63    65   ar
@<TRIPOS>SUBSTRUCTURE
     1 RES1        1 GROUP             0 ****  ****    0  
@<TRIPOS>CRYSIN
   22.8809    9.0485   31.2662   90.0000   90.0000   90.0000    61     1
