@<TRIPOS>MOLECULE
IQIJAT
    77    82     3     0     0
SMALL
USER_CHARGES
****
Generated from the CSD

@<TRIPOS>ATOM
     1 Fe1      0.4006   3.6154  10.5804   Fe        1 RES1   2.0000
     2 N1       2.0256   3.4496  11.8634   N.3       1 RES1   0.0000
     3 N2      -0.7647   4.6324  11.9107   N.3       1 RES1   0.0000
     4 H1      -1.0601   5.3779  11.4613   H         1 RES1   0.0000
     5 H2      -1.5062   4.1042  12.0447   H         1 RES1   0.0000
     6 N3      -0.4099   1.8409  11.1325   N.3       1 RES1   0.0000
     7 H3      -0.9142   1.9895  11.8870   H         1 RES1   0.0000
     8 H4      -0.9911   1.5840  10.4669   H         1 RES1   0.0000
     9 N4       1.2572   5.3324  10.1031   N.ar      1 RES1   0.0000
    10 N5      -1.0428   3.8157   9.1706   N.ar      1 RES1   0.0000
    11 N6       1.3311   2.7812   9.0400   N.2       1 RES1   0.0000
    12 N7       1.4762   2.5001   6.8788   N.pl3     1 RES1   0.0000
    13 N8       2.5708   2.2652   8.7753   N.2       1 RES1   0.0000
    14 N9       3.9071   1.7070   5.4407   N.ar      1 RES1   0.0000
    15 N10      1.0879   2.5003   5.5285   N.3       1 RES1   0.0000
    16 H5       0.2880   2.7869   5.2999   H         1 RES1   0.0000
    17 H6       1.6454   2.2127   4.9102   H         1 RES1   0.0000
    18 C1       1.8663   4.0043  13.2610   C.3       1 RES1   0.0000
    19 H7       2.7683   4.1178  13.6529   H         1 RES1   0.0000
    20 H8       1.3892   3.3312  13.8083   H         1 RES1   0.0000
    21 C2       1.1260   5.3251  13.3792   C.3       1 RES1   0.0000
    22 H9       1.3371   5.7453  14.2498   H         1 RES1   0.0000
    23 H10      1.4264   5.9385  12.6607   H         1 RES1   0.0000
    24 C3      -0.3573   5.1131  13.2700   C.3       1 RES1   0.0000
    25 H11     -0.6412   4.4498  13.9480   H         1 RES1   0.0000
    26 H12     -0.8220   5.9657  13.4671   H         1 RES1   0.0000
    27 C4       0.4837   0.6924  11.4118   C.3       1 RES1   0.0000
    28 H13      0.9596   0.4355  10.5840   H         1 RES1   0.0000
    29 H14     -0.0569  -0.0816  11.7102   H         1 RES1   0.0000
    30 C5       1.5023   1.0519  12.4963   C.3       1 RES1   0.0000
    31 H15      1.0213   1.4234  13.2779   H         1 RES1   0.0000
    32 H16      1.9622   0.2259  12.7902   H         1 RES1   0.0000
    33 C6       2.5386   2.0551  12.0368   C.3       1 RES1   0.0000
    34 H17      3.2769   2.0711  12.6968   H         1 RES1   0.0000
    35 H18      2.9147   1.7473  11.1741   H         1 RES1   0.0000
    36 C7       0.7034   6.3797   9.4725   C.ar      1 RES1   0.0000
    37 H19     -0.1848   6.2951   9.1459   H         1 RES1   0.0000
    38 C8       1.3630   7.5690   9.2754   C.ar      1 RES1   0.0000
    39 H20      0.9343   8.2900   8.8316   H         1 RES1   0.0000
    40 C9       2.6546   7.6970   9.7326   C.ar      1 RES1   0.0000
    41 H21      3.1274   8.5132   9.6155   H         1 RES1   0.0000
    42 C10      3.2567   6.6268  10.3644   C.ar      1 RES1   0.0000
    43 H22      4.1520   6.6897  10.6741   H         1 RES1   0.0000
    44 C11      2.5382   5.4661  10.5367   C.ar      1 RES1   0.0000
    45 C12      3.0920   4.2416  11.1820   C.3       1 RES1   0.0000
    46 H23      3.7794   4.5042  11.8442   H         1 RES1   0.0000
    47 H24      3.5288   3.6796  10.4950   H         1 RES1   0.0000
    48 C13     -2.2915   4.3018   9.3013   C.ar      1 RES1   0.0000
    49 H25     -2.5985   4.5151  10.1752   H         1 RES1   0.0000
    50 C14     -3.1516   4.5089   8.2426   C.ar      1 RES1   0.0000
    51 H26     -4.0203   4.8635   8.3902   H         1 RES1   0.0000
    52 C15     -2.7351   4.1943   6.9790   C.ar      1 RES1   0.0000
    53 H27     -3.3056   4.3464   6.2346   H         1 RES1   0.0000
    54 C16     -1.4701   3.6529   6.7898   C.ar      1 RES1   0.0000
    55 H28     -1.1726   3.4129   5.9204   H         1 RES1   0.0000
    56 C17     -0.6482   3.4690   7.8924   C.ar      1 RES1   0.0000
    57 C18      0.6806   2.9233   7.8924   C.2       1 RES1   0.0000
    58 C19      2.6602   2.1220   7.4678   C.2       1 RES1   0.0000
    59 C20      3.8751   1.6621   6.7853   C.ar      1 RES1   0.0000
    60 C21      5.0436   1.3224   4.8674   C.ar      1 RES1   0.0000
    61 H29      5.0829   1.3499   3.9180   H         1 RES1   0.0000
    62 C22      6.1619   0.8919   5.5296   C.ar      1 RES1   0.0000
    63 H30      6.9454   0.6396   5.0544   H         1 RES1   0.0000
    64 C23      6.1188   0.8347   6.9025   C.ar      1 RES1   0.0000
    65 H31      6.8695   0.5280   7.3969   H         1 RES1   0.0000
    66 C24      4.9646   1.2296   7.5512   C.ar      1 RES1   0.0000
    67 H32      4.9123   1.2084   8.4994   H         1 RES1   0.0000
    68 Cl1      3.0667   5.8542   6.1190   Cl        2 RES2   0.0000
    69 O1       2.5418   7.1828   6.3371   O.3       2 RES2  -1.0000
    70 O2       3.1477   5.1411   7.3676   O.2       2 RES2   0.0000
    71 O3       4.3862   5.9731   5.5488   O.2       2 RES2   0.0000
    72 O4       2.1895   5.1525   5.2165   O.2       2 RES2   0.0000
    73 Cl2      8.5117   1.9639   2.3146   Cl        3 RES3   0.0000
    74 O5       8.0991   0.5958   2.4585   O.3       3 RES3  -1.0000
    75 O6       9.8982   2.0812   2.6601   O.2       3 RES3   0.0000
    76 O7       8.3348   2.3830   0.9381   O.2       3 RES3   0.0000
    77 O8       7.7224   2.7866   3.1883   O.2       3 RES3   0.0000
@<TRIPOS>BOND
     1     1     2    1
     2     2    18    1
     3     3     1    1
     4     4     3    1
     5     5     3    1
     6     6     1    1
     7     7     6    1
     8     8     6    1
     9     9     1    1
    10    10     1    1
    11    11     1    1
    12    12    15    1
    13    13    11    1
    14    14    59   ar
    15    15    16    1
    16    17    15    1
    17    18    19    1
    18    20    18    1
    19    21    18    1
    20    22    21    1
    21    23    21    1
    22    24     3    1
    23    25    24    1
    24    26    24    1
    25    27     6    1
    26    28    27    1
    27    29    27    1
    28    30    27    1
    29    31    30    1
    30    32    30    1
    31    33     2    1
    32    34    33    1
    33    35    33    1
    34    36     9   ar
    35    37    36    1
    36    38    36   ar
    37    39    38    1
    38    40    38   ar
    39    41    40    1
    40    42    40   ar
    41    43    42    1
    42    44     9   ar
    43    45     2    1
    44    46    45    1
    45    47    45    1
    46    48    10   ar
    47    49    48    1
    48    50    48   ar
    49    51    50    1
    50    52    50   ar
    51    53    52    1
    52    54    52   ar
    53    55    54    1
    54    56    10   ar
    55    57    11    2
    56    58    12    1
    57    59    58    1
    58    60    14   ar
    59    61    60    1
    60    62    60   ar
    61    63    62    1
    62    64    62   ar
    63    65    64    1
    64    66    59   ar
    65    67    66    1
    66    12    57    1
    67    13    58    2
    68    21    24    1
    69    30    33    1
    70    42    44   ar
    71    44    45    1
    72    54    56   ar
    73    56    57    1
    74    64    66   ar
    75    68    69    1
    76    70    68    2
    77    71    68    2
    78    72    68    2
    79    73    74    1
    80    75    73    2
    81    76    73    2
    82    77    73    2
@<TRIPOS>SUBSTRUCTURE
     1 RES1        1 GROUP             0 ****  ****    0  
     2 RES2       68 GROUP             0 ****  ****    0  
     3 RES3       73 GROUP             0 ****  ****    0  
@<TRIPOS>CRYSIN
    9.5113   27.2160   11.4755   90.0000  101.0700   90.0000   231     1
