@<TRIPOS>MOLECULE
IQIWOW
    89    98     3     0     0
SMALL
USER_CHARGES
****
Generated from the CSD

@<TRIPOS>ATOM
     1 C1      10.3329   6.8545   2.6859   C.3       1 RES1   0.0000
     2 H1       9.3536   6.9714   2.5979   H         1 RES1   0.0000
     3 H2      10.5001   6.0428   3.2279   H         1 RES1   0.0000
     4 C2      10.9563   6.6867   1.3059   C.3       1 RES1   0.0000
     5 H3      10.7240   5.7937   0.9470   H         1 RES1   0.0000
     6 H4      10.5831   7.3683   0.6927   H         1 RES1   0.0000
     7 C3      12.9524   7.6927   0.2659   C.3       1 RES1   0.0000
     8 H5      12.5873   7.3832  -0.6012   H         1 RES1   0.0000
     9 H6      13.9397   7.6297   0.2242   H         1 RES1   0.0000
    10 C4      12.5403   9.1462   0.5085   C.3       1 RES1   0.0000
    11 H7      13.0458   9.7314  -0.1102   H         1 RES1   0.0000
    12 H8      11.5776   9.2465   0.2994   H         1 RES1   0.0000
    13 C5      11.6022  10.2971   2.4880   C.3       1 RES1   0.0000
    14 H9      11.3047  11.0068   1.8651   H         1 RES1   0.0000
    15 H10     11.8536  10.7273   3.3444   H         1 RES1   0.0000
    16 C6      10.4542   9.3163   2.7286   C.3       1 RES1   0.0000
    17 H11      9.7807   9.7433   3.3156   H         1 RES1   0.0000
    18 H12     10.0169   9.1117   1.8651   H         1 RES1   0.0000
    19 C7      10.6397   8.0191   4.8022   C.3       1 RES1   0.0000
    20 H13     10.7723   7.1041   5.1556   H         1 RES1   0.0000
    21 H14      9.6976   8.2767   4.9615   H         1 RES1   0.0000
    22 C8      11.5546   8.9759   5.5224   C.ar      1 RES1   0.0000
    23 C9      11.0520   9.7780   6.5622   C.ar      1 RES1   0.0000
    24 H15     10.1379   9.7141   6.8141   H         1 RES1   0.0000
    25 C10     11.8812  10.6469   7.2070   C.ar      1 RES1   0.0000
    26 H16     11.5475  11.2087   7.8963   H         1 RES1   0.0000
    27 C11     13.2377  10.6984   6.8362   C.ar      1 RES1   0.0000
    28 C12     14.1666  11.5616   7.4780   C.ar      1 RES1   0.0000
    29 H17     13.8683  12.1471   8.1643   H         1 RES1   0.0000
    30 C13     15.4784  11.5580   7.1199   C.ar      1 RES1   0.0000
    31 H18     16.0887  12.1455   7.5481   H         1 RES1   0.0000
    32 C14     15.9317  10.6826   6.1132   C.ar      1 RES1   0.0000
    33 H19     16.8526  10.6783   5.8771   H         1 RES1   0.0000
    34 C15     15.0638   9.8349   5.4664   C.ar      1 RES1   0.0000
    35 H20     15.3882   9.2468   4.7936   H         1 RES1   0.0000
    36 C16     13.6948   9.8364   5.7991   C.ar      1 RES1   0.0000
    37 C17     13.9866  10.4498   2.0071   C.3       1 RES1   0.0000
    38 H21     13.9738  10.9526   2.8596   H         1 RES1   0.0000
    39 H22     13.9834  11.1047   1.2651   H         1 RES1   0.0000
    40 C18     15.2420   9.6149   1.9352   C.ar      1 RES1   0.0000
    41 C19     16.4026  10.1767   1.3696   C.ar      1 RES1   0.0000
    42 H23     16.4017  11.0771   1.0672   H         1 RES1   0.0000
    43 C20     17.5284   9.4148   1.2597   C.ar      1 RES1   0.0000
    44 H24     18.3123   9.7705   0.8568   H         1 RES1   0.0000
    45 C21     17.5164   8.0905   1.7530   C.ar      1 RES1   0.0000
    46 C22     18.6533   7.2435   1.6656   C.ar      1 RES1   0.0000
    47 H25     19.4343   7.5500   1.2188   H         1 RES1   0.0000
    48 C23     18.6361   5.9902   2.2179   C.ar      1 RES1   0.0000
    49 H26     19.4005   5.4293   2.1532   H         1 RES1   0.0000
    50 C24     17.4771   5.5370   2.8842   C.ar      1 RES1   0.0000
    51 H27     17.4718   4.6728   3.2793   H         1 RES1   0.0000
    52 C25     16.3567   6.3261   2.9700   C.ar      1 RES1   0.0000
    53 H28     15.5859   6.0031   3.4233   H         1 RES1   0.0000
    54 C26     16.3402   7.6147   2.3894   C.ar      1 RES1   0.0000
    55 C27     13.0867   5.5029   1.4251   C.3       1 RES1   0.0000
    56 H29     14.0506   5.5870   1.2138   H         1 RES1   0.0000
    57 H30     12.6751   4.8961   0.7591   H         1 RES1   0.0000
    58 C28     12.9141   4.9301   2.8182   C.ar      1 RES1   0.0000
    59 C29     12.4732   3.6119   3.0085   C.ar      1 RES1   0.0000
    60 H31     12.2462   3.0679   2.2634   H         1 RES1   0.0000
    61 C30     12.3751   3.1195   4.2825   C.ar      1 RES1   0.0000
    62 H32     12.0511   2.2383   4.4291   H         1 RES1   0.0000
    63 C31     12.7567   3.9231   5.3760   C.ar      1 RES1   0.0000
    64 C32     12.7215   3.4743   6.7276   C.ar      1 RES1   0.0000
    65 H33     12.4131   2.5973   6.9218   H         1 RES1   0.0000
    66 C33     13.1242   4.2876   7.7455   C.ar      1 RES1   0.0000
    67 H34     13.0904   3.9768   8.6428   H         1 RES1   0.0000
    68 C34     13.5917   5.5897   7.4687   C.ar      1 RES1   0.0000
    69 H35     13.8865   6.1440   8.1819   H         1 RES1   0.0000
    70 C35     13.6248   6.0656   6.1799   C.ar      1 RES1   0.0000
    71 H36     13.9427   6.9440   6.0086   H         1 RES1   0.0000
    72 C36     13.1878   5.2533   5.1089   C.ar      1 RES1   0.0000
    73 Fe1     13.1435   7.8730   3.1861   Fe        1 RES1   2.0000
    74 N1      10.9171   8.0355   3.3617   N.3       1 RES1   0.0000
    75 N2      12.4430   6.8280   1.3589   N.3       1 RES1   0.0000
    76 N3      12.7832   9.6025   1.9188   N.3       1 RES1   0.0000
    77 N4      12.8256   8.9943   5.1253   N.ar      1 RES1   0.0000
    78 N5      13.2158   5.7558   3.8233   N.ar      1 RES1   0.0000
    79 N6      15.1913   8.3876   2.4531   N.ar      1 RES1   0.0000
    80 B1       8.2582  12.3250   1.9738   B         2 RES2  -1.0000
    81 F1       8.7618  12.2599   3.2699   F         2 RES2   0.0000
    82 F2       6.9089  11.9815   2.0004   F         2 RES2   0.0000
    83 F3       8.4106  13.6042   1.4509   F         2 RES2   0.0000
    84 F4       8.9400  11.4056   1.1843   F         2 RES2   0.0000
    85 B2       8.9349   2.8012   1.7646   B         3 RES3  -1.0000
    86 F5       9.2805   4.1294   1.9733   F         3 RES3   0.0000
    87 F6       7.5644   2.6563   1.9534   F         3 RES3   0.0000
    88 F7       9.6161   1.9978   2.6730   F         3 RES3   0.0000
    89 F8       9.2463   2.4153   0.4652   F         3 RES3   0.0000
@<TRIPOS>BOND
     1     1     2    1
     2     3     1    1
     3     4     1    1
     4     5     4    1
     5     6     4    1
     6     7     8    1
     7     9     7    1
     8    10     7    1
     9    11    10    1
    10    12    10    1
    11    13    14    1
    12    15    13    1
    13    16    13    1
    14    17    16    1
    15    18    16    1
    16    19    20    1
    17    21    19    1
    18    22    19    1
    19    23    22   ar
    20    24    23    1
    21    25    23   ar
    22    26    25    1
    23    27    25   ar
    24    28    27   ar
    25    29    28    1
    26    30    28   ar
    27    31    30    1
    28    32    30   ar
    29    33    32    1
    30    34    32   ar
    31    35    34    1
    32    36    27   ar
    33    37    38    1
    34    39    37    1
    35    40    37    1
    36    41    40   ar
    37    42    41    1
    38    43    41   ar
    39    44    43    1
    40    45    43   ar
    41    46    45   ar
    42    47    46    1
    43    48    46   ar
    44    49    48    1
    45    50    48   ar
    46    51    50    1
    47    52    50   ar
    48    53    52    1
    49    54    45   ar
    50    55    56    1
    51    57    55    1
    52    58    55    1
    53    59    58   ar
    54    60    59    1
    55    61    59   ar
    56    62    61    1
    57    63    61   ar
    58    64    63   ar
    59    65    64    1
    60    66    64   ar
    61    67    66    1
    62    68    66   ar
    63    69    68    1
    64    70    68   ar
    65    71    70    1
    66    72    63   ar
    67    73    74    1
    68    74     1    1
    69    75     4    1
    70    76    10    1
    71    77    22   ar
    72    78    58   ar
    73    79    40   ar
    74     7    75    1
    75    13    76    1
    76    16    74    1
    77    19    74    1
    78    34    36   ar
    79    36    77   ar
    80    37    76    1
    81    52    54   ar
    82    54    79   ar
    83    55    75    1
    84    70    72   ar
    85    72    78   ar
    86    73    75    1
    87    73    76    1
    88    73    77    1
    89    73    78    1
    90    73    79    1
    91    80    81    1
    92    82    80    1
    93    83    80    1
    94    84    80    1
    95    85    86    1
    96    87    85    1
    97    88    85    1
    98    89    85    1
@<TRIPOS>SUBSTRUCTURE
     1 RES1        1 GROUP             0 ****  ****    0  
     2 RES2       80 GROUP             0 ****  ****    0  
     3 RES3       85 GROUP             0 ****  ****    0  
@<TRIPOS>CRYSIN
   12.1780   12.5383   13.0952   73.2390   80.0870   62.4300     2     1
