@<TRIPOS>MOLECULE
IREDEQ
   128   142     2     0     0
SMALL
USER_CHARGES
****
Generated from the CSD

@<TRIPOS>ATOM
     1 Fe1      8.7575   0.0000   0.0000   Fe        1 RES1   2.0000
     2 N1      10.4021  -1.6446   1.6446   N.3       1 RES1   0.0000
     3 N2       8.4047   0.0935   2.2254   N.2       1 RES1   0.0000
     4 N3       7.3542   0.7087   2.7206   N.2       1 RES1   0.0000
     5 N4       7.5542   0.7897   4.0463   N.pl3     1 RES1   0.0000
     6 C1      10.5687  -0.8931   2.8865   C.3       1 RES1   0.0000
     7 H1      11.2673  -0.2294   2.7796   H         1 RES1   0.0000
     8 H2      10.8242  -1.4923   3.6046   H         1 RES1   0.0000
     9 C2       9.2733  -0.2224   3.2191   C.2       1 RES1   0.0000
    10 C3       8.7326   0.2156   4.3994   C.2       1 RES1   0.0000
    11 H3       9.0937   0.1366   5.2527   H         1 RES1   0.0000
    12 C4       6.5665   1.4142   4.8870   C.ar      1 RES1   0.0000
    13 C5       5.2569   1.4875   4.4528   C.ar      1 RES1   0.0000
    14 H4       5.0093   1.1297   3.6308   H         1 RES1   0.0000
    15 C6       4.3169   2.1069   5.2690   C.ar      1 RES1   0.0000
    16 H5       3.4329   2.1718   4.9865   H         1 RES1   0.0000
    17 C7       4.6840   2.6265   6.4947   C.ar      1 RES1   0.0000
    18 H6       4.0494   3.0423   7.0322   H         1 RES1   0.0000
    19 C8       5.9859   2.5285   6.9189   C.ar      1 RES1   0.0000
    20 H7       6.2265   2.8689   7.7503   H         1 RES1   0.0000
    21 C9       6.9448   1.9252   6.1167   C.ar      1 RES1   0.0000
    22 H8       7.8274   1.8653   6.4017   H         1 RES1   0.0000
    23 N2E     10.9829   0.3528  -0.0935   N.2       1 RES1   0.0000
    24 N3E     11.4780   1.4033  -0.7087   N.2       1 RES1   0.0000
    25 N4E     12.8037   1.2033  -0.7897   N.pl3     1 RES1   0.0000
    26 C1E     11.6439  -1.8112   0.8931   C.3       1 RES1   0.0000
    27 H1E     11.5371  -2.5099   0.2294   H         1 RES1   0.0000
    28 H2E     12.3620  -2.0668   1.4923   H         1 RES1   0.0000
    29 C2E     11.9765  -0.5158   0.2224   C.2       1 RES1   0.0000
    30 C3E     13.1568   0.0249  -0.2156   C.2       1 RES1   0.0000
    31 H3E     14.0102  -0.3363  -0.1366   H         1 RES1   0.0000
    32 C4E     13.6445   2.1909  -1.4142   C.ar      1 RES1   0.0000
    33 C5E     13.2103   3.5005  -1.4875   C.ar      1 RES1   0.0000
    34 H4E     12.3883   3.7482  -1.1297   H         1 RES1   0.0000
    35 C6E     14.0265   4.4406  -2.1069   C.ar      1 RES1   0.0000
    36 H5E     13.7439   5.3245  -2.1718   H         1 RES1   0.0000
    37 C7E     15.2522   4.0734  -2.6265   C.ar      1 RES1   0.0000
    38 H6E     15.7897   4.7080  -3.0423   H         1 RES1   0.0000
    39 C8E     15.6764   2.7716  -2.5285   C.ar      1 RES1   0.0000
    40 H7E     16.5078   2.5309  -2.8689   H         1 RES1   0.0000
    41 C9E     14.8742   1.8126  -1.9252   C.ar      1 RES1   0.0000
    42 H8E     15.1591   0.9300  -1.8653   H         1 RES1   0.0000
    43 N2K      8.6639  -2.2254  -0.3528   N.2       1 RES1   0.0000
    44 N3K      8.0488  -2.7206  -1.4033   N.2       1 RES1   0.0000
    45 N4K      7.9677  -4.0463  -1.2033   N.pl3     1 RES1   0.0000
    46 C1K      9.6505  -2.8865   1.8112   C.3       1 RES1   0.0000
    47 H1K      8.9869  -2.7796   2.5099   H         1 RES1   0.0000
    48 H2K     10.2497  -3.6046   2.0668   H         1 RES1   0.0000
    49 C2K      8.9799  -3.2191   0.5158   C.2       1 RES1   0.0000
    50 C3K      8.5418  -4.3994  -0.0249   C.2       1 RES1   0.0000
    51 H3K      8.6208  -5.2527   0.3363   H         1 RES1   0.0000
    52 C4K      7.3433  -4.8870  -2.1909   C.ar      1 RES1   0.0000
    53 C5K      7.2699  -4.4528  -3.5005   C.ar      1 RES1   0.0000
    54 H4K      7.6277  -3.6308  -3.7482   H         1 RES1   0.0000
    55 C6K      6.6506  -5.2690  -4.4406   C.ar      1 RES1   0.0000
    56 H5K      6.5856  -4.9865  -5.3245   H         1 RES1   0.0000
    57 C7K      6.1309  -6.4947  -4.0734   C.ar      1 RES1   0.0000
    58 H6K      5.7151  -7.0322  -4.7080   H         1 RES1   0.0000
    59 C8K      6.2290  -6.9189  -2.7716   C.ar      1 RES1   0.0000
    60 H7K      5.8885  -7.7503  -2.5309   H         1 RES1   0.0000
    61 C9K      6.8322  -6.1167  -1.8126   C.ar      1 RES1   0.0000
    62 H8K      6.8921  -6.4017  -0.9300   H         1 RES1   0.0000
    63 N1L      7.1128   1.6446  -1.6446   N.3       1 RES1   0.0000
    64 N2L      9.1102  -0.0935  -2.2254   N.2       1 RES1   0.0000
    65 N3L     10.1607  -0.7087  -2.7206   N.2       1 RES1   0.0000
    66 N4L      9.9607  -0.7897  -4.0463   N.pl3     1 RES1   0.0000
    67 C1L      6.9462   0.8931  -2.8865   C.3       1 RES1   0.0000
    68 H1L      6.2476   0.2294  -2.7796   H         1 RES1   0.0000
    69 H2L      6.6907   1.4923  -3.6046   H         1 RES1   0.0000
    70 C2L      8.2416   0.2224  -3.2191   C.2       1 RES1   0.0000
    71 C3L      8.7823  -0.2156  -4.3994   C.2       1 RES1   0.0000
    72 H3L      8.4212  -0.1366  -5.2527   H         1 RES1   0.0000
    73 C4L     10.9484  -1.4142  -4.8870   C.ar      1 RES1   0.0000
    74 C5L     12.2580  -1.4875  -4.4528   C.ar      1 RES1   0.0000
    75 H4L     12.5056  -1.1297  -3.6308   H         1 RES1   0.0000
    76 C6L     13.1980  -2.1069  -5.2690   C.ar      1 RES1   0.0000
    77 H5L     14.0820  -2.1718  -4.9865   H         1 RES1   0.0000
    78 C7L     12.8309  -2.6265  -6.4947   C.ar      1 RES1   0.0000
    79 H6L     13.4655  -3.0423  -7.0322   H         1 RES1   0.0000
    80 C8L     11.5290  -2.5285  -6.9189   C.ar      1 RES1   0.0000
    81 H7L     11.2884  -2.8689  -7.7503   H         1 RES1   0.0000
    82 C9L     10.5701  -1.9252  -6.1167   C.ar      1 RES1   0.0000
    83 H8L      9.6875  -1.8653  -6.4017   H         1 RES1   0.0000
    84 N2Q      6.5320  -0.3528   0.0935   N.2       1 RES1   0.0000
    85 N3Q      6.0369  -1.4033   0.7087   N.2       1 RES1   0.0000
    86 N4Q      4.7112  -1.2033   0.7897   N.pl3     1 RES1   0.0000
    87 C1Q      5.8710   1.8112  -0.8931   C.3       1 RES1   0.0000
    88 H1Q      5.9778   2.5099  -0.2294   H         1 RES1   0.0000
    89 H2Q      5.1529   2.0668  -1.4923   H         1 RES1   0.0000
    90 C2Q      5.5384   0.5158  -0.2224   C.2       1 RES1   0.0000
    91 C3Q      4.3581  -0.0249   0.2156   C.2       1 RES1   0.0000
    92 H3Q      3.5047   0.3363   0.1366   H         1 RES1   0.0000
    93 C4Q      3.8704  -2.1909   1.4142   C.ar      1 RES1   0.0000
    94 C5Q      4.3046  -3.5005   1.4875   C.ar      1 RES1   0.0000
    95 H4Q      5.1266  -3.7482   1.1297   H         1 RES1   0.0000
    96 C6Q      3.4884  -4.4406   2.1069   C.ar      1 RES1   0.0000
    97 H5Q      3.7710  -5.3245   2.1718   H         1 RES1   0.0000
    98 C7Q      2.2627  -4.0734   2.6265   C.ar      1 RES1   0.0000
    99 H6Q      1.7252  -4.7080   3.0423   H         1 RES1   0.0000
   100 C8Q      1.8385  -2.7716   2.5285   C.ar      1 RES1   0.0000
   101 H7Q      1.0071  -2.5309   2.8689   H         1 RES1   0.0000
   102 C9Q      2.6407  -1.8126   1.9252   C.ar      1 RES1   0.0000
   103 H8Q      2.3558  -0.9300   1.8653   H         1 RES1   0.0000
   104 N2W      8.8510   2.2254   0.3528   N.2       1 RES1   0.0000
   105 N3W      9.4661   2.7206   1.4033   N.2       1 RES1   0.0000
   106 N4W      9.5472   4.0463   1.2033   N.pl3     1 RES1   0.0000
   107 C1W      7.8644   2.8865  -1.8112   C.3       1 RES1   0.0000
   108 H1W      8.5280   2.7796  -2.5099   H         1 RES1   0.0000
   109 H2W      7.2652   3.6046  -2.0668   H         1 RES1   0.0000
   110 C2W      8.5350   3.2191  -0.5158   C.2       1 RES1   0.0000
   111 C3W      8.9731   4.3994   0.0249   C.2       1 RES1   0.0000
   112 H3W      8.8941   5.2527  -0.3363   H         1 RES1   0.0000
   113 C4W     10.1716   4.8870   2.1909   C.ar      1 RES1   0.0000
   114 C5W     10.2450   4.4528   3.5005   C.ar      1 RES1   0.0000
   115 H4W      9.8872   3.6308   3.7482   H         1 RES1   0.0000
   116 C6W     10.8643   5.2690   4.4406   C.ar      1 RES1   0.0000
   117 H5W     10.9293   4.9865   5.3245   H         1 RES1   0.0000
   118 C7W     11.3840   6.4947   4.0734   C.ar      1 RES1   0.0000
   119 H6W     11.7998   7.0322   4.7080   H         1 RES1   0.0000
   120 C8W     11.2859   6.9189   2.7716   C.ar      1 RES1   0.0000
   121 H7W     11.6264   7.7503   2.5309   H         1 RES1   0.0000
   122 C9W     10.6827   6.1167   1.8126   C.ar      1 RES1   0.0000
   123 H8W     10.6228   6.4017   0.9300   H         1 RES1   0.0000
   124 B1       1.9834   1.9834   1.9834   B         2 RES2  -1.0000
   125 F1       1.1733   1.1733   1.1733   F         2 RES2   0.0000
   126 F2       1.1831   2.9155   2.6183   F         2 RES2   0.0000
   127 F2D      2.6183   1.1831   2.9155   F         2 RES2   0.0000
   128 F2H      2.9155   2.6183   1.1831   F         2 RES2   0.0000
@<TRIPOS>BOND
     1     1     3    1
     2     2     6    1
     3     3     4    2
     4     4     5    1
     5     5    10    1
     6     6     7    1
     7     8     6    1
     8     9     3    1
     9    10     9    2
    10    11    10    1
    11    12     5    1
    12    13    12   ar
    13    14    13    1
    14    15    13   ar
    15    16    15    1
    16    17    15   ar
    17    18    17    1
    18    19    17   ar
    19    20    19    1
    20    21    12   ar
    21    22    21    1
    22    23     1    1
    23    24    23    2
    24    25    24    1
    25    26     2    1
    26    27    26    1
    27    28    26    1
    28    29    23    1
    29    30    25    1
    30    31    30    1
    31    32    25    1
    32    33    32   ar
    33    34    33    1
    34    35    33   ar
    35    36    35    1
    36    37    35   ar
    37    38    37    1
    38    39    37   ar
    39    40    39    1
    40    41    32   ar
    41    42    41    1
    42    43     1    1
    43    44    43    2
    44    45    44    1
    45    46     2    1
    46    47    46    1
    47    48    46    1
    48    49    43    1
    49    50    45    1
    50    51    50    1
    51    52    45    1
    52    53    52   ar
    53    54    53    1
    54    55    53   ar
    55    56    55    1
    56    57    55   ar
    57    58    57    1
    58    59    57   ar
    59    60    59    1
    60    61    52   ar
    61    62    61    1
    62    63    67    1
    63    64     1    1
    64    65    64    2
    65    66    65    1
    66    67    68    1
    67    69    67    1
    68    70    64    1
    69    71    66    1
    70    72    71    1
    71    73    66    1
    72    74    73   ar
    73    75    74    1
    74    76    74   ar
    75    77    76    1
    76    78    76   ar
    77    79    78    1
    78    80    78   ar
    79    81    80    1
    80    82    73   ar
    81    83    82    1
    82    84     1    1
    83    85    84    2
    84    86    85    1
    85    87    63    1
    86    88    87    1
    87    89    87    1
    88    90    84    1
    89    91    86    1
    90    92    91    1
    91    93    86    1
    92    94    93   ar
    93    95    94    1
    94    96    94   ar
    95    97    96    1
    96    98    96   ar
    97    99    98    1
    98   100    98   ar
    99   101   100    1
   100   102    93   ar
   101   103   102    1
   102   104     1    1
   103   105   104    2
   104   106   105    1
   105   107    63    1
   106   108   107    1
   107   109   107    1
   108   110   104    1
   109   111   106    1
   110   112   111    1
   111   113   106    1
   112   114   113   ar
   113   115   114    1
   114   116   114   ar
   115   117   116    1
   116   118   116   ar
   117   119   118    1
   118   120   118   ar
   119   121   120    1
   120   122   113   ar
   121   123   122    1
   122     6     9    1
   123    19    21   ar
   124    26    29    1
   125    29    30    2
   126    39    41   ar
   127    46    49    1
   128    49    50    2
   129    59    61   ar
   130    67    70    1
   131    70    71    2
   132    80    82   ar
   133    87    90    1
   134    90    91    2
   135   100   102   ar
   136   107   110    1
   137   110   111    2
   138   120   122   ar
   139   124   125    1
   140   126   124    1
   141   127   124    1
   142   128   124    1
@<TRIPOS>SUBSTRUCTURE
     1 RES1        1 GROUP             0 ****  ****    0  
     2 RES2      124 GROUP             0 ****  ****    0  
@<TRIPOS>CRYSIN
   17.5149   17.5149   17.5149   90.0000   90.0000   90.0000   205     1
