@<TRIPOS>MOLECULE
IROMOU02
    78    81     2     0     0
SMALL
USER_CHARGES
****
Generated from the CSD

@<TRIPOS>ATOM
     1 Fe1      7.3535   4.9511   6.7735   Fe        1 RES1   0.0000
     2 S1       3.0992   3.3512   5.0732   S.2       1 RES1   0.0000
     3 S2      10.5092   2.9453   3.8342   S.2       1 RES1   0.0000
     4 S3       8.3407   1.2817   9.8454   S.2       1 RES1   0.0000
     5 O1       8.3787   9.4407   7.6643   O.3       1 RES1   0.0000
     6 N1       6.9246   6.8670   5.6509   N.ar      1 RES1   0.0000
     7 N2       6.7938   6.2209   8.4372   N.ar      1 RES1   0.0000
     8 N3       8.2691   4.0547   5.1079   N.2       1 RES1  -1.0000
     9 N4       9.2538   5.9152   7.2337   N.ar      1 RES1   0.0000
    10 N5       5.4165   4.3023   6.3226   N.2       1 RES1   0.0000
    11 N6       7.7997   3.3639   8.0565   N.2       1 RES1   0.0000
    12 C1       6.6034   9.1172   4.0332   C.ar      1 RES1   0.0000
    13 H1       6.5170   9.8601   3.4818   H         1 RES1   0.0000
    14 C2      11.7215   7.1174   6.9160   C.ar      1 RES1   0.0000
    15 H2      12.5489   7.5243   6.7844   H         1 RES1   0.0000
    16 C3       6.2376   6.8090   4.4992   C.ar      1 RES1   0.0000
    17 H3       5.8812   5.9908   4.2375   H         1 RES1   0.0000
    18 C4       5.4981   7.8979  10.2186   C.ar      1 RES1   0.0000
    19 H4       5.0475   8.4641  10.8022   H         1 RES1   0.0000
    20 C5       6.3757   8.4120   9.2782   C.ar      1 RES1   0.0000
    21 H5       6.5092   9.3301   9.2138   H         1 RES1   0.0000
    22 C6       5.3034   6.5309  10.2760   C.ar      1 RES1   0.0000
    23 H6       4.7539   6.1573  10.9267   H         1 RES1   0.0000
    24 C7       5.9408   5.7316   9.3468   C.ar      1 RES1   0.0000
    25 H7       5.7713   4.8178   9.3538   H         1 RES1   0.0000
    26 C8       7.3994   8.0659   6.0203   C.ar      1 RES1   0.0000
    27 C9       6.0350   7.9052   3.6819   C.ar      1 RES1   0.0000
    28 H8       5.5232   7.8299   2.9080   H         1 RES1   0.0000
    29 C10      9.3603   7.2419   7.2462   C.ar      1 RES1   0.0000
    30 C11      8.0745   8.0789   7.4016   C.3       1 RES1   0.0000
    31 C12     11.6242   5.7359   7.0013   C.ar      1 RES1   0.0000
    32 H9      12.3857   5.2030   6.9720   H         1 RES1   0.0000
    33 C13      9.1797   3.5638   4.5733   C.1       1 RES1   0.0000
    34 C14     10.5770   7.8835   7.0293   C.ar      1 RES1   0.0000
    35 H10     10.6194   8.8102   6.9608   H         1 RES1   0.0000
    36 C15     10.3729   5.1741   7.1287   C.ar      1 RES1   0.0000
    37 H11     10.2976   4.2473   7.1441   H         1 RES1   0.0000
    38 C16      7.0540   7.5417   8.4344   C.ar      1 RES1   0.0000
    39 C17      7.3099   9.2012   5.2339   C.ar      1 RES1   0.0000
    40 H12      7.7087   9.9991   5.4998   H         1 RES1   0.0000
    41 C18      9.0871   9.7472   8.8920   C.3       1 RES1   0.0000
    42 H13      9.9161   9.2461   8.9368   H         1 RES1   0.0000
    43 H14      8.5439   9.5155   9.6617   H         1 RES1   0.0000
    44 C19      9.3697  11.2228   8.8794   C.3       1 RES1   0.0000
    45 H15      9.8407  11.4661   9.6813   H         1 RES1   0.0000
    46 H16      9.9082  11.4385   8.1153   H         1 RES1   0.0000
    47 H17      8.5423  11.7064   8.8360   H         1 RES1   0.0000
    48 C20      8.0305   2.5067   8.8010   C.1       1 RES1   0.0000
    49 C21      4.4619   3.9070   5.7936   C.1       1 RES1   0.0000
    50 N7       4.8073  14.2248   7.0069   N.4       2 RES2   1.0000
    51 C22      3.5136  13.4297   7.0013   C.3       2 RES2   0.0000
    52 H18      3.6157  12.6839   6.3898   H         2 RES2   0.0000
    53 H19      3.3770  13.0619   7.8886   H         2 RES2   0.0000
    54 C23      4.6864  15.4396   7.9138   C.3       2 RES2   0.0000
    55 H20      5.5468  15.8886   7.9418   H         2 RES2   0.0000
    56 H21      4.0490  16.0551   7.5205   H         2 RES2   0.0000
    57 C24      5.1025  14.6982   5.5935   C.3       2 RES2   0.0000
    58 H22      5.0538  13.9351   4.9974   H         2 RES2   0.0000
    59 H23      4.4085  15.3209   5.3276   H         2 RES2   0.0000
    60 C25      2.2702  14.2015   6.6081   C.3       2 RES2   0.0000
    61 H24      1.5103  13.6179   6.6347   H         2 RES2   0.0000
    62 H25      2.1383  14.9285   7.2211   H         2 RES2   0.0000
    63 H26      2.3770  14.5491   5.7195   H         2 RES2   0.0000
    64 C26      6.2753  12.1698   6.6305   C.3       2 RES2   0.0000
    65 H27      6.9817  11.6572   7.0321   H         2 RES2   0.0000
    66 H28      5.5044  11.6123   6.5073   H         2 RES2   0.0000
    67 H29      6.5688  12.5043   5.7796   H         2 RES2   0.0000
    68 C27      4.2562  15.1442   9.3342   C.3       2 RES2   0.0000
    69 H30      4.2076  15.9639   9.8310   H         2 RES2   0.0000
    70 H31      3.3927  14.7243   9.3244   H         2 RES2   0.0000
    71 H32      4.8937  14.5577   9.7470   H         2 RES2   0.0000
    72 C28      6.4479  15.3687   5.4102   C.3       2 RES2   0.0000
    73 H33      6.5516  15.6351   4.4936   H         2 RES2   0.0000
    74 H34      6.4998  16.1434   5.9756   H         2 RES2   0.0000
    75 H35      7.1466  14.7532   5.6439   H         2 RES2   0.0000
    76 C29      5.9157  13.3384   7.5387   C.3       2 RES2   0.0000
    77 H36      5.6457  12.9895   8.4022   H         2 RES2   0.0000
    78 H37      6.7086  13.8815   7.6759   H         2 RES2   0.0000
@<TRIPOS>BOND
     1     1     6    1
     2     2    49    2
     3     3    33    2
     4     4    48    2
     5     5    30    1
     6     6    16   ar
     7     7     1    1
     8     8     1    1
     9     9     1    1
    10    10     1    1
    11    11     1    1
    12    12    13    1
    13    14    15    1
    14    16    17    1
    15    18    19    1
    16    20    18   ar
    17    21    20    1
    18    22    18   ar
    19    23    22    1
    20    24     7   ar
    21    25    24    1
    22    26     6   ar
    23    27    12   ar
    24    28    27    1
    25    29     9   ar
    26    30    26    1
    27    31    14   ar
    28    32    31    1
    29    33     8    2
    30    34    14   ar
    31    35    34    1
    32    36     9   ar
    33    37    36    1
    34    38     7   ar
    35    39    12   ar
    36    40    39    1
    37    41     5    1
    38    42    41    1
    39    43    41    1
    40    44    41    1
    41    45    44    1
    42    46    44    1
    43    47    44    1
    44    48    11    2
    45    49    10    2
    46    16    27   ar
    47    20    38   ar
    48    22    24   ar
    49    26    39   ar
    50    29    30    1
    51    29    34   ar
    52    30    38    1
    53    31    36   ar
    54    50    51    1
    55    51    52    1
    56    53    51    1
    57    54    50    1
    58    55    54    1
    59    56    54    1
    60    57    50    1
    61    58    57    1
    62    59    57    1
    63    60    51    1
    64    61    60    1
    65    62    60    1
    66    63    60    1
    67    64    65    1
    68    66    64    1
    69    67    64    1
    70    68    54    1
    71    69    68    1
    72    70    68    1
    73    71    68    1
    74    72    57    1
    75    73    72    1
    76    74    72    1
    77    75    72    1
    78    76    50    1
    79    77    76    1
    80    78    76    1
    81    64    76    1
@<TRIPOS>SUBSTRUCTURE
     1 RES1        1 GROUP             0 ****  ****    0  
     2 RES2       50 GROUP             0 ****  ****    0  
@<TRIPOS>CRYSIN
   15.6999   14.4810   13.9943   90.0000   90.0000   90.0000    29     1
