@<TRIPOS>MOLECULE
IROMOU
    78    81     2     0     0
SMALL
USER_CHARGES
****
Generated from the CSD

@<TRIPOS>ATOM
     1 Fe1      7.4069   4.9878   6.8311   Fe        1 RES1   0.0000
     2 S1       3.1823   3.3957   5.0752   S.2       1 RES1   0.0000
     3 S2      10.5072   2.9364   3.8464   S.2       1 RES1   0.0000
     4 S3       8.4333   1.3314   9.8761   S.2       1 RES1   0.0000
     5 O1       8.4254   9.4754   7.6922   O.3       1 RES1   0.0000
     6 N1       6.9841   6.8881   5.6886   N.ar      1 RES1   0.0000
     7 N2       6.8309   6.2631   8.4723   N.ar      1 RES1   0.0000
     8 N3       8.3054   4.0829   5.1803   N.2       1 RES1  -1.0000
     9 N4       9.3047   5.9492   7.2754   N.ar      1 RES1   0.0000
    10 N5       5.4843   4.3358   6.3841   N.2       1 RES1   0.0000
    11 N6       7.8508   3.4026   8.1090   N.2       1 RES1   0.0000
    12 C1       6.6368   9.1294   4.0693   C.ar      1 RES1   0.0000
    13 H1       6.5452   9.8693   3.5131   H         1 RES1   0.0000
    14 C2      11.7691   7.1309   6.9417   C.ar      1 RES1   0.0000
    15 H2      12.5931   7.5364   6.7967   H         1 RES1   0.0000
    16 C3       6.3052   6.8198   4.5368   C.ar      1 RES1   0.0000
    17 H3       5.9690   5.9942   4.2735   H         1 RES1   0.0000
    18 C4       5.5696   7.9376  10.2591   C.ar      1 RES1   0.0000
    19 H4       5.1354   8.5030  10.8561   H         1 RES1   0.0000
    20 C5       6.4268   8.4506   9.3185   C.ar      1 RES1   0.0000
    21 H5       6.5563   9.3693   9.2495   H         1 RES1   0.0000
    22 C6       5.3565   6.5771  10.3112   C.ar      1 RES1   0.0000
    23 H6       4.8008   6.2094  10.9589   H         1 RES1   0.0000
    24 C7       5.9816   5.7733   9.3889   C.ar      1 RES1   0.0000
    25 H7       5.8095   4.8605   9.3988   H         1 RES1   0.0000
    26 C8       7.4514   8.0829   6.0589   C.ar      1 RES1   0.0000
    27 C9       6.0811   7.8998   3.7215   C.ar      1 RES1   0.0000
    28 H8       5.5680   7.8126   2.9499   H         1 RES1   0.0000
    29 C10      9.4089   7.2719   7.2783   C.ar      1 RES1   0.0000
    30 C11      8.1207   8.1062   7.4402   C.3       1 RES1   0.0000
    31 C12     11.6807   5.7675   7.0290   C.ar      1 RES1   0.0000
    32 H9      12.4447   5.2355   6.9995   H         1 RES1   0.0000
    33 C13      9.2084   3.5756   4.6086   C.1       1 RES1   0.0000
    34 C14     10.6277   7.9085   7.0671   C.ar      1 RES1   0.0000
    35 H10     10.6766   8.8358   7.0107   H         1 RES1   0.0000
    36 C15     10.4224   5.2006   7.1656   C.ar      1 RES1   0.0000
    37 H11     10.3467   4.2747   7.1797   H         1 RES1   0.0000
    38 C16      7.1025   7.5756   8.4653   C.ar      1 RES1   0.0000
    39 C17      7.3361   9.2225   5.2802   C.ar      1 RES1   0.0000
    40 H12      7.7134  10.0262   5.5548   H         1 RES1   0.0000
    41 C18      9.1563   9.7893   8.9088   C.3       1 RES1   0.0000
    42 H13      9.9883   9.2893   8.9370   H         1 RES1   0.0000
    43 H14      8.6291   9.5539   9.6875   H         1 RES1   0.0000
    44 C19      9.4358  11.2457   8.8975   C.3       1 RES1   0.0000
    45 H15      9.9204  11.4856   9.6903   H         1 RES1   0.0000
    46 H16      9.9583  11.4667   8.1231   H         1 RES1   0.0000
    47 H17      8.6070  11.7297   8.8708   H         1 RES1   0.0000
    48 C20      8.1002   2.5465   8.8468   C.1       1 RES1   0.0000
    49 C21      4.5229   3.9332   5.8322   C.1       1 RES1   0.0000
    50 N7       4.8560  14.2995   7.0361   N.4       2 RES2   1.0000
    51 C22      3.5489  13.5059   7.0192   C.3       2 RES2   0.0000
    52 H18      3.6515  12.7661   6.3996   H         2 RES2   0.0000
    53 H19      3.4115  13.1280   7.9020   H         2 RES2   0.0000
    54 C23      4.7439  15.5074   7.9372   C.3       2 RES2   0.0000
    55 H20      4.1109  16.1280   7.5416   H         2 RES2   0.0000
    56 H21      5.6059  15.9493   7.9682   H         2 RES2   0.0000
    57 C24      5.1449  14.7530   5.6210   C.3       2 RES2   0.0000
    58 H22      4.4487  15.3722   5.3478   H         2 RES2   0.0000
    59 H23      5.0960  13.9827   5.0338   H         2 RES2   0.0000
    60 C25      2.2954  14.2806   6.6320   C.3       2 RES2   0.0000
    61 H24      1.5376  13.6934   6.6531   H         2 RES2   0.0000
    62 H25      2.1612  15.0016   7.2529   H         2 RES2   0.0000
    63 H26      2.4012  14.6382   5.7463   H         2 RES2   0.0000
    64 C26      6.2831  12.2196   6.6658   C.3       2 RES2   0.0000
    65 H27      6.9857  11.7007   7.0656   H         2 RES2   0.0000
    66 H28      5.5033  11.6716   6.5573   H         2 RES2   0.0000
    67 H29      6.5720  12.5393   5.8082   H         2 RES2   0.0000
    68 C27      4.3035  15.2123   9.3552   C.3       2 RES2   0.0000
    69 H30      4.2593  16.0321   9.8536   H         2 RES2   0.0000
    70 H31      3.4384  14.7981   9.3425   H         2 RES2   0.0000
    71 H32      4.9365  14.6208   9.7691   H         2 RES2   0.0000
    72 C28      6.4884  15.4245   5.4196   C.3       2 RES2   0.0000
    73 H33      6.5863  15.6775   4.4988   H         2 RES2   0.0000
    74 H34      6.5420  16.2065   5.9730   H         2 RES2   0.0000
    75 H35      7.1909  14.8141   5.6590   H         2 RES2   0.0000
    76 C29      5.9532  13.4013   7.5613   C.3       2 RES2   0.0000
    77 H36      5.6896  13.0670   8.4329   H         2 RES2   0.0000
    78 H37      6.7568  13.9318   7.6838   H         2 RES2   0.0000
@<TRIPOS>BOND
     1     1     6    1
     2     2    49    2
     3     3    33    2
     4     4    48    2
     5     5    30    1
     6     6    16   ar
     7     7     1    1
     8     8     1    1
     9     9     1    1
    10    10     1    1
    11    11     1    1
    12    12    13    1
    13    14    15    1
    14    16    17    1
    15    18    19    1
    16    20    18   ar
    17    21    20    1
    18    22    18   ar
    19    23    22    1
    20    24     7   ar
    21    25    24    1
    22    26     6   ar
    23    27    12   ar
    24    28    27    1
    25    29     9   ar
    26    30    26    1
    27    31    14   ar
    28    32    31    1
    29    33     8    2
    30    34    14   ar
    31    35    34    1
    32    36     9   ar
    33    37    36    1
    34    38     7   ar
    35    39    12   ar
    36    40    39    1
    37    41     5    1
    38    42    41    1
    39    43    41    1
    40    44    41    1
    41    45    44    1
    42    46    44    1
    43    47    44    1
    44    48    11    2
    45    49    10    2
    46    16    27   ar
    47    20    38   ar
    48    22    24   ar
    49    26    39   ar
    50    29    30    1
    51    29    34   ar
    52    30    38    1
    53    31    36   ar
    54    50    51    1
    55    51    52    1
    56    53    51    1
    57    54    50    1
    58    55    54    1
    59    56    54    1
    60    57    50    1
    61    58    57    1
    62    59    57    1
    63    60    51    1
    64    61    60    1
    65    62    60    1
    66    63    60    1
    67    64    65    1
    68    66    64    1
    69    67    64    1
    70    68    54    1
    71    69    68    1
    72    70    68    1
    73    71    68    1
    74    72    57    1
    75    73    72    1
    76    74    72    1
    77    75    72    1
    78    76    50    1
    79    77    76    1
    80    78    76    1
    81    64    76    1
@<TRIPOS>SUBSTRUCTURE
     1 RES1        1 GROUP             0 ****  ****    0  
     2 RES2       50 GROUP             0 ****  ****    0  
@<TRIPOS>CRYSIN
   15.7868   14.5350   14.0806   90.0000   90.0000   90.0000    29     1
