@<TRIPOS>MOLECULE
IRURUJ
   159   157    11     0     0
SMALL
USER_CHARGES
****
Generated from the CSD

@<TRIPOS>ATOM
     1 Fe1      7.4122   7.5308   9.3051   Fe        1 RES1   2.0000
     2 N1       5.6866   6.9697   8.5511   N.ar      1 RES1   0.0000
     3 N2       3.8580   6.5286   5.4312   N.am      1 RES1   0.0000
     4 H1       4.5587   6.4691   4.9183   H         1 RES1   0.0000
     5 N3       6.5265   6.9564  10.9703   N.ar      1 RES1   0.0000
     6 N4       7.1200   6.6532  14.5932   N.am      1 RES1   0.0000
     7 H2       7.9688   6.8396  14.5557   H         1 RES1   0.0000
     8 N5       8.2153   5.7540   9.1555   N.ar      1 RES1   0.0000
     9 N6       7.6675   2.4111   7.8095   N.am      1 RES1   0.0000
    10 H3       7.2048   2.6616   7.1186   H         1 RES1   0.0000
    11 N7       9.1342   7.9383  10.1862   N.ar      1 RES1   0.0000
    12 N8      11.1574  10.4284  12.0434   N.am      1 RES1   0.0000
    13 H4      11.8213  10.3631  12.6004   H         1 RES1   0.0000
    14 N9       8.0936   8.1722   7.5776   N.ar      1 RES1   0.0000
    15 N10      9.5677   7.0970   4.4659   N.am      1 RES1   0.0000
    16 H5       9.2924   6.2754   4.5377   H         1 RES1   0.0000
    17 N11      6.7392   9.4024   9.4201   N.ar      1 RES1   0.0000
    18 N12      4.5815  11.7048  11.2528   N.am      1 RES1   0.0000
    19 H6       4.4999  12.5723  11.2757   H         1 RES1   0.0000
    20 O1       1.5535   6.5813   5.3675   O.2       1 RES1   0.0000
    21 O2       2.8218   6.6520   3.5201   O.3       1 RES1   0.0000
    22 O3       5.4019   6.2655  16.0241   O.2       1 RES1   0.0000
    23 O4       7.4990   6.5619  16.7282   O.3       1 RES1   0.0000
    24 O5       8.4233   0.5638   8.9480   O.2       1 RES1   0.0000
    25 O6       6.8852   0.4518   7.2705   O.3       1 RES1   0.0000
    26 O7       9.6821  11.9443  11.2006   O.2       1 RES1   0.0000
    27 O8      11.2353  12.4870  12.7572   O.3       1 RES1   0.0000
    28 O9      10.9526   8.4385   3.2261   O.2       1 RES1   0.0000
    29 O10     10.4817   6.3032   2.6609   O.3       1 RES1   0.0000
    30 O11      3.7831   9.7815  12.2133   O.2       1 RES1   0.0000
    31 O12      3.1609  11.8593  12.9108   O.3       1 RES1   0.0000
    32 C1       5.3353   6.9390   7.2607   C.ar      1 RES1   0.0000
    33 H7       5.9696   7.1846   6.6122   H         1 RES1   0.0000
    34 C2       4.0548   6.5534   6.8393   C.ar      1 RES1   0.0000
    35 C3       3.1130   6.1931   7.7752   C.ar      1 RES1   0.0000
    36 H8       2.2443   5.9495   7.5122   H         1 RES1   0.0000
    37 C4       3.4763   6.1970   9.1196   C.ar      1 RES1   0.0000
    38 H9       2.8521   5.9368   9.7729   H         1 RES1   0.0000
    39 C5       4.7647   6.5854   9.5034   C.ar      1 RES1   0.0000
    40 C6       5.2680   6.5488  10.8510   C.ar      1 RES1   0.0000
    41 C7       4.5115   6.1167  11.9503   C.ar      1 RES1   0.0000
    42 H10      3.6313   5.8098  11.8343   H         1 RES1   0.0000
    43 C8       5.1021   6.1509  13.2440   C.ar      1 RES1   0.0000
    44 H11      4.6042   5.9012  14.0019   H         1 RES1   0.0000
    45 C9       6.4100   6.5535  13.3714   C.ar      1 RES1   0.0000
    46 C10      7.1092   6.9678  12.2313   C.ar      1 RES1   0.0000
    47 H12      7.9979   7.2619  12.3211   H         1 RES1   0.0000
    48 C11      2.6287   6.5909   4.8432   C.2       1 RES1   0.0000
    49 C12      1.6095   6.8592   2.6821   C.3       1 RES1   0.0000
    50 H13      0.8752   6.2750   2.9974   H         1 RES1   0.0000
    51 C13      1.2071   8.2597   2.7671   C.3       1 RES1   0.0000
    52 H14      0.9441   8.4669   3.6769   H         1 RES1   0.0000
    53 H15      0.4585   8.4179   2.1709   H         1 RES1   0.0000
    54 H16      1.9511   8.8267   2.5090   H         1 RES1   0.0000
    55 C14      2.0091   6.4783   1.2741   C.3       1 RES1   0.0000
    56 H17      1.2543   6.5998   0.6795   H         1 RES1   0.0000
    57 H18      2.2866   5.5469   1.2578   H         1 RES1   0.0000
    58 H19      2.7457   7.0399   0.9833   H         1 RES1   0.0000
    59 C15      6.5812   6.4792  15.7824   C.2       1 RES1   0.0000
    60 C16      7.0916   6.4514  18.1411   C.3       1 RES1   0.0000
    61 H20      6.1207   6.2713  18.2130   H         1 RES1   0.0000
    62 C17      7.4369   7.7267  18.8026   C.3       1 RES1   0.0000
    63 H21      6.9037   8.4435  18.4204   H         1 RES1   0.0000
    64 H22      8.3778   7.9166  18.6687   H         1 RES1   0.0000
    65 H23      7.2524   7.6590  19.7517   H         1 RES1   0.0000
    66 C18      7.8862   5.2976  18.6899   C.3       1 RES1   0.0000
    67 H24      7.6035   4.4753  18.2587   H         1 RES1   0.0000
    68 H25      7.7366   5.2288  19.6455   H         1 RES1   0.0000
    69 H26      8.8302   5.4442  18.5201   H         1 RES1   0.0000
    70 C19      7.6928   4.6856   8.5478   C.ar      1 RES1   0.0000
    71 H27      6.8763   4.7846   8.0921   H         1 RES1   0.0000
    72 C20      8.3148   3.4163   8.5560   C.ar      1 RES1   0.0000
    73 C21      9.4829   3.2495   9.2649   C.ar      1 RES1   0.0000
    74 H28      9.8924   2.4045   9.3286   H         1 RES1   0.0000
    75 C22     10.0392   4.3587   9.8840   C.ar      1 RES1   0.0000
    76 H29     10.8378   4.2714  10.3724   H         1 RES1   0.0000
    77 C23      9.4181   5.6050   9.7827   C.ar      1 RES1   0.0000
    78 C24      9.9608   6.8479  10.3626   C.ar      1 RES1   0.0000
    79 C25     11.1919   6.9604  10.9604   C.ar      1 RES1   0.0000
    80 H30     11.7608   6.2138  10.9948   H         1 RES1   0.0000
    81 C26     11.5997   8.1397  11.5044   C.ar      1 RES1   0.0000
    82 H31     12.4230   8.2017  11.9536   H         1 RES1   0.0000
    83 C27     10.7722   9.2490  11.3851   C.ar      1 RES1   0.0000
    84 C28      9.5451   9.1207  10.7187   C.ar      1 RES1   0.0000
    85 H32      8.9889   9.8758  10.6370   H         1 RES1   0.0000
    86 C29      7.7108   1.0573   8.0888   C.2       1 RES1   0.0000
    87 C30      6.6245  -0.9806   7.5808   C.3       1 RES1   0.0000
    88 H33      7.2165  -1.3456   8.2832   H         1 RES1   0.0000
    89 C31      6.7582  -1.6354   6.3280   C.3       1 RES1   0.0000
    90 H34      6.6359  -2.5910   6.4472   H         1 RES1   0.0000
    91 H35      7.6414  -1.4654   5.9670   H         1 RES1   0.0000
    92 H36      6.0879  -1.3004   5.7138   H         1 RES1   0.0000
    93 C32      5.1926  -1.1164   7.8928   C.3       1 RES1   0.0000
    94 H37      5.0100  -0.7179   8.7569   H         1 RES1   0.0000
    95 H38      4.9550  -2.0578   7.9124   H         1 RES1   0.0000
    96 H39      4.6689  -0.6661   7.2117   H         1 RES1   0.0000
    97 C33     10.6060  11.6555  11.9046   C.2       1 RES1   0.0000
    98 C34     10.8488  13.9266  12.7964   C.3       1 RES1   0.0000
    99 H40      9.8760  14.0104  12.6266   H         1 RES1   0.0000
   100 C35     11.1472  14.3522  14.2143   C.3       1 RES1   0.0000
   101 H41     10.6011  13.8383  14.8285   H         1 RES1   0.0000
   102 H42     10.9467  15.2966  14.3172   H         1 RES1   0.0000
   103 H43     12.0841  14.1978  14.4070   H         1 RES1   0.0000
   104 C36     11.5880  14.6306  11.7494   C.3       1 RES1   0.0000
   105 H44     11.3355  14.2773  10.8820   H         1 RES1   0.0000
   106 H45     12.5401  14.5028  11.8850   H         1 RES1   0.0000
   107 H46     11.3803  15.5774  11.7853   H         1 RES1   0.0000
   108 C37      8.6694   7.4650   6.6400   C.ar      1 RES1   0.0000
   109 H47      8.7966   6.5493   6.8033   H         1 RES1   0.0000
   110 C38      9.1150   7.9712   5.4018   C.ar      1 RES1   0.0000
   111 C39      9.0484   9.3783   5.2679   C.ar      1 RES1   0.0000
   112 H48      9.4180   9.7958   4.5100   H         1 RES1   0.0000
   113 C40      8.4687  10.1039   6.1989   C.ar      1 RES1   0.0000
   114 H49      8.4067  11.0342   6.0764   H         1 RES1   0.0000
   115 C41      7.9326   9.5288   7.3832   C.ar      1 RES1   0.0000
   116 C42      7.1319  10.1774   8.3910   C.ar      1 RES1   0.0000
   117 C43      6.7068  11.5544   8.3535   C.ar      1 RES1   0.0000
   118 H50      7.0217  12.1284   7.6805   H         1 RES1   0.0000
   119 C44      5.8542  12.0135   9.2878   C.ar      1 RES1   0.0000
   120 H51      5.5393  12.8968   9.2339   H         1 RES1   0.0000
   121 C45      5.4406  11.2020  10.3218   C.ar      1 RES1   0.0000
   122 C46      5.9025   9.8765  10.3446   C.ar      1 RES1   0.0000
   123 H52      5.6127   9.3043  11.0323   H         1 RES1   0.0000
   124 C47     10.4028   7.3665   3.4302   C.2       1 RES1   0.0000
   125 C48     11.3015   6.3218   1.5142   C.3       1 RES1   0.0000
   126 H53     11.8556   7.1405   1.4799   H         1 RES1   0.0000
   127 C49     10.2756   6.2557   0.2679   C.3       1 RES1   0.0000
   128 H54      9.7298   7.0579   0.2548   H         1 RES1   0.0000
   129 H55      9.7029   5.4771   0.3610   H         1 RES1   0.0000
   130 H56     10.7757   6.1906  -0.5603   H         1 RES1   0.0000
   131 C50     12.0897   5.1669   1.4195   C.3       1 RES1   0.0000
   132 H57     12.6943   5.1265   2.1758   H         1 RES1   0.0000
   133 H58     12.6045   5.1939   0.5962   H         1 RES1   0.0000
   134 H59     11.5183   4.3832   1.4178   H         1 RES1   0.0000
   135 C51      3.8349  11.0022  12.1512   C.2       1 RES1   0.0000
   136 C52      2.2285  11.2887  13.9235   C.3       1 RES1   0.0000
   137 H60      1.7580  10.5011  13.5527   H         1 RES1   0.0000
   138 C53      1.2412  12.4127  14.2045   C.3       1 RES1   0.0000
   139 H61      0.5836  12.1119  14.8497   H         1 RES1   0.0000
   140 H62      0.7937  12.6640  13.3812   H         1 RES1   0.0000
   141 H63      1.7169  13.1796  14.5606   H         1 RES1   0.0000
   142 C54      3.0205  10.8949  15.1780   C.3       1 RES1   0.0000
   143 H64      3.6740  10.2160  14.9477   H         1 RES1   0.0000
   144 H65      2.4112  10.5441  15.8461   H         1 RES1   0.0000
   145 H66      3.4747  11.6750  15.5325   H         1 RES1   0.0000
   146 S1       6.8627   4.5745   4.5902   S.o2      2 RES2   0.0000
   147 O13      6.3678   5.9670   4.3450   O.3       2 RES2  -1.0000
   148 O14      8.2905   4.6208   4.5753   O.3       2 RES2  -1.0000
   149 O15      6.3650   4.0807   5.8576   O.2       2 RES2   0.0000
   150 O16      6.3333   3.7377   3.5234   O.2       2 RES2   0.0000
   151 O17     -1.5403  10.1103   5.2042   O.3       3 RES3   0.0000
   152 O18     11.4116   1.5274   2.0663   O.3       4 RES4   0.0000
   153 O19      9.1424   3.1546   2.1186   O.3       5 RES5   0.0000
   154 O20      3.1269  -4.5456  16.4831   O.3       6 RES6   0.0000
   155 O21     -1.1205   9.6261  14.2404   O.3       7 RES7   0.0000
   156 O22      5.9718   1.0365   3.5119   O.3       8 RES8   0.0000
   157 O23      5.6114   4.5222   1.1173   O.3       9 RES9   0.0000
   158 O24      6.8793   1.2034   1.6285   O.3      10 RES10   0.0000
   159 O25      0.2596   1.9588  14.5001   O.3      11 RES11   0.0000
@<TRIPOS>BOND
     1     1     2    1
     2     2    32   ar
     3     3     4    1
     4     5     1    1
     5     6     7    1
     6     8     1    1
     7     9    10    1
     8    11     1    1
     9    12    13    1
    10    14     1    1
    11    15    16    1
    12    17     1    1
    13    18    19    1
    14    20    48    2
    15    21    48    1
    16    22    59    2
    17    23    59    1
    18    24    86    2
    19    25    86    1
    20    26    97    2
    21    27    97    1
    22    28   124    2
    23    29   124    1
    24    30   135    2
    25    31   135    1
    26    32    33    1
    27    34     3    1
    28    35    34   ar
    29    36    35    1
    30    37    35   ar
    31    38    37    1
    32    39     2   ar
    33    40     5   ar
    34    41    40   ar
    35    42    41    1
    36    43    41   ar
    37    44    43    1
    38    45     6    1
    39    46     5   ar
    40    47    46    1
    41    48     3   am
    42    49    21    1
    43    50    49    1
    44    51    49    1
    45    52    51    1
    46    53    51    1
    47    54    51    1
    48    55    49    1
    49    56    55    1
    50    57    55    1
    51    58    55    1
    52    59     6   am
    53    60    23    1
    54    61    60    1
    55    62    60    1
    56    63    62    1
    57    64    62    1
    58    65    62    1
    59    66    60    1
    60    67    66    1
    61    68    66    1
    62    69    66    1
    63    70     8   ar
    64    71    70    1
    65    72     9    1
    66    73    72   ar
    67    74    73    1
    68    75    73   ar
    69    76    75    1
    70    77     8   ar
    71    78    11   ar
    72    79    78   ar
    73    80    79    1
    74    81    79   ar
    75    82    81    1
    76    83    12    1
    77    84    11   ar
    78    85    84    1
    79    86     9   am
    80    87    25    1
    81    88    87    1
    82    89    87    1
    83    90    89    1
    84    91    89    1
    85    92    89    1
    86    93    87    1
    87    94    93    1
    88    95    93    1
    89    96    93    1
    90    97    12   am
    91    98    27    1
    92    99    98    1
    93   100    98    1
    94   101   100    1
    95   102   100    1
    96   103   100    1
    97   104    98    1
    98   105   104    1
    99   106   104    1
   100   107   104    1
   101   108    14   ar
   102   109   108    1
   103   110    15    1
   104   111   110   ar
   105   112   111    1
   106   113   111   ar
   107   114   113    1
   108   115    14   ar
   109   116    17   ar
   110   117   116   ar
   111   118   117    1
   112   119   117   ar
   113   120   119    1
   114   121    18    1
   115   122    17   ar
   116   123   122    1
   117   124    15   am
   118   125    29    1
   119   126   125    1
   120   127   125    1
   121   128   127    1
   122   129   127    1
   123   130   127    1
   124   131   125    1
   125   132   131    1
   126   133   131    1
   127   134   131    1
   128   135    18   am
   129   136    31    1
   130   137   136    1
   131   138   136    1
   132   139   138    1
   133   140   138    1
   134   141   138    1
   135   142   136    1
   136   143   142    1
   137   144   142    1
   138   145   142    1
   139    32    34   ar
   140    37    39   ar
   141    39    40    1
   142    43    45   ar
   143    45    46   ar
   144    70    72   ar
   145    75    77   ar
   146    77    78    1
   147    81    83   ar
   148    83    84   ar
   149   108   110   ar
   150   113   115   ar
   151   115   116    1
   152   119   121   ar
   153   121   122   ar
   154   146   147    1
   155   148   146    1
   156   149   146    2
   157   150   146    2
@<TRIPOS>SUBSTRUCTURE
     1 RES1        1 GROUP             0 ****  ****    0  
     2 RES2      146 GROUP             0 ****  ****    0  
     3 RES3      151 GROUP             0 ****  ****    0  
     4 RES4      152 GROUP             0 ****  ****    0  
     5 RES5      153 GROUP             0 ****  ****    0  
     6 RES6      154 GROUP             0 ****  ****    0  
     7 RES7      155 GROUP             0 ****  ****    0  
     8 RES8      156 GROUP             0 ****  ****    0  
     9 RES9      157 GROUP             0 ****  ****    0  
    10 RES10     158 GROUP             0 ****  ****    0  
    11 RES11     159 GROUP             0 ****  ****    0  
@<TRIPOS>CRYSIN
   13.8530   16.3500   17.7500  109.4500   95.9300  106.3800     2     1
