@<TRIPOS>MOLECULE
ITINOP02
   128   136     6     0     0
SMALL
USER_CHARGES
****
Generated from the CSD

@<TRIPOS>ATOM
     1 Fe1      7.2199  -4.5145  12.0487   Fe        1 RES1   2.0000
     2 O1       9.8448  -1.6632  15.9884   O.3       1 RES1   0.0000
     3 H1      10.3111  -1.8261  16.6898   H         1 RES1   0.0000
     4 O2       3.3321  -8.7114   8.1904   O.3       1 RES1   0.0000
     5 H2       3.5736  -8.2219   7.5523   H         1 RES1   0.0000
     6 O3       8.8552  -3.6938   6.9704   O.3       1 RES1   0.0000
     7 H3       8.5049  -3.2481   6.2877   H         1 RES1   0.0000
     8 O4       2.8153  -2.8889  14.6411   O.3       1 RES1   0.0000
     9 H4       2.1371  -2.3491  14.4122   H         1 RES1   0.0000
    10 N1       8.4620  -2.1550  13.6862   N.pl3     1 RES1   0.0000
    11 H5       9.0372  -2.6047  14.1766   H         1 RES1   0.0000
    12 N2       7.6656  -2.7120  12.7497   N.2       1 RES1   0.0000
    13 N3       5.9859  -3.4299  11.0401   N.ar      1 RES1   0.0000
    14 N4       6.3153  -5.8950  10.9340   N.2       1 RES1   0.0000
    15 N5       6.3852  -7.2198  10.7108   N.pl3     1 RES1   0.0000
    16 H6       6.9546  -7.7560  11.1121   H         1 RES1   0.0000
    17 N6       9.0773  -4.2875   9.5611   N.pl3     1 RES1   0.0000
    18 H7       8.5607  -3.8002   9.0413   H         1 RES1   0.0000
    19 N7       8.7805  -4.6069  10.8379   N.2       1 RES1   0.0000
    20 N8       8.4269  -5.5942  13.0986   N.ar      1 RES1   0.0000
    21 N9       6.1359  -4.8104  13.6801   N.2       1 RES1   0.0000
    22 N10      5.0407  -4.2554  14.2289   N.pl3     1 RES1   0.0000
    23 H8       4.4644  -3.7579  13.7872   H         1 RES1   0.0000
    24 C1       9.7754  -0.3217  15.7369   C.ar      1 RES1   0.0000
    25 C2      10.4489   0.6030  16.5225   C.ar      1 RES1   0.0000
    26 H9      10.9832   0.3044  17.2492   H         1 RES1   0.0000
    27 C3      10.3484   1.9561  16.2564   C.ar      1 RES1   0.0000
    28 H10     10.8151   2.5835  16.7956   H         1 RES1   0.0000
    29 C4       9.5635   2.3972  15.1989   C.ar      1 RES1   0.0000
    30 H11      9.4782   3.3268  15.0229   H         1 RES1   0.0000
    31 C5       8.9110   1.4815  14.4079   C.ar      1 RES1   0.0000
    32 H12      8.3863   1.7908  13.6798   H         1 RES1   0.0000
    33 C6       9.0000   0.0969  14.6496   C.ar      1 RES1   0.0000
    34 C7       8.2640  -0.8065  13.7780   C.2       1 RES1   0.0000
    35 C8       7.2634  -0.4960  12.8614   C.2       1 RES1   0.0000
    36 H13      6.8891   0.3595  12.6860   H         1 RES1   0.0000
    37 C9       6.9255  -1.7037  12.2557   C.2       1 RES1   0.0000
    38 C10      5.9529  -2.0957  11.2475   C.ar      1 RES1   0.0000
    39 C11      5.0667  -1.2846  10.5531   C.ar      1 RES1   0.0000
    40 H14      5.0561  -0.3450  10.6938   H         1 RES1   0.0000
    41 C12      4.1969  -1.8751   9.6491   C.ar      1 RES1   0.0000
    42 H15      3.5838  -1.3368   9.1615   H         1 RES1   0.0000
    43 C13      4.2166  -3.2520   9.4531   C.ar      1 RES1   0.0000
    44 H16      3.6163  -3.6654   8.8442   H         1 RES1   0.0000
    45 C14      5.1334  -4.0084  10.1674   C.ar      1 RES1   0.0000
    46 C15      5.3362  -5.4515  10.1198   C.2       1 RES1   0.0000
    47 C16      4.7709  -6.5009   9.4007   C.2       1 RES1   0.0000
    48 H17      4.0562  -6.4503   8.7769   H         1 RES1   0.0000
    49 C17      5.4669  -7.6348   9.7852   C.2       1 RES1   0.0000
    50 C18      5.3920  -9.0368   9.3591   C.ar      1 RES1   0.0000
    51 C19      6.3964  -9.9353   9.7238   C.ar      1 RES1   0.0000
    52 H18      7.1072  -9.6301  10.2755   H         1 RES1   0.0000
    53 C20      6.3932 -11.2467   9.3130   C.ar      1 RES1   0.0000
    54 H19      7.0893 -11.8329   9.5847   H         1 RES1   0.0000
    55 C21      5.3803 -11.7080   8.5092   C.ar      1 RES1   0.0000
    56 H20      5.3795 -12.6125   8.2191   H         1 RES1   0.0000
    57 C22      4.3648 -10.8619   8.1232   C.ar      1 RES1   0.0000
    58 H21      3.6670 -11.1860   7.5667   H         1 RES1   0.0000
    59 C23      4.3561  -9.5325   8.5449   C.ar      1 RES1   0.0000
    60 C24     10.1376  -4.1221   6.7605   C.ar      1 RES1   0.0000
    61 C25     10.7233  -4.0529   5.4942   C.ar      1 RES1   0.0000
    62 H22     10.2265  -3.7148   4.7587   H         1 RES1   0.0000
    63 C26     12.0221  -4.4752   5.3134   C.ar      1 RES1   0.0000
    64 H23     12.4159  -4.4333   4.4493   H         1 RES1   0.0000
    65 C27     12.7577  -4.9587   6.3804   C.ar      1 RES1   0.0000
    66 H24     13.6608  -5.2233   6.2573   H         1 RES1   0.0000
    67 C28     12.1696  -5.0554   7.6261   C.ar      1 RES1   0.0000
    68 H25     12.6721  -5.4045   8.3521   H         1 RES1   0.0000
    69 C29     10.8476  -4.6485   7.8387   C.ar      1 RES1   0.0000
    70 C30     10.2732  -4.8115   9.1764   C.2       1 RES1   0.0000
    71 C31     10.7611  -5.5290  10.2575   C.2       1 RES1   0.0000
    72 H26     11.5731  -6.0207  10.3043   H         1 RES1   0.0000
    73 C32      9.8091  -5.3756  11.2583   C.2       1 RES1   0.0000
    74 C33      9.6366  -5.9210  12.5976   C.ar      1 RES1   0.0000
    75 C34     10.5278  -6.7045  13.3220   C.ar      1 RES1   0.0000
    76 H27     11.3897  -6.9082  12.9794   H         1 RES1   0.0000
    77 C35     10.1209  -7.1798  14.5616   C.ar      1 RES1   0.0000
    78 H28     10.7013  -7.7413  15.0630   H         1 RES1   0.0000
    79 C36      8.8745  -6.8439  15.0766   C.ar      1 RES1   0.0000
    80 H29      8.5943  -7.1713  15.9237   H         1 RES1   0.0000
    81 C37      8.0531  -6.0232  14.3279   C.ar      1 RES1   0.0000
    82 C38      6.7569  -5.4636  14.6839   C.2       1 RES1   0.0000
    83 C39      6.0335  -5.3344  15.8757   C.2       1 RES1   0.0000
    84 H30      6.2514  -5.7016  16.7251   H         1 RES1   0.0000
    85 C40      4.9311  -4.5565  15.5526   C.2       1 RES1   0.0000
    86 C41      3.8411  -4.0830  16.4132   C.ar      1 RES1   0.0000
    87 C42      3.8382  -4.4633  17.7573   C.ar      1 RES1   0.0000
    88 H31      4.5327  -5.0234  18.0842   H         1 RES1   0.0000
    89 C43      2.8411  -4.0396  18.6242   C.ar      1 RES1   0.0000
    90 H32      2.8550  -4.3113  19.5347   H         1 RES1   0.0000
    91 C44      1.8284  -3.2227  18.1589   C.ar      1 RES1   0.0000
    92 H33      1.1480  -2.9278  18.7526   H         1 RES1   0.0000
    93 C45      1.8037  -2.8339  16.8236   C.ar      1 RES1   0.0000
    94 H34      1.1024  -2.2756  16.5055   H         1 RES1   0.0000
    95 C46      2.8021  -3.2593  15.9514   C.ar      1 RES1   0.0000
    96 Cl1      7.9089  -1.4038   4.2817   Cl        2 RES2   0.0000
    97 O5       6.6154  -1.0129   3.8210   O.3       2 RES2  -1.0000
    98 O6       8.9217  -0.8803   3.3952   O.2       2 RES2   0.0000
    99 O7       8.1139  -0.8971   5.6133   O.2       2 RES2   0.0000
   100 O8       8.0056  -2.8356   4.3253   O.2       2 RES2   0.0000
   101 Cl2      0.5431   3.9381   3.7526   Cl        3 RES3   0.0000
   102 O9       0.9836   2.7606   4.4392   O.3       3 RES3  -1.0000
   103 O10      1.2800   4.0132   2.4967   O.2       3 RES3   0.0000
   104 O11     -0.8546   3.8596   3.4647   O.2       3 RES3   0.0000
   105 O12      0.8378   5.1088   4.5123   O.2       3 RES3   0.0000
   106 O13      7.1662  10.4255   2.0777   O.3       4 RES4   0.0000
   107 H35      6.5715  10.8997   2.5484   H         4 RES4   0.0000
   108 H36      6.7548   9.6836   1.9073   H         4 RES4   0.0000
   109 O14      0.7783  -1.1144  14.0436   O.2       5 RES5   0.0000
   110 C47      1.0263  -0.1300  13.3642   C.2       5 RES5   0.0000
   111 C48      2.3973   0.1221  12.8415   C.3       5 RES5   0.0000
   112 H37      2.3786   0.1175  11.8606   H         5 RES5   0.0000
   113 H38      3.0029  -0.5795  13.1589   H         5 RES5   0.0000
   114 H39      2.7128   0.9939  13.1573   H         5 RES5   0.0000
   115 C49     -0.0250   0.8482  12.9858   C.3       5 RES5   0.0000
   116 H40      0.1355   1.6963  13.4506   H         5 RES5   0.0000
   117 H41     -0.9042   0.4970  13.2390   H         5 RES5   0.0000
   118 H42      0.0009   0.9964  12.0161   H         5 RES5   0.0000
   119 O15      8.2670   4.2865   9.3793   O.2       6 RES6   0.0000
   120 C50      9.0488   3.7378  10.1376   C.2       6 RES6   0.0000
   121 C51      9.8918   4.4960  11.0897   C.3       6 RES6   0.0000
   122 H43      9.7755   5.4563  10.9358   H         6 RES6   0.0000
   123 H44     10.8324   4.2558  10.9566   H         6 RES6   0.0000
   124 H45      9.6258   4.2778  12.0065   H         6 RES6   0.0000
   125 C52      9.1858   2.2608  10.1312   C.3       6 RES6   0.0000
   126 H46      8.5791   1.8793   9.4628   H         6 RES6   0.0000
   127 H47      8.9602   1.9073  11.0175   H         6 RES6   0.0000
   128 H48     10.1102   2.0187   9.9084   H         6 RES6   0.0000
@<TRIPOS>BOND
     1     1    12    1
     2     2     3    1
     3     4     5    1
     4     6     7    1
     5     8     9    1
     6    10    11    1
     7    12    10    1
     8    13     1    1
     9    14     1    1
    10    15    14    1
    11    16    15    1
    12    17    18    1
    13    19     1    1
    14    20     1    1
    15    21     1    1
    16    22    21    1
    17    23    22    1
    18    24     2    1
    19    25    24   ar
    20    26    25    1
    21    27    25   ar
    22    28    27    1
    23    29    27   ar
    24    30    29    1
    25    31    29   ar
    26    32    31    1
    27    33    24   ar
    28    34    10    1
    29    35    34    2
    30    36    35    1
    31    37    12    2
    32    38    13   ar
    33    39    38   ar
    34    40    39    1
    35    41    39   ar
    36    42    41    1
    37    43    41   ar
    38    44    43    1
    39    45    13   ar
    40    46    14    2
    41    47    46    1
    42    48    47    1
    43    49    15    1
    44    50    49    1
    45    51    50   ar
    46    52    51    1
    47    53    51   ar
    48    54    53    1
    49    55    53   ar
    50    56    55    1
    51    57    55   ar
    52    58    57    1
    53    59     4    1
    54    60     6    1
    55    61    60   ar
    56    62    61    1
    57    63    61   ar
    58    64    63    1
    59    65    63   ar
    60    66    65    1
    61    67    65   ar
    62    68    67    1
    63    69    60   ar
    64    70    17    1
    65    71    70    2
    66    72    71    1
    67    73    19    2
    68    74    20   ar
    69    75    74   ar
    70    76    75    1
    71    77    75   ar
    72    78    77    1
    73    79    77   ar
    74    80    79    1
    75    81    20   ar
    76    82    21    2
    77    83    82    1
    78    84    83    1
    79    85    22    1
    80    86    85    1
    81    87    86   ar
    82    88    87    1
    83    89    87   ar
    84    90    89    1
    85    91    89   ar
    86    92    91    1
    87    93    91   ar
    88    94    93    1
    89    95     8    1
    90    17    19    1
    91    31    33   ar
    92    33    34    1
    93    35    37    1
    94    37    38    1
    95    43    45   ar
    96    45    46    1
    97    47    49    2
    98    50    59   ar
    99    57    59   ar
   100    67    69   ar
   101    69    70    1
   102    71    73    1
   103    73    74    1
   104    79    81   ar
   105    81    82    1
   106    83    85    2
   107    86    95   ar
   108    93    95   ar
   109    96    97    1
   110    98    96    2
   111    99    96    2
   112   100    96    2
   113   101   102    1
   114   103   101    2
   115   104   101    2
   116   105   101    2
   117   106   107    1
   118   108   106    1
   119   109   110    2
   120   110   111    1
   121   111   112    1
   122   113   111    1
   123   114   111    1
   124   115   110    1
   125   116   115    1
   126   117   115    1
   127   118   115    1
   128   119   120    2
   129   120   121    1
   130   121   122    1
   131   123   121    1
   132   124   121    1
   133   125   120    1
   134   126   125    1
   135   127   125    1
   136   128   125    1
@<TRIPOS>SUBSTRUCTURE
     1 RES1        1 GROUP             0 ****  ****    0  
     2 RES2       96 GROUP             0 ****  ****    0  
     3 RES3      101 GROUP             0 ****  ****    0  
     4 RES4      106 GROUP             0 ****  ****    0  
     5 RES5      109 GROUP             0 ****  ****    0  
     6 RES6      119 GROUP             0 ****  ****    0  
@<TRIPOS>CRYSIN
   12.3260   13.5130   17.2690  106.6300   98.5000  106.3600     2     1
