@<TRIPOS>MOLECULE
ITINOP03
   128   136     6     0     0
SMALL
USER_CHARGES
****
Generated from the CSD

@<TRIPOS>ATOM
     1 Fe1      7.2355  -4.5327  12.0721   Fe        1 RES1   2.0000
     2 O1       9.8647  -1.6854  16.0101   O.3       1 RES1   0.0000
     3 H1      10.3477  -1.7719  16.7248   H         1 RES1   0.0000
     4 O2       3.3586  -8.7096   8.1764   O.3       1 RES1   0.0000
     5 H2       3.6078  -8.2361   7.5280   H         1 RES1   0.0000
     6 O3       8.8784  -3.6955   6.9978   O.3       1 RES1   0.0000
     7 H3       8.5789  -3.2373   6.3089   H         1 RES1   0.0000
     8 O4       2.8317  -2.9120  14.6750   O.3       1 RES1   0.0000
     9 H4       2.1164  -2.4142  14.4553   H         1 RES1   0.0000
    10 N1       8.4901  -2.1768  13.7038   N.pl3     1 RES1   0.0000
    11 H5       9.0665  -2.6273  14.1919   H         1 RES1   0.0000
    12 N2       7.6896  -2.7293  12.7705   N.2       1 RES1   0.0000
    13 N3       6.0003  -3.4439  11.0623   N.ar      1 RES1   0.0000
    14 N4       6.3250  -5.9130  10.9608   N.2       1 RES1   0.0000
    15 N5       6.3925  -7.2355  10.7371   N.pl3     1 RES1   0.0000
    16 H6       6.9589  -7.7739  11.1402   H         1 RES1   0.0000
    17 N6       9.0870  -4.3128   9.5840   N.pl3     1 RES1   0.0000
    18 H7       8.5690  -3.8268   9.0635   H         1 RES1   0.0000
    19 N7       8.7940  -4.6305  10.8571   N.2       1 RES1   0.0000
    20 N8       8.4439  -5.6161  13.1193   N.ar      1 RES1   0.0000
    21 N9       6.1537  -4.8260  13.7073   N.2       1 RES1   0.0000
    22 N10      5.0548  -4.2771  14.2555   N.pl3     1 RES1   0.0000
    23 H8       4.4775  -3.7817  13.8129   H         1 RES1   0.0000
    24 C1       9.7982  -0.3445  15.7574   C.ar      1 RES1   0.0000
    25 C2      10.4692   0.5810  16.5475   C.ar      1 RES1   0.0000
    26 H9      10.9996   0.2805  17.2773   H         1 RES1   0.0000
    27 C3      10.3732   1.9348  16.2807   C.ar      1 RES1   0.0000
    28 H10     10.8367   2.5617  16.8228   H         1 RES1   0.0000
    29 C4       9.5974   2.3720  15.2194   C.ar      1 RES1   0.0000
    30 H11      9.5180   3.3021  15.0383   H         1 RES1   0.0000
    31 C5       8.9440   1.4610  14.4309   C.ar      1 RES1   0.0000
    32 H12      8.4172   1.7721  13.7036   H         1 RES1   0.0000
    33 C6       9.0306   0.0757  14.6699   C.ar      1 RES1   0.0000
    34 C7       8.2923  -0.8268  13.7958   C.2       1 RES1   0.0000
    35 C8       7.2923  -0.5140  12.8794   C.2       1 RES1   0.0000
    36 H13      6.9222   0.3421  12.7030   H         1 RES1   0.0000
    37 C9       6.9489  -1.7197  12.2766   C.2       1 RES1   0.0000
    38 C10      5.9728  -2.1081  11.2732   C.ar      1 RES1   0.0000
    39 C11      5.0876  -1.2963  10.5787   C.ar      1 RES1   0.0000
    40 H14      5.0787  -0.3564  10.7194   H         1 RES1   0.0000
    41 C12      4.2148  -1.8865   9.6735   C.ar      1 RES1   0.0000
    42 H15      3.6016  -1.3474   9.1872   H         1 RES1   0.0000
    43 C13      4.2331  -3.2615   9.4774   C.ar      1 RES1   0.0000
    44 H16      3.6322  -3.6727   8.8675   H         1 RES1   0.0000
    45 C14      5.1474  -4.0202  10.1928   C.ar      1 RES1   0.0000
    46 C15      5.3472  -5.4644  10.1409   C.2       1 RES1   0.0000
    47 C16      4.7838  -6.5109   9.4178   C.2       1 RES1   0.0000
    48 H17      4.0749  -6.4582   8.7888   H         1 RES1   0.0000
    49 C17      5.4757  -7.6469   9.8066   C.2       1 RES1   0.0000
    50 C18      5.3946  -9.0496   9.3802   C.ar      1 RES1   0.0000
    51 C19      6.3757  -9.9566   9.7660   C.ar      1 RES1   0.0000
    52 H18      7.0761  -9.6573  10.3339   H         1 RES1   0.0000
    53 C20      6.3687 -11.2663   9.3576   C.ar      1 RES1   0.0000
    54 H19      7.0560 -11.8586   9.6433   H         1 RES1   0.0000
    55 C21      5.3658 -11.7196   8.5351   C.ar      1 RES1   0.0000
    56 H20      5.3563 -12.6260   8.2508   H         1 RES1   0.0000
    57 C22      4.3789 -10.8654   8.1271   C.ar      1 RES1   0.0000
    58 H21      3.6929 -11.1810   7.5505   H         1 RES1   0.0000
    59 C23      4.3701  -9.5343   8.5481   C.ar      1 RES1   0.0000
    60 C24     10.1591  -4.1288   6.7858   C.ar      1 RES1   0.0000
    61 C25     10.7475  -4.0506   5.5227   C.ar      1 RES1   0.0000
    62 H22     10.2543  -3.7008   4.7895   H         1 RES1   0.0000
    63 C26     12.0422  -4.4802   5.3432   C.ar      1 RES1   0.0000
    64 H23     12.4376  -4.4347   4.4811   H         1 RES1   0.0000
    65 C27     12.7700  -4.9761   6.3984   C.ar      1 RES1   0.0000
    66 H24     13.6728  -5.2423   6.2720   H         1 RES1   0.0000
    67 C28     12.1802  -5.0825   7.6469   C.ar      1 RES1   0.0000
    68 H25     12.6792  -5.4427   8.3696   H         1 RES1   0.0000
    69 C29     10.8606  -4.6701   7.8597   C.ar      1 RES1   0.0000
    70 C30     10.2866  -4.8367   9.1973   C.2       1 RES1   0.0000
    71 C31     10.7734  -5.5528  10.2756   C.2       1 RES1   0.0000
    72 H26     11.5848  -6.0448  10.3211   H         1 RES1   0.0000
    73 C32      9.8220  -5.3995  11.2806   C.2       1 RES1   0.0000
    74 C33      9.6521  -5.9452  12.6179   C.ar      1 RES1   0.0000
    75 C34     10.5402  -6.7282  13.3442   C.ar      1 RES1   0.0000
    76 H27     11.4009  -6.9350  13.0001   H         1 RES1   0.0000
    77 C35     10.1375  -7.1995  14.5838   C.ar      1 RES1   0.0000
    78 H28     10.7188  -7.7589  15.0849   H         1 RES1   0.0000
    79 C36      8.8898  -6.8615  15.1019   C.ar      1 RES1   0.0000
    80 H29      8.6097  -7.1873  15.9490   H         1 RES1   0.0000
    81 C37      8.0719  -6.0407  14.3514   C.ar      1 RES1   0.0000
    82 C38      6.7727  -5.4818  14.7097   C.2       1 RES1   0.0000
    83 C39      6.0539  -5.3567  15.8983   C.2       1 RES1   0.0000
    84 H30      6.2743  -5.7241  16.7473   H         1 RES1   0.0000
    85 C40      4.9458  -4.5802  15.5764   C.2       1 RES1   0.0000
    86 C41      3.8580  -4.1122  16.4415   C.ar      1 RES1   0.0000
    87 C42      3.8549  -4.4987  17.7858   C.ar      1 RES1   0.0000
    88 H31      4.5487  -5.0603  18.1109   H         1 RES1   0.0000
    89 C43      2.8577  -4.0788  18.6523   C.ar      1 RES1   0.0000
    90 H32      2.8713  -4.3500  19.5629   H         1 RES1   0.0000
    91 C44      1.8419  -3.2612  18.1888   C.ar      1 RES1   0.0000
    92 H33      1.1612  -2.9694  18.7839   H         1 RES1   0.0000
    93 C45      1.8140  -2.8685  16.8575   C.ar      1 RES1   0.0000
    94 H34      1.1100  -2.3145  16.5417   H         1 RES1   0.0000
    95 C46      2.8165  -3.2870  15.9836   C.ar      1 RES1   0.0000
    96 Cl1      7.9363  -1.4121   4.2884   Cl        2 RES2   0.0000
    97 O5       6.6444  -1.0169   3.8382   O.3       2 RES2  -1.0000
    98 O6       8.9448  -0.8838   3.4081   O.2       2 RES2   0.0000
    99 O7       8.1464  -0.9296   5.6246   O.2       2 RES2   0.0000
   100 O8       8.0280  -2.8411   4.3175   O.2       2 RES2   0.0000
   101 Cl2      0.5805   3.9452   3.7381   Cl        3 RES3   0.0000
   102 O9       1.0316   2.7705   4.4081   O.3       3 RES3  -1.0000
   103 O10      1.3091   4.0103   2.4688   O.2       3 RES3   0.0000
   104 O11     -0.8090   3.8749   3.4442   O.2       3 RES3   0.0000
   105 O12      0.8822   5.1110   4.4821   O.2       3 RES3   0.0000
   106 O13      7.2215  10.4463   2.0840   O.3       4 RES4   0.0000
   107 H35      6.6907  10.9183   2.6020   H         4 RES4   0.0000
   108 H36      6.8034   9.6944   1.9434   H         4 RES4   0.0000
   109 O14      0.7790  -1.1406  14.0830   O.2       5 RES5   0.0000
   110 C47      1.0281  -0.1514  13.4176   C.2       5 RES5   0.0000
   111 C48      2.4077   0.1112  12.9102   C.3       5 RES5   0.0000
   112 H37      2.4012   0.1080  11.9305   H         5 RES5   0.0000
   113 H38      3.0131  -0.5876  13.2346   H         5 RES5   0.0000
   114 H39      2.7137   0.9844  13.2314   H         5 RES5   0.0000
   115 C49     -0.0237   0.8186  13.0194   C.3       5 RES5   0.0000
   116 H40      0.1311   1.6725  13.4740   H         5 RES5   0.0000
   117 H41     -0.9030   0.4679  13.2732   H         5 RES5   0.0000
   118 H42      0.0061   0.9534  12.0493   H         5 RES5   0.0000
   119 O15      8.2907   4.2629   9.4136   O.2       6 RES6   0.0000
   120 C50      9.0863   3.7256  10.1589   C.2       6 RES6   0.0000
   121 C51      9.9345   4.4867  11.0760   C.3       6 RES6   0.0000
   122 H43      9.8000   5.4454  10.9266   H         6 RES6   0.0000
   123 H44     10.8741   4.2598  10.9170   H         6 RES6   0.0000
   124 H45      9.6974   4.2647  12.0011   H         6 RES6   0.0000
   125 C52      9.2274   2.2582  10.1637   C.3       6 RES6   0.0000
   126 H46      8.6221   1.8701   9.4987   H         6 RES6   0.0000
   127 H47      9.0017   1.9122  11.0519   H         6 RES6   0.0000
   128 H48     10.1512   2.0187   9.9436   H         6 RES6   0.0000
@<TRIPOS>BOND
     1     1    12    1
     2     2     3    1
     3     4     5    1
     4     6     7    1
     5     8     9    1
     6    10    11    1
     7    12    10    1
     8    13     1    1
     9    14     1    1
    10    15    14    1
    11    16    15    1
    12    17    18    1
    13    19     1    1
    14    20     1    1
    15    21     1    1
    16    22    21    1
    17    23    22    1
    18    24     2    1
    19    25    24   ar
    20    26    25    1
    21    27    25   ar
    22    28    27    1
    23    29    27   ar
    24    30    29    1
    25    31    29   ar
    26    32    31    1
    27    33    24   ar
    28    34    10    1
    29    35    34    2
    30    36    35    1
    31    37    12    2
    32    38    13   ar
    33    39    38   ar
    34    40    39    1
    35    41    39   ar
    36    42    41    1
    37    43    41   ar
    38    44    43    1
    39    45    13   ar
    40    46    14    2
    41    47    46    1
    42    48    47    1
    43    49    15    1
    44    50    49    1
    45    51    50   ar
    46    52    51    1
    47    53    51   ar
    48    54    53    1
    49    55    53   ar
    50    56    55    1
    51    57    55   ar
    52    58    57    1
    53    59     4    1
    54    60     6    1
    55    61    60   ar
    56    62    61    1
    57    63    61   ar
    58    64    63    1
    59    65    63   ar
    60    66    65    1
    61    67    65   ar
    62    68    67    1
    63    69    60   ar
    64    70    17    1
    65    71    70    2
    66    72    71    1
    67    73    19    2
    68    74    20   ar
    69    75    74   ar
    70    76    75    1
    71    77    75   ar
    72    78    77    1
    73    79    77   ar
    74    80    79    1
    75    81    20   ar
    76    82    21    2
    77    83    82    1
    78    84    83    1
    79    85    22    1
    80    86    85    1
    81    87    86   ar
    82    88    87    1
    83    89    87   ar
    84    90    89    1
    85    91    89   ar
    86    92    91    1
    87    93    91   ar
    88    94    93    1
    89    95     8    1
    90    17    19    1
    91    31    33   ar
    92    33    34    1
    93    35    37    1
    94    37    38    1
    95    43    45   ar
    96    45    46    1
    97    47    49    2
    98    50    59   ar
    99    57    59   ar
   100    67    69   ar
   101    69    70    1
   102    71    73    1
   103    73    74    1
   104    79    81   ar
   105    81    82    1
   106    83    85    2
   107    86    95   ar
   108    93    95   ar
   109    96    97    1
   110    98    96    2
   111    99    96    2
   112   100    96    2
   113   101   102    1
   114   103   101    2
   115   104   101    2
   116   105   101    2
   117   106   107    1
   118   108   106    1
   119   109   110    2
   120   110   111    1
   121   111   112    1
   122   113   111    1
   123   114   111    1
   124   115   110    1
   125   116   115    1
   126   117   115    1
   127   118   115    1
   128   119   120    2
   129   120   121    1
   130   121   122    1
   131   123   121    1
   132   124   121    1
   133   125   120    1
   134   126   125    1
   135   127   125    1
   136   128   125    1
@<TRIPOS>SUBSTRUCTURE
     1 RES1        1 GROUP             0 ****  ****    0  
     2 RES2       96 GROUP             0 ****  ****    0  
     3 RES3      101 GROUP             0 ****  ****    0  
     4 RES4      106 GROUP             0 ****  ****    0  
     5 RES5      109 GROUP             0 ****  ****    0  
     6 RES6      119 GROUP             0 ****  ****    0  
@<TRIPOS>CRYSIN
   12.3640   13.5230   17.3120  106.6900   98.5300  106.2600     2     1
