@<TRIPOS>MOLECULE
ITITUB01
   171   176     1     0     0
SMALL
NO_CHARGES
****
Generated from the CSD

@<TRIPOS>ATOM
     1 Fe1      1.8588   3.0076  30.2881   Fe        1 RES1   0.0000
     2 O1       1.8153   1.6196  31.6351   O.3       1 RES1   0.0000
     3 O2       3.6505   3.4784  30.8902   O.3       1 RES1   0.0000
     4 O3       4.5389   7.1742  28.0492   O.2       1 RES1   0.0000
     5 O4       6.1549   6.4463  29.4078   O.3       1 RES1   0.0000
     6 O5      -2.5694  -0.0815  31.0270   O.2       1 RES1   0.0000
     7 O6      -1.1986  -1.0397  32.4946   O.3       1 RES1   0.0000
     8 O7      -2.9291   4.3071  26.1205   O.3       1 RES1   0.0000
     9 O8      -1.1529   5.9875  25.4043   O.3       1 RES1   0.0000
    10 N1       0.1114   2.5924  29.6519   N.2       1 RES1   0.0000
    11 N2       1.8767   4.3375  28.9357   N.2       1 RES1   0.0000
    12 N3       1.1138   4.3028  31.6475   N.ar      1 RES1   0.0000
    13 N4       2.6955   1.6459  29.0626   N.ar      1 RES1   0.0000
    14 C1       0.8989   0.7623  31.8693   C.2       1 RES1   0.0000
    15 C2      -0.3497   0.7576  31.1925   C.2       1 RES1   0.0000
    16 C3      -0.6696   1.6537  30.1209   C.2       1 RES1   0.0000
    17 H1      -1.5240   1.5577  29.7160   H         1 RES1   0.0000
    18 C4      -0.2917   3.4305  28.5648   C.ar      1 RES1   0.0000
    19 C5      -1.5194   3.3600  27.8764   C.ar      1 RES1   0.0000
    20 H2      -2.1712   2.7147  28.1253   H         1 RES1   0.0000
    21 C6      -1.7713   4.2342  26.8366   C.ar      1 RES1   0.0000
    22 C7      -0.7876   5.1613  26.4328   C.ar      1 RES1   0.0000
    23 C8       0.4280   5.1985  27.0793   C.ar      1 RES1   0.0000
    24 H3       1.1027   5.7979  26.7814   H         1 RES1   0.0000
    25 C9       0.6769   4.3554  28.1767   C.ar      1 RES1   0.0000
    26 C10      2.8314   5.2017  28.7211   C.2       1 RES1   0.0000
    27 H4       2.6729   5.8570  28.0533   H         1 RES1   0.0000
    28 C11      4.0884   5.2599  29.3890   C.2       1 RES1   0.0000
    29 C12      4.4492   4.3565  30.4298   C.2       1 RES1   0.0000
    30 C13      5.8038   4.3467  31.1024   C.3       1 RES1   0.0000
    31 H5       5.8324   3.6302  31.7695   H         1 RES1   0.0000
    32 H6       5.9573   5.2090  31.5398   H         1 RES1   0.0000
    33 H7       6.5016   4.1934  30.4291   H         1 RES1   0.0000
    34 C14      4.9221   6.3671  28.8816   C.2       1 RES1   0.0000
    35 C15      6.9982   7.5161  28.9008   C.3       1 RES1   0.0000
    36 H8       6.5624   8.3945  29.0372   H         1 RES1   0.0000
    37 H9       7.1676   7.3943  27.9333   H         1 RES1   0.0000
    38 C16      8.2823   7.4437  29.6708   C.3       1 RES1   0.0000
    39 H10      8.0952   7.5316  30.6279   H         1 RES1   0.0000
    40 H11      8.8758   8.1701  29.3869   H         1 RES1   0.0000
    41 H12      8.7169   6.5813  29.5000   H         1 RES1   0.0000
    42 C17      1.2800  -0.2126  32.9526   C.3       1 RES1   0.0000
    43 H13      2.2156  -0.0707  33.2060   H         1 RES1   0.0000
    44 H14      1.1663  -1.1289  32.6232   H         1 RES1   0.0000
    45 H15      0.7047  -0.0745  33.7339   H         1 RES1   0.0000
    46 C18     -1.4672  -0.1306  31.5292   C.2       1 RES1   0.0000
    47 C19     -2.2866  -1.8988  32.8978   C.3       1 RES1   0.0000
    48 H16     -2.5631  -2.4800  32.1466   H         1 RES1   0.0000
    49 H17     -3.0649  -1.3575  33.1820   H         1 RES1   0.0000
    50 C20     -1.7812  -2.7310  34.0435   C.3       1 RES1   0.0000
    51 H18     -1.0297  -3.2818  33.7408   H         1 RES1   0.0000
    52 H19     -2.5016  -3.3113  34.3681   H         1 RES1   0.0000
    53 H20     -1.4846  -2.1426  34.7692   H         1 RES1   0.0000
    54 C21     -4.0053   3.4217  26.4417   C.3       1 RES1   0.0000
    55 H21     -4.1894   3.4337  27.4157   H         1 RES1   0.0000
    56 H22     -3.7895   2.4948  26.1678   H         1 RES1   0.0000
    57 C22     -5.1989   3.9446  25.6645   C.3       1 RES1   0.0000
    58 H23     -5.3507   4.8903  25.9141   H         1 RES1   0.0000
    59 H24     -6.0017   3.4320  25.9347   H         1 RES1   0.0000
    60 C23     -5.0532   3.8590  24.1492   C.3       1 RES1   0.0000
    61 H25     -4.1956   4.2745  23.8811   H         1 RES1   0.0000
    62 H26     -5.0259   2.9058  23.8811   H         1 RES1   0.0000
    63 C24     -6.1882   4.5482  23.4176   C.3       1 RES1   0.0000
    64 H27     -6.1498   5.5170  23.6172   H         1 RES1   0.0000
    65 H28     -7.0474   4.2043  23.7714   H         1 RES1   0.0000
    66 C25     -6.1710   4.3587  21.9068   C.3       1 RES1   0.0000
    67 H29     -6.2277   3.3910  21.7042   H         1 RES1   0.0000
    68 H30     -5.3073   4.6890  21.5534   H         1 RES1   0.0000
    69 C26     -7.3013   5.0768  21.1893   C.3       1 RES1   0.0000
    70 H31     -7.1925   6.0514  21.3237   H         1 RES1   0.0000
    71 H32     -8.1589   4.8106  21.6048   H         1 RES1   0.0000
    72 C27     -7.3808   4.8016  19.6946   C.3       1 RES1   0.0000
    73 H33     -6.5201   5.0582  19.2770   H         1 RES1   0.0000
    74 H34     -7.5024   3.8281  19.5581   H         1 RES1   0.0000
    75 C28     -8.5076   5.5400  18.9859   C.3       1 RES1   0.0000
    76 H35     -8.3531   6.5143  19.0747   H         1 RES1   0.0000
    77 H36     -9.3605   5.3295  19.4416   H         1 RES1   0.0000
    78 C29     -8.6465   5.2005  17.5067   C.3       1 RES1   0.0000
    79 H37     -7.7855   5.3877  17.0555   H         1 RES1   0.0000
    80 H38     -8.8258   4.2311  17.4189   H         1 RES1   0.0000
    81 C30     -9.7463   5.9643  16.7891   C.3       1 RES1   0.0000
    82 H39     -9.5502   6.9322  16.8464   H         1 RES1   0.0000
    83 H40    -10.6030   5.8031  17.2578   H         1 RES1   0.0000
    84 C31     -9.9102   5.5828  15.3263   C.3       1 RES1   0.0000
    85 H41     -9.0423   5.7137  14.8683   H         1 RES1   0.0000
    86 H42    -10.1314   4.6196  15.2762   H         1 RES1   0.0000
    87 C32    -10.9769   6.3645  14.5738   C.3       1 RES1   0.0000
    88 H43    -11.8440   6.2461  15.0363   H         1 RES1   0.0000
    89 H44    -10.7481   7.3270  14.6077   H         1 RES1   0.0000
    90 C33    -11.1375   5.9480  13.1175   C.3       1 RES1   0.0000
    91 H45    -11.4048   4.9953  13.0856   H         1 RES1   0.0000
    92 H46    -10.2614   6.0294  12.6639   H         1 RES1   0.0000
    93 C34    -12.1662   6.7708  12.3468   C.3       1 RES1   0.0000
    94 H47    -11.8976   7.7236  12.3725   H         1 RES1   0.0000
    95 H48    -13.0424   6.6942  12.8011   H         1 RES1   0.0000
    96 C35    -12.3266   6.3407  10.8902   C.3       1 RES1   0.0000
    97 H49    -11.4430   6.3792  10.4459   H         1 RES1   0.0000
    98 H50    -12.6344   5.4004  10.8675   H         1 RES1   0.0000
    99 C36    -13.3093   7.1996  10.1058   C.3       1 RES1   0.0000
   100 H51    -14.1836   7.1824  10.5487   H         1 RES1   0.0000
   101 H52    -13.3969   6.8469   9.1945   H         1 RES1   0.0000
   102 H53    -12.9794   8.1223  10.0687   H         1 RES1   0.0000
   103 C37     -0.1902   6.9438  24.9507   C.3       1 RES1   0.0000
   104 H54      0.5590   6.4865  24.4948   H         1 RES1   0.0000
   105 H55      0.1738   7.4539  25.7187   H         1 RES1   0.0000
   106 C38     -0.8970   7.8712  23.9950   C.3       1 RES1   0.0000
   107 H56     -0.2546   8.5610  23.6926   H         1 RES1   0.0000
   108 H57     -1.6245   8.3330  24.4811   H         1 RES1   0.0000
   109 C39     -1.4894   7.1834  22.7700   C.3       1 RES1   0.0000
   110 H58     -0.7623   6.7433  22.2630   H         1 RES1   0.0000
   111 H59     -2.1205   6.4812  23.0652   H         1 RES1   0.0000
   112 C40     -2.2199   8.1559  21.8530   C.3       1 RES1   0.0000
   113 H60     -1.5768   8.8409  21.5396   H         1 RES1   0.0000
   114 H61     -2.9211   8.6190  22.3761   H         1 RES1   0.0000
   115 C41     -2.8673   7.5058  20.6390   C.3       1 RES1   0.0000
   116 H62     -3.5064   6.8160  20.9466   H         1 RES1   0.0000
   117 H63     -2.1665   7.0515  20.1066   H         1 RES1   0.0000
   118 C42     -3.6036   8.4993  19.7422   C.3       1 RES1   0.0000
   119 H64     -4.2968   8.9593  20.2781   H         1 RES1   0.0000
   120 H65     -2.9615   9.1843  19.4313   H         1 RES1   0.0000
   121 C43     -4.2665   7.8618  18.5303   C.3       1 RES1   0.0000
   122 H66     -4.9182   7.1846  18.8382   H         1 RES1   0.0000
   123 H67     -3.5765   7.3949  17.9948   H         1 RES1   0.0000
   124 C44     -4.9853   8.8697  17.6400   C.3       1 RES1   0.0000
   125 H68     -5.6692   9.3404  18.1800   H         1 RES1   0.0000
   126 H69     -4.3303   9.5450  17.3298   H         1 RES1   0.0000
   127 C45     -5.6610   8.2546  16.4264   C.3       1 RES1   0.0000
   128 H70     -6.3213   7.5842  16.7333   H         1 RES1   0.0000
   129 H71     -4.9791   7.7800  15.8865   H         1 RES1   0.0000
   130 C46     -6.3669   9.2732  15.5413   C.3       1 RES1   0.0000
   131 H72     -7.0394   9.7535  16.0853   H         1 RES1   0.0000
   132 H73     -5.7026   9.9387  15.2317   H         1 RES1   0.0000
   133 C47     -7.0605   8.6745  14.3263   C.3       1 RES1   0.0000
   134 H74     -6.3930   8.1825  13.7850   H         1 RES1   0.0000
   135 H75     -7.7394   8.0225  14.6352   H         1 RES1   0.0000
   136 C48     -7.7383   9.7144  13.4439   C.3       1 RES1   0.0000
   137 H76     -7.0548  10.3587  13.1302   H         1 RES1   0.0000
   138 H77     -8.3936  10.2160  13.9907   H         1 RES1   0.0000
   139 C49     -8.4553   9.1351  12.2333   C.3       1 RES1   0.0000
   140 H78     -9.1422   8.4948  12.5439   H         1 RES1   0.0000
   141 H79     -7.8018   8.6345  11.6835   H         1 RES1   0.0000
   142 C50     -9.1252  10.1943  11.3619   C.3       1 RES1   0.0000
   143 H80     -9.7581  10.7112  11.9200   H         1 RES1   0.0000
   144 H81     -8.4329  10.8222  11.0355   H         1 RES1   0.0000
   145 C51     -9.8768   9.6322  10.1665   C.3       1 RES1   0.0000
   146 H82    -10.5713   9.0034  10.4870   H         1 RES1   0.0000
   147 H83     -9.2459   9.1241   9.5957   H         1 RES1   0.0000
   148 C52    -10.5428  10.7288   9.3238   C.3       1 RES1   0.0000
   149 H84    -11.1585  11.2447   9.8871   H         1 RES1   0.0000
   150 H85    -11.0406  10.3183   8.5877   H         1 RES1   0.0000
   151 H86     -9.8551  11.3252   8.9614   H         1 RES1   0.0000
   152 C53      0.1224   3.9604  32.4932   C.ar      1 RES1   0.0000
   153 H87     -0.2995   3.1186  32.3695   H         1 RES1   0.0000
   154 C54     -0.3191   4.7596  33.5299   C.ar      1 RES1   0.0000
   155 H88     -1.0167   4.4659  34.1042   H         1 RES1   0.0000
   156 C55      0.2755   6.0013  33.7209   C.ar      1 RES1   0.0000
   157 H89      0.0093   6.5674  34.4367   H         1 RES1   0.0000
   158 C56      1.2644   6.3840  32.8402   C.ar      1 RES1   0.0000
   159 H90      1.6796   7.2340  32.9283   H         1 RES1   0.0000
   160 C57      1.6475   5.5251  31.8309   C.ar      1 RES1   0.0000
   161 H91      2.3263   5.8125  31.2313   H         1 RES1   0.0000
   162 C58      3.7694   0.9516  29.4791   C.ar      1 RES1   0.0000
   163 H92      4.1181   1.1360  30.3434   H         1 RES1   0.0000
   164 C59      4.3916  -0.0176  28.7122   C.ar      1 RES1   0.0000
   165 H93      5.1505  -0.4807  29.0475   H         1 RES1   0.0000
   166 C60      3.8936  -0.3040  27.4541   C.ar      1 RES1   0.0000
   167 H94      4.2976  -0.9698  26.9117   H         1 RES1   0.0000
   168 C61      2.7913   0.4053  27.0060   C.ar      1 RES1   0.0000
   169 H95      2.4286   0.2393  26.1438   H         1 RES1   0.0000
   170 C62      2.2264   1.3590  27.8360   C.ar      1 RES1   0.0000
   171 H96      1.4677   1.8363  27.5219   H         1 RES1   0.0000
@<TRIPOS>BOND
     1     1     2    1
     2     2    14    1
     3     3     1    1
     4     4    34    2
     5     5    34    1
     6     6    46    2
     7     7    46    1
     8     8    21    1
     9     9    22    1
    10    10     1    1
    11    11     1    1
    12    12     1    1
    13    13     1    1
    14    14    15    2
    15    15    16    1
    16    16    10    2
    17    17    16    1
    18    18    10    1
    19    19    18   ar
    20    20    19    1
    21    21    19   ar
    22    22    21   ar
    23    23    22   ar
    24    24    23    1
    25    25    11    1
    26    26    11    2
    27    27    26    1
    28    28    26    1
    29    29     3    1
    30    30    29    1
    31    31    30    1
    32    32    30    1
    33    33    30    1
    34    34    28    1
    35    35     5    1
    36    36    35    1
    37    37    35    1
    38    38    35    1
    39    39    38    1
    40    40    38    1
    41    41    38    1
    42    42    14    1
    43    43    42    1
    44    44    42    1
    45    45    42    1
    46    46    15    1
    47    47     7    1
    48    48    47    1
    49    49    47    1
    50    50    47    1
    51    51    50    1
    52    52    50    1
    53    53    50    1
    54    54     8    1
    55    55    54    1
    56    56    54    1
    57    57    54    1
    58    58    57    1
    59    59    57    1
    60    60    57    1
    61    61    60    1
    62    62    60    1
    63    63    60    1
    64    64    63    1
    65    65    63    1
    66    66    63    1
    67    67    66    1
    68    68    66    1
    69    69    66    1
    70    70    69    1
    71    71    69    1
    72    72    69    1
    73    73    72    1
    74    74    72    1
    75    75    72    1
    76    76    75    1
    77    77    75    1
    78    78    75    1
    79    79    78    1
    80    80    78    1
    81    81    78    1
    82    82    81    1
    83    83    81    1
    84    84    81    1
    85    85    84    1
    86    86    84    1
    87    87    84    1
    88    88    87    1
    89    89    87    1
    90    90    87    1
    91    91    90    1
    92    92    90    1
    93    93    90    1
    94    94    93    1
    95    95    93    1
    96    96    93    1
    97    97    96    1
    98    98    96    1
    99    99    96    1
   100   100    99    1
   101   101    99    1
   102   102    99    1
   103   103     9    1
   104   104   103    1
   105   105   103    1
   106   106   103    1
   107   107   106    1
   108   108   106    1
   109   109   106    1
   110   110   109    1
   111   111   109    1
   112   112   109    1
   113   113   112    1
   114   114   112    1
   115   115   112    1
   116   116   115    1
   117   117   115    1
   118   118   115    1
   119   119   118    1
   120   120   118    1
   121   121   118    1
   122   122   121    1
   123   123   121    1
   124   124   121    1
   125   125   124    1
   126   126   124    1
   127   127   124    1
   128   128   127    1
   129   129   127    1
   130   130   127    1
   131   131   130    1
   132   132   130    1
   133   133   130    1
   134   134   133    1
   135   135   133    1
   136   136   133    1
   137   137   136    1
   138   138   136    1
   139   139   136    1
   140   140   139    1
   141   141   139    1
   142   142   139    1
   143   143   142    1
   144   144   142    1
   145   145   142    1
   146   146   145    1
   147   147   145    1
   148   148   145    1
   149   149   148    1
   150   150   148    1
   151   151   148    1
   152   152    12   ar
   153   153   152    1
   154   154   152   ar
   155   155   154    1
   156   156   154   ar
   157   157   156    1
   158   158   156   ar
   159   159   158    1
   160   160    12   ar
   161   161   160    1
   162   162    13   ar
   163   163   162    1
   164   164   162   ar
   165   165   164    1
   166   166   164   ar
   167   167   166    1
   168   168   166   ar
   169   169   168    1
   170   170    13   ar
   171   171   170    1
   172    18    25   ar
   173    23    25   ar
   174    28    29    2
   175   158   160   ar
   176   168   170   ar
@<TRIPOS>SUBSTRUCTURE
     1 RES1        1 GROUP             0 ****  ****    0  
@<TRIPOS>CRYSIN
    9.0910    9.9180   34.3520   90.0897   93.5500  101.8404     2     1
