@<TRIPOS>MOLECULE
ITOKEI
    85    90     4     0     0
SMALL
USER_CHARGES
****
Generated from the CSD

@<TRIPOS>ATOM
     1 Fe1      1.2708   3.3346   5.0886   Fe        1 RES1   1.0000
     2 Cl1      2.3341   5.2703   5.9666   Cl        1 RES1   0.0000
     3 O1      -0.9696   0.8632   0.3574   O.3       1 RES1   0.0000
     4 O2       0.8677   1.8750  -0.4188   O.2       1 RES1   0.0000
     5 O3       2.0463  -1.8713   5.0835   O.2       1 RES1   0.0000
     6 O4       3.4032  -1.6824   3.3063   O.3       1 RES1   0.0000
     7 O5       2.4539   0.0429   1.2963   O.3       1 RES1   0.0000
     8 H1       2.7441  -0.7413   1.2209   H         1 RES1   0.0000
     9 O6       0.5459  -1.0335   2.0742   O.3       1 RES1   0.0000
    10 H2       0.4643  -1.2374   1.2628   H         1 RES1   0.0000
    11 N1       2.7228   1.9685   6.0721   N.ar      1 RES1   0.0000
    12 N2       0.4991   4.3730   3.3740   N.ar      1 RES1   0.0000
    13 N3       2.4559   2.5191   3.4198   N.3       1 RES1   0.0000
    14 N4      -0.0842   3.0108   6.7110   N.ar      1 RES1   0.0000
    15 N5      -0.1083   1.5577   4.3140   N.3       1 RES1   0.0000
    16 C1       0.6761   1.4259   1.9626   C.3       1 RES1   0.0000
    17 C2       1.6618   2.6064   2.1602   C.3       1 RES1   0.0000
    18 H3       2.2963   2.6201   1.3884   H         1 RES1   0.0000
    19 C3       2.9424   1.1574   3.8005   C.3       1 RES1   0.0000
    20 H4       3.7046   0.9042   3.2047   H         1 RES1   0.0000
    21 C4       1.8388   0.0873   3.6882   C.3       1 RES1   0.0000
    22 C5       0.6142   0.2961   4.5921   C.3       1 RES1   0.0000
    23 H5      -0.0077  -0.4638   4.4698   H         1 RES1   0.0000
    24 H6       0.9092   0.2965   5.5373   H         1 RES1   0.0000
    25 C6      -0.5339   1.5172   2.8972   C.3       1 RES1   0.0000
    26 H7      -1.0524   2.3339   2.6861   H         1 RES1   0.0000
    27 H8      -1.1220   0.7339   2.7512   H         1 RES1   0.0000
    28 C7       1.4006   0.0608   2.1947   C.3       1 RES1   0.0000
    29 C8       0.2312   1.4364   0.4981   C.2       1 RES1   0.0000
    30 C9      -1.4615   0.7542  -0.9954   C.3       1 RES1   0.0000
    31 H9      -1.3019   1.5970  -1.4698   H         1 RES1   0.0000
    32 H10     -2.4240   0.5666  -0.9791   H         1 RES1   0.0000
    33 H11     -0.9943   0.0264  -1.4558   H         1 RES1   0.0000
    34 C10      2.4162  -1.2679   4.1163   C.2       1 RES1   0.0000
    35 C11      3.9928  -2.9546   3.6747   C.3       1 RES1   0.0000
    36 H12      4.5935  -2.8271   4.4396   H         1 RES1   0.0000
    37 H13      4.5007  -3.3114   2.9163   H         1 RES1   0.0000
    38 H14      3.2838  -3.5859   3.9186   H         1 RES1   0.0000
    39 C12      3.4270   1.1926   5.2312   C.ar      1 RES1   0.0000
    40 C13      4.4542   0.3599   5.6649   C.ar      1 RES1   0.0000
    41 H15      4.9611  -0.1497   5.0442   H         1 RES1   0.0000
    42 C14      4.7202   0.2927   7.0145   C.ar      1 RES1   0.0000
    43 H16      5.3905  -0.2950   7.3419   H         1 RES1   0.0000
    44 C15      4.0074   1.0831   7.8836   C.ar      1 RES1   0.0000
    45 H17      4.1766   1.0495   8.8187   H         1 RES1   0.0000
    46 C16      3.0459   1.9235   7.3766   C.ar      1 RES1   0.0000
    47 H18      2.5884   2.4997   7.9768   H         1 RES1   0.0000
    48 C17      0.8860   3.9153   2.1661   C.ar      1 RES1   0.0000
    49 C18      0.5068   4.5613   0.9968   C.ar      1 RES1   0.0000
    50 H19      0.8222   4.2567   0.1535   H         1 RES1   0.0000
    51 C19     -0.3434   5.6644   1.0814   C.ar      1 RES1   0.0000
    52 H20     -0.6394   6.1033   0.2930   H         1 RES1   0.0000
    53 C20     -0.7477   6.1100   2.3207   C.ar      1 RES1   0.0000
    54 H21     -1.3300   6.8563   2.4000   H         1 RES1   0.0000
    55 C21     -0.2892   5.4499   3.4454   C.ar      1 RES1   0.0000
    56 H22     -0.5426   5.7745   4.3024   H         1 RES1   0.0000
    57 C22     -1.3184   1.5662   5.1919   C.3       1 RES1   0.0000
    58 H23     -1.7072   0.6444   5.2140   H         1 RES1   0.0000
    59 C23     -2.4056   2.5507   4.7426   C.3       1 RES1   0.0000
    60 H24     -2.0090   3.4362   4.6093   H         1 RES1   0.0000
    61 H25     -3.1020   2.6039   5.4303   H         1 RES1   0.0000
    62 H26     -2.8012   2.2399   3.9024   H         1 RES1   0.0000
    63 C24     -0.9179   1.9625   6.5984   C.ar      1 RES1   0.0000
    64 C25     -1.5022   1.3715   7.7103   C.ar      1 RES1   0.0000
    65 H27     -2.0380   0.5930   7.6140   H         1 RES1   0.0000
    66 C26     -1.2942   1.9270   8.9577   C.ar      1 RES1   0.0000
    67 H28     -1.6869   1.5354   9.7303   H         1 RES1   0.0000
    68 C27     -0.5088   3.0585   9.0701   C.ar      1 RES1   0.0000
    69 H29     -0.3879   3.4876   9.9094   H         1 RES1   0.0000
    70 C28      0.0958   3.5479   7.9247   C.ar      1 RES1   0.0000
    71 H30      0.6684   4.3022   8.0047   H         1 RES1   0.0000
    72 C29      3.6504   3.3942   3.2775   C.3       1 RES1   0.0000
    73 H31      4.1989   3.0795   2.5303   H         1 RES1   0.0000
    74 H32      4.1766   3.3658   4.1047   H         1 RES1   0.0000
    75 H33      3.3612   4.3154   3.1070   H         1 RES1   0.0000
    76 N6       3.8894   8.0457   9.7257   N.1       2 RES2   0.0000
    77 C30      3.4995   6.9781   9.8405   C.1       2 RES2   0.0000
    78 C31      2.9705   5.6292   9.9866   C.3       2 RES2   0.0000
    79 H34      2.1454   5.6556  10.5140   H         2 RES2   0.0000
    80 H35      3.6321   5.0670  10.4419   H         2 RES2   0.0000
    81 H36      2.7799   5.2549   9.1001   H         2 RES2   0.0000
    82 Cl2      4.8695   9.7930   0.6049   Cl        3 RES3  -1.0000
    83 O7       1.6724   2.2523  11.7222   O.3       4 RES4   0.0000
    84 H37      1.2497   3.0575  11.9606   H         4 RES4   0.0000
    85 H38      2.4926   2.5115  11.3699   H         4 RES4   0.0000
@<TRIPOS>BOND
     1     1     2    1
     2     3    29    1
     3     4    29    2
     4     5    34    2
     5     6    34    1
     6     7     8    1
     7     9    10    1
     8    11     1    1
     9    12     1    1
    10    13     1    1
    11    14     1    1
    12    15     1    1
    13    16    17    1
    14    17    13    1
    15    18    17    1
    16    19    13    1
    17    20    19    1
    18    21    19    1
    19    22    15    1
    20    23    22    1
    21    24    22    1
    22    25    15    1
    23    26    25    1
    24    27    25    1
    25    28     7    1
    26    29    16    1
    27    30     3    1
    28    31    30    1
    29    32    30    1
    30    33    30    1
    31    34    21    1
    32    35     6    1
    33    36    35    1
    34    37    35    1
    35    38    35    1
    36    39    11   ar
    37    40    39   ar
    38    41    40    1
    39    42    40   ar
    40    43    42    1
    41    44    42   ar
    42    45    44    1
    43    46    11   ar
    44    47    46    1
    45    48    12   ar
    46    49    48   ar
    47    50    49    1
    48    51    49   ar
    49    52    51    1
    50    53    51   ar
    51    54    53    1
    52    55    12   ar
    53    56    55    1
    54    57    15    1
    55    58    57    1
    56    59    57    1
    57    60    59    1
    58    61    59    1
    59    62    59    1
    60    63    14   ar
    61    64    63   ar
    62    65    64    1
    63    66    64   ar
    64    67    66    1
    65    68    66   ar
    66    69    68    1
    67    70    14   ar
    68    71    70    1
    69    72    13    1
    70    73    72    1
    71    74    72    1
    72    75    72    1
    73     9    28    1
    74    16    25    1
    75    16    28    1
    76    17    48    1
    77    19    39    1
    78    21    22    1
    79    21    28    1
    80    44    46   ar
    81    53    55   ar
    82    57    63    1
    83    68    70   ar
    84    76    77    3
    85    77    78    1
    86    78    79    1
    87    80    78    1
    88    81    78    1
    89    83    84    1
    90    85    83    1
@<TRIPOS>SUBSTRUCTURE
     1 RES1        1 GROUP             0 ****  ****    0  
     2 RES2       76 GROUP             0 ****  ****    0  
     3 RES3       82 GROUP             0 ****  ****    0  
     4 RES4       83 GROUP             0 ****  ****    0  
@<TRIPOS>CRYSIN
    9.6726   14.6784   23.2560   90.0000   90.0000   90.0000    19     1
