@<TRIPOS>MOLECULE
IVIBAT
    90   100     2     0     0
SMALL
USER_CHARGES
****
Generated from the CSD

@<TRIPOS>ATOM
     1 Fe1      5.3655   9.2932  14.6035   Fe        1 RES1   2.0000
     2 N1       4.0800   8.2763  13.4478   N.2       1 RES1   0.0000
     3 N2       3.0197   6.7979  12.3008   N.pl3     1 RES1   0.0000
     4 N3       3.2268   8.8935  12.5774   N.2       1 RES1   0.0000
     5 N4       2.5817   8.0102  11.8928   N.2       1 RES1   0.0000
     6 C1       3.9245   6.9799  13.2571   C.2       1 RES1   0.0000
     7 C2       2.4066   5.5687  11.8338   C.3       1 RES1   0.0000
     8 C3       2.2363   5.3938  10.3644   C.3       1 RES1   0.0000
     9 C4       3.2525   4.5834  11.1057   C.3       1 RES1   0.0000
    10 H1       4.3889   6.3008  13.6601   H         1 RES1   0.0000
    11 H2       1.7652   5.2878  12.3750   H         1 RES1   0.0000
    12 H3       1.4272   4.9812  10.0706   H         1 RES1   0.0000
    13 H4       3.0905   3.6429  11.2797   H         1 RES1   0.0000
    14 H5       4.1475   4.8046  10.9731   H         1 RES1   0.0000
    15 H6       2.5432   6.0964   9.8136   H         1 RES1   0.0000
    16 N1A      6.8889   8.6885  13.4478   N.2       1 RES1   0.0000
    17 N2A      8.6993   8.5094  12.3008   N.pl3     1 RES1   0.0000
    18 N3A      6.7809   7.6410  12.5774   N.2       1 RES1   0.0000
    19 N4A      7.8684   7.5240  11.8928   N.2       1 RES1   0.0000
    20 C1A      8.0894   9.2020  13.2571   C.2       1 RES1   0.0000
    21 C2A     10.0704   8.5931  11.8338   C.3       1 RES1   0.0000
    22 C3A     10.3070   8.5330  10.3644   C.3       1 RES1   0.0000
    23 C4A     10.5007   9.8183  11.1057   C.3       1 RES1   0.0000
    24 H1A      8.4452   9.9438  13.6601   H         1 RES1   0.0000
    25 H2A     10.6343   8.1780  12.3750   H         1 RES1   0.0000
    26 H3A     11.0689   8.0386  10.0706   H         1 RES1   0.0000
    27 H4A     11.3962  10.1482  11.2797   H         1 RES1   0.0000
    28 H5A      9.8617  10.4828  10.9731   H         1 RES1   0.0000
    29 H6A      9.5451   8.4475   9.8136   H         1 RES1   0.0000
    30 N1B      5.1274  10.9149  13.4478   N.2       1 RES1   0.0000
    31 N2B      4.3773  12.5723  12.3008   N.pl3     1 RES1   0.0000
    32 N3B      6.0886  11.3452  12.5774   N.2       1 RES1   0.0000
    33 N4B      5.6462  12.3455  11.8928   N.2       1 RES1   0.0000
    34 C1B      4.0825  11.6979  13.2571   C.2       1 RES1   0.0000
    35 C2B      3.6193  13.7179  11.8338   C.3       1 RES1   0.0000
    36 C3B      3.5530  13.9529  10.3644   C.3       1 RES1   0.0000
    37 C4B      2.3431  13.4780  11.1057   C.3       1 RES1   0.0000
    38 H1B      3.2622  11.6351  13.6601   H         1 RES1   0.0000
    39 H2B      3.6968  14.4138  12.3750   H         1 RES1   0.0000
    40 H3B      3.6002  14.8599  10.0706   H         1 RES1   0.0000
    41 H4B      1.6096  14.0885  11.2797   H         1 RES1   0.0000
    42 H5B      2.0872  12.5923  10.9731   H         1 RES1   0.0000
    43 H6B      4.0080  13.3358   9.8136   H         1 RES1   0.0000
    44 N1I      6.6509  10.3102  15.7592   N.2       1 RES1   0.0000
    45 N2I      7.7112  11.7886  16.9062   N.pl3     1 RES1   0.0000
    46 N3I      7.5041   9.6929  16.6296   N.2       1 RES1   0.0000
    47 N4I      8.1492  10.5763  17.3142   N.2       1 RES1   0.0000
    48 C1I      6.8064  11.6066  15.9499   C.2       1 RES1   0.0000
    49 C2I      8.3243  13.0178  17.3732   C.3       1 RES1   0.0000
    50 C3I      8.4946  13.1927  18.8426   C.3       1 RES1   0.0000
    51 C4I      7.4784  14.0030  18.1013   C.3       1 RES1   0.0000
    52 H1I      6.3420  12.2857  15.5469   H         1 RES1   0.0000
    53 H2I      8.9657  13.2986  16.8320   H         1 RES1   0.0000
    54 H3I      9.3037  13.6053  19.1364   H         1 RES1   0.0000
    55 H4I      7.6404  14.9435  17.9273   H         1 RES1   0.0000
    56 H5I      6.5834  13.7819  18.2339   H         1 RES1   0.0000
    57 H6I      8.1877  12.4901  19.3934   H         1 RES1   0.0000
    58 N1J      3.8420   9.8979  15.7592   N.2       1 RES1   0.0000
    59 N2J      2.0316  10.0770  16.9062   N.pl3     1 RES1   0.0000
    60 N3J      3.9500  10.9455  16.6296   N.2       1 RES1   0.0000
    61 N4J      2.8625  11.0625  17.3142   N.2       1 RES1   0.0000
    62 C1J      2.6415   9.3845  15.9499   C.2       1 RES1   0.0000
    63 C2J      0.6605   9.9934  17.3732   C.3       1 RES1   0.0000
    64 C3J      0.4239  10.0534  18.8426   C.3       1 RES1   0.0000
    65 C4J      0.2302   8.7682  18.1013   C.3       1 RES1   0.0000
    66 H1J      2.2857   8.6427  15.5469   H         1 RES1   0.0000
    67 H2J      0.0966  10.4084  16.8320   H         1 RES1   0.0000
    68 H3J     -0.3380  10.5478  19.1364   H         1 RES1   0.0000
    69 H4J     -0.6653   8.4383  17.9273   H         1 RES1   0.0000
    70 H5J      0.8692   8.1037  18.2339   H         1 RES1   0.0000
    71 H6J      1.1858  10.1389  19.3934   H         1 RES1   0.0000
    72 N1K      5.6035   7.6716  15.7592   N.2       1 RES1   0.0000
    73 N2K      6.3536   6.0141  16.9062   N.pl3     1 RES1   0.0000
    74 N3K      4.6423   7.2413  16.6296   N.2       1 RES1   0.0000
    75 N4K      5.0847   6.2410  17.3142   N.2       1 RES1   0.0000
    76 C1K      6.6484   6.8886  15.9499   C.2       1 RES1   0.0000
    77 C2K      7.1116   4.8685  17.3732   C.3       1 RES1   0.0000
    78 C3K      7.1779   4.6336  18.8426   C.3       1 RES1   0.0000
    79 C4K      8.3878   5.1085  18.1013   C.3       1 RES1   0.0000
    80 H1K      7.4687   6.9513  15.5469   H         1 RES1   0.0000
    81 H2K      7.0341   4.1727  16.8320   H         1 RES1   0.0000
    82 H3K      7.1307   3.7266  19.1364   H         1 RES1   0.0000
    83 H4K      9.1213   4.4979  17.9273   H         1 RES1   0.0000
    84 H5K      8.6437   5.9941  18.2339   H         1 RES1   0.0000
    85 H6K      6.7229   5.2507  19.3934   H         1 RES1   0.0000
    86 Cl1     -0.0000   6.1955  14.9537   Cl        2 RES2   0.0000
    87 O1       0.2718   4.8740  14.4548   O.3       2 RES2  -1.0000
    88 O2      -0.0000   6.1955  16.3755   O.2       2 RES2   0.0000
    89 O1A      1.0085   7.0916  14.4548   O.2       2 RES2   0.0000
    90 O1B     -1.2803   6.6209  14.4548   O.2       2 RES2   0.0000
@<TRIPOS>BOND
     1     1     2    1
     2     2     4    1
     3     3     5    1
     4     4     5    2
     5     6     2    2
     6     7     3    1
     7     8     7    1
     8     9     7    1
     9    10     6    1
    10    11     7    1
    11    12     8    1
    12    13     9    1
    13    14     9    1
    14    15     8    1
    15    16     1    1
    16    17    19    1
    17    18    16    1
    18    19    18    2
    19    20    16    2
    20    21    17    1
    21    22    21    1
    22    23    21    1
    23    24    20    1
    24    25    21    1
    25    26    22    1
    26    27    23    1
    27    28    23    1
    28    29    22    1
    29    30     1    1
    30    31    33    1
    31    32    30    1
    32    33    32    2
    33    34    30    2
    34    35    31    1
    35    36    35    1
    36    37    35    1
    37    38    34    1
    38    39    35    1
    39    40    36    1
    40    41    37    1
    41    42    37    1
    42    43    36    1
    43    44     1    1
    44    45    47    1
    45    46    44    1
    46    47    46    2
    47    48    44    2
    48    49    45    1
    49    50    49    1
    50    51    49    1
    51    52    48    1
    52    53    49    1
    53    54    50    1
    54    55    51    1
    55    56    51    1
    56    57    50    1
    57    58     1    1
    58    59    61    1
    59    60    58    1
    60    61    60    2
    61    62    58    2
    62    63    59    1
    63    64    63    1
    64    65    63    1
    65    66    62    1
    66    67    63    1
    67    68    64    1
    68    69    65    1
    69    70    65    1
    70    71    64    1
    71    72     1    1
    72    73    75    1
    73    74    72    1
    74    75    74    2
    75    76    72    2
    76    77    73    1
    77    78    77    1
    78    79    77    1
    79    80    76    1
    80    81    77    1
    81    82    78    1
    82    83    79    1
    83    84    79    1
    84    85    78    1
    85     3     6    1
    86     8     9    1
    87    17    20    1
    88    22    23    1
    89    31    34    1
    90    36    37    1
    91    45    48    1
    92    50    51    1
    93    59    62    1
    94    64    65    1
    95    73    76    1
    96    78    79    1
    97    86    87    1
    98    88    86    2
    99    89    86    2
   100    90    86    2
@<TRIPOS>SUBSTRUCTURE
     1 RES1        1 GROUP             0 ****  ****    0  
     2 RES2       86 GROUP             0 ****  ****    0  
@<TRIPOS>CRYSIN
   10.7309   10.7309   29.2070   90.0000   90.0000  120.0000   233     1
