@<TRIPOS>MOLECULE
IVIBAT01
    90   100     2     0     0
SMALL
USER_CHARGES
****
Generated from the CSD

@<TRIPOS>ATOM
     1 Fe1      5.4197   9.3871  15.0973   Fe        1 RES1   2.0000
     2 N1       4.3471   6.0124  17.5421   N.pl3     1 RES1   0.0000
     3 N2       5.1124   7.6289  16.3654   N.2       1 RES1   0.0000
     4 N3       5.5671   6.3025  18.0131   N.2       1 RES1   0.0000
     5 C1       4.0983   6.8244  16.5300   C.2       1 RES1   0.0000
     6 N4       6.0223   7.2769  17.3099   N.2       1 RES1   0.0000
     7 C2       3.5949   4.8728  18.0192   C.3       1 RES1   0.0000
     8 C3       2.3164   5.1066  18.7155   C.3       1 RES1   0.0000
     9 C4       3.4881   4.6654  19.4794   C.3       1 RES1   0.0000
    10 H1       3.4965   3.7531  19.8080   H         1 RES1   0.0000
    11 H2       3.9187   5.3126  20.0601   H         1 RES1   0.0000
    12 H3       3.4090   6.7869  16.1208   H         1 RES1   0.0000
    13 H4       2.1787   5.8576  18.7357   H         1 RES1   0.0000
    14 H5       3.7992   4.1209  17.4615   H         1 RES1   0.0000
    15 H6       1.6693   4.4307  18.4398   H         1 RES1   0.0000
    16 N1A      8.8785  10.1456  17.5421   N.pl3     1 RES1   0.0000
    17 N2A      7.0959  10.0001  16.3654   N.2       1 RES1   0.0000
    18 N3A      8.0173  11.0571  18.0131   N.2       1 RES1   0.0000
    19 C1A      8.2997   9.5242  16.5300   C.2       1 RES1   0.0000
    20 N4A      6.9458  10.9641  17.3099   N.2       1 RES1   0.0000
    21 C2A     10.2415  10.0639  18.0192   C.3       1 RES1   0.0000
    22 C3A     10.6783   8.8398  18.7155   C.3       1 RES1   0.0000
    23 C4A     10.4746  10.0752  19.4794   C.3       1 RES1   0.0000
    24 H1A     11.2605  10.5387  19.8080   H         1 RES1   0.0000
    25 H2A      9.6988  10.1245  20.0601   H         1 RES1   0.0000
    26 H3A      8.6769   8.9459  16.1208   H         1 RES1   0.0000
    27 H4A     10.0968   8.3451  18.7357   H         1 RES1   0.0000
    28 H5A     10.7905  10.6168  17.4615   H         1 RES1   0.0000
    29 H6A     11.5872   8.6174  18.4398   H         1 RES1   0.0000
    30 N1B      3.0334  12.0033  17.5421   N.pl3     1 RES1   0.0000
    31 N2B      4.0506  10.5323  16.3654   N.2       1 RES1   0.0000
    32 N3B      2.6746  10.8017  18.0131   N.2       1 RES1   0.0000
    33 C1B      3.8610  11.8127  16.5300   C.2       1 RES1   0.0000
    34 N4B      3.2908   9.9203  17.3099   N.2       1 RES1   0.0000
    35 C2B      2.4226  13.2246  18.0192   C.3       1 RES1   0.0000
    36 C3B      3.2643  14.2149  18.7155   C.3       1 RES1   0.0000
    37 C4B      2.2963  13.4207  19.4794   C.3       1 RES1   0.0000
    38 H1B      1.5020  13.8696  19.8080   H         1 RES1   0.0000
    39 H2B      2.6415  12.7242  20.0601   H         1 RES1   0.0000
    40 H3B      4.1731  12.4285  16.1208   H         1 RES1   0.0000
    41 H4B      3.9834  13.9586  18.7357   H         1 RES1   0.0000
    42 H5B      1.6693  13.4236  17.4615   H         1 RES1   0.0000
    43 H6B      3.0025  15.1132  18.4398   H         1 RES1   0.0000
    44 N1I      6.4922  12.7618  12.6524   N.pl3     1 RES1   0.0000
    45 N2I      5.7269  11.1453  13.8291   N.2       1 RES1   0.0000
    46 N3I      5.2722  12.4717  12.1814   N.2       1 RES1   0.0000
    47 C1I      6.7410  11.9498  13.6645   C.2       1 RES1   0.0000
    48 N4I      4.8170  11.4973  12.8846   N.2       1 RES1   0.0000
    49 C2I      7.2444  13.9014  12.1753   C.3       1 RES1   0.0000
    50 C3I      8.5229  13.6676  11.4790   C.3       1 RES1   0.0000
    51 C4I      7.3512  14.1088  10.7151   C.3       1 RES1   0.0000
    52 H1I      7.3428  15.0212  10.3865   H         1 RES1   0.0000
    53 H2I      6.9206  13.4616  10.1344   H         1 RES1   0.0000
    54 H3I      7.4303  11.9873  14.0737   H         1 RES1   0.0000
    55 H4I      8.6606  12.9167  11.4588   H         1 RES1   0.0000
    56 H5I      7.0401  14.6533  12.7330   H         1 RES1   0.0000
    57 H6I      9.1700  14.3435  11.7547   H         1 RES1   0.0000
    58 N1J      1.9608   8.6286  12.6524   N.pl3     1 RES1   0.0000
    59 N2J      3.7434   8.7741  13.8291   N.2       1 RES1   0.0000
    60 N3J      2.8220   7.7171  12.1814   N.2       1 RES1   0.0000
    61 C1J      2.5396   9.2501  13.6645   C.2       1 RES1   0.0000
    62 N4J      3.8935   7.8101  12.8846   N.2       1 RES1   0.0000
    63 C2J      0.5978   8.7103  12.1753   C.3       1 RES1   0.0000
    64 C3J      0.1610   9.9344  11.4790   C.3       1 RES1   0.0000
    65 C4J      0.3647   8.6990  10.7151   C.3       1 RES1   0.0000
    66 H1J     -0.4212   8.2356  10.3865   H         1 RES1   0.0000
    67 H2J      1.1405   8.6497  10.1344   H         1 RES1   0.0000
    68 H3J      2.1624   9.8283  14.0737   H         1 RES1   0.0000
    69 H4J      0.7425  10.4291  11.4588   H         1 RES1   0.0000
    70 H5J      0.0488   8.1574  12.7330   H         1 RES1   0.0000
    71 H6J     -0.7479  10.1569  11.7547   H         1 RES1   0.0000
    72 N1K      7.8059   6.7709  12.6524   N.pl3     1 RES1   0.0000
    73 N2K      6.7887   8.2419  13.8291   N.2       1 RES1   0.0000
    74 N3K      8.1647   7.9725  12.1814   N.2       1 RES1   0.0000
    75 C1K      6.9783   6.9615  13.6645   C.2       1 RES1   0.0000
    76 N4K      7.5485   8.8539  12.8846   N.2       1 RES1   0.0000
    77 C2K      8.4167   5.5497  12.1753   C.3       1 RES1   0.0000
    78 C3K      7.5750   4.5593  11.4790   C.3       1 RES1   0.0000
    79 C4K      8.5430   5.3535  10.7151   C.3       1 RES1   0.0000
    80 H1K      9.3373   4.9046  10.3865   H         1 RES1   0.0000
    81 H2K      8.1978   6.0500  10.1344   H         1 RES1   0.0000
    82 H3K      6.6662   6.3457  14.0737   H         1 RES1   0.0000
    83 H4K      6.8559   4.8156  11.4588   H         1 RES1   0.0000
    84 H5K      9.1700   5.3507  12.7330   H         1 RES1   0.0000
    85 H6K      7.8368   3.6610  11.7547   H         1 RES1   0.0000
    86 Cl1     -0.0000   6.2581  15.4179   Cl        2 RES2   0.0000
    87 O1      -0.3170   4.9761  14.9206   O.2       2 RES2   0.0000
    88 O2      -0.0000   6.2581  16.7851   O.2       2 RES2   0.0000
    89 O1A      1.2687   6.6245  14.9206   O.3       2 RES2  -1.0000
    90 O1B     -0.9517   7.1736  14.9206   O.2       2 RES2   0.0000
@<TRIPOS>BOND
     1     1     3    1
     2     2     4    1
     3     3     5    2
     4     4     6    2
     5     5     2    1
     6     6     3    1
     7     7     2    1
     8     8     7    1
     9     9     7    1
    10    10     9    1
    11    11     9    1
    12    12     5    1
    13    13     8    1
    14    14     7    1
    15    15     8    1
    16    16    18    1
    17    17     1    1
    18    18    20    2
    19    19    16    1
    20    20    17    1
    21    21    16    1
    22    22    21    1
    23    23    21    1
    24    24    23    1
    25    25    23    1
    26    26    19    1
    27    27    22    1
    28    28    21    1
    29    29    22    1
    30    30    32    1
    31    31     1    1
    32    32    34    2
    33    33    30    1
    34    34    31    1
    35    35    30    1
    36    36    35    1
    37    37    35    1
    38    38    37    1
    39    39    37    1
    40    40    33    1
    41    41    36    1
    42    42    35    1
    43    43    36    1
    44    44    46    1
    45    45     1    1
    46    46    48    2
    47    47    44    1
    48    48    45    1
    49    49    44    1
    50    50    49    1
    51    51    49    1
    52    52    51    1
    53    53    51    1
    54    54    47    1
    55    55    50    1
    56    56    49    1
    57    57    50    1
    58    58    60    1
    59    59     1    1
    60    60    62    2
    61    61    58    1
    62    62    59    1
    63    63    58    1
    64    64    63    1
    65    65    63    1
    66    66    65    1
    67    67    65    1
    68    68    61    1
    69    69    64    1
    70    70    63    1
    71    71    64    1
    72    72    74    1
    73    73     1    1
    74    74    76    2
    75    75    72    1
    76    76    73    1
    77    77    72    1
    78    78    77    1
    79    79    77    1
    80    80    79    1
    81    81    79    1
    82    82    75    1
    83    83    78    1
    84    84    77    1
    85    85    78    1
    86     8     9    1
    87    17    19    2
    88    22    23    1
    89    31    33    2
    90    36    37    1
    91    45    47    2
    92    50    51    1
    93    59    61    2
    94    64    65    1
    95    73    75    2
    96    78    79    1
    97    86    87    2
    98    88    86    2
    99    89    86    1
   100    90    86    2
@<TRIPOS>SUBSTRUCTURE
     1 RES1        1 GROUP             0 ****  ****    0  
     2 RES2       86 GROUP             0 ****  ****    0  
@<TRIPOS>CRYSIN
   10.8393   10.8393   30.1945   90.0000   90.0000  120.0000   233     1
