@<TRIPOS>MOLECULE
IXAQEF05
    78    83     3     0     0
SMALL
USER_CHARGES
****
Generated from the CSD

@<TRIPOS>ATOM
     1 Fe1      5.4046   2.6292  12.7491   Fe        1 RES1   2.0000
     2 O1       4.4173   0.4880  14.2114   O.2       1 RES1   0.0000
     3 N1       4.4202   2.2087  10.9942   N.ar      1 RES1   0.0000
     4 N2       6.3304   4.0002  11.3695   N.3       1 RES1   0.0000
     5 N3       4.2930   4.3130  13.1804   N.ar      1 RES1   0.0000
     6 N4       6.9685   3.3229  14.0720   N.3       1 RES1   0.0000
     7 N5       6.8207   1.1840  12.3361   N.ar      1 RES1   0.0000
     8 N6       4.5831   1.5133  13.8191   N.2       1 RES1   0.0000
     9 C1       3.2951   1.4678  10.8856   C.ar      1 RES1   0.0000
    10 H1       2.8745   1.1876  11.6666   H         1 RES1   0.0000
    11 C2       2.7575   1.1190   9.7189   C.ar      1 RES1   0.0000
    12 H2       1.9879   0.5986   9.6896   H         1 RES1   0.0000
    13 C3       3.3579   1.5383   8.5640   C.ar      1 RES1   0.0000
    14 H3       3.0019   1.2943   7.7419   H         1 RES1   0.0000
    15 C4       4.4871   2.3218   8.6208   C.ar      1 RES1   0.0000
    16 H4       4.8815   2.6401   7.8417   H         1 RES1   0.0000
    17 C5       5.0246   2.6268   9.8638   C.ar      1 RES1   0.0000
    18 C6       6.3074   3.3702  10.0453   C.3       1 RES1   0.0000
    19 H5       7.0561   2.7583   9.9597   H         1 RES1   0.0000
    20 H6       6.3929   4.0507   9.3588   H         1 RES1   0.0000
    21 C7       5.5308   5.2497  11.3241   C.3       1 RES1   0.0000
    22 H7       4.9932   5.2497  10.5176   H         1 RES1   0.0000
    23 H8       6.1346   6.0084  11.2771   H         1 RES1   0.0000
    24 C8       4.6232   5.4213  12.5176   C.ar      1 RES1   0.0000
    25 C9       4.1171   6.6546  12.8627   C.ar      1 RES1   0.0000
    26 H9       4.3736   7.4190  12.4007   H         1 RES1   0.0000
    27 C10      3.2200   6.7347  13.9080   C.ar      1 RES1   0.0000
    28 H10      2.8518   7.5524  14.1507   H         1 RES1   0.0000
    29 C11      2.8745   5.6005  14.5833   C.ar      1 RES1   0.0000
    30 H11      2.2758   5.6367  15.2939   H         1 RES1   0.0000
    31 C12      3.4242   4.4110  14.2016   C.ar      1 RES1   0.0000
    32 H12      3.1886   3.6390  14.6636   H         1 RES1   0.0000
    33 C13      7.7089   4.2204  11.8688   C.3       1 RES1   0.0000
    34 H13      8.0998   4.9943  11.4337   H         1 RES1   0.0000
    35 H14      8.2604   3.4464  11.6686   H         1 RES1   0.0000
    36 C14      7.6548   4.4436  13.3693   C.3       1 RES1   0.0000
    37 H15      8.5571   4.5311  13.7122   H         1 RES1   0.0000
    38 H16      7.1835   5.2707  13.5517   H         1 RES1   0.0000
    39 C15      7.8781   2.1750  14.2693   C.3       1 RES1   0.0000
    40 H17      7.6007   1.6889  15.0629   H         1 RES1   0.0000
    41 H18      8.7752   2.5105  14.4287   H         1 RES1   0.0000
    42 C16      7.9183   1.2263  13.1158   C.ar      1 RES1   0.0000
    43 C17      8.9846   0.3774  12.9220   C.ar      1 RES1   0.0000
    44 H19      9.7473   0.4480  13.4480   H         1 RES1   0.0000
    45 C18      8.8991  -0.5871  11.9309   C.ar      1 RES1   0.0000
    46 H20      9.6025  -1.1780  11.7880   H         1 RES1   0.0000
    47 C19      7.7752  -0.6596  11.1655   C.ar      1 RES1   0.0000
    48 H21      7.7001  -1.3115  10.5058   H         1 RES1   0.0000
    49 C20      6.7594   0.2268  11.3730   C.ar      1 RES1   0.0000
    50 H22      6.0002   0.1754  10.8386   H         1 RES1   0.0000
    51 C21      6.4540   3.7858  15.4074   C.3       1 RES1   0.0000
    52 H23      5.7926   3.1472  15.7167   H         1 RES1   0.0000
    53 H24      6.0002   4.6340  15.2821   H         1 RES1   0.0000
    54 C22      7.4977   3.9556  16.4958   C.ar      1 RES1   0.0000
    55 C23      8.3319   5.0725  16.5565   C.ar      1 RES1   0.0000
    56 H25      8.2551   5.7549  15.9281   H         1 RES1   0.0000
    57 C24      9.2866   5.1487  17.5763   C.ar      1 RES1   0.0000
    58 H26      9.8573   5.8826  17.6096   H         1 RES1   0.0000
    59 C25      9.4000   4.1670  18.5237   C.ar      1 RES1   0.0000
    60 H27     10.0440   4.2299  19.1912   H         1 RES1   0.0000
    61 C26      8.5605   3.0976  18.4728   C.ar      1 RES1   0.0000
    62 H28      8.6181   2.4381  19.1266   H         1 RES1   0.0000
    63 C27      7.6216   2.9737  17.4675   C.ar      1 RES1   0.0000
    64 H29      7.0701   2.2265  17.4412   H         1 RES1   0.0000
    65 P1       9.0859  -1.0715  16.5525   P.3       2 RES2  -1.0000
    66 F1       8.6356  -0.3412  17.8617   F         2 RES2   0.0000
    67 F2       8.3860  -2.4079  17.0752   F         2 RES2   0.0000
    68 F3      10.4228  -1.4773  17.2886   F         2 RES2   0.0000
    69 F4       9.7746   0.2634  16.0303   F         2 RES2   0.0000
    70 F5       7.7490  -0.6424  15.8498   F         2 RES2   0.0000
    71 F6       9.5763  -1.8195  15.2645   F         2 RES2   0.0000
    72 P2       3.2687   2.5419  18.0483   P.3       3 RES3  -1.0000
    73 F7       2.6860   1.0599  18.2732   F         3 RES3   0.0000
    74 F8       3.7628   1.9958  16.7698   F         3 RES3   0.0000
    75 F9       1.9739   2.8650  17.5704   F         3 RES3   0.0000
    76 F10      2.7977   3.1872  19.3772   F         3 RES3   0.0000
    77 F11      4.3911   2.0682  18.9779   F         3 RES3   0.0000
    78 F12      4.1380   3.8239  17.7897   F         3 RES3   0.0000
@<TRIPOS>BOND
     1     1     3    1
     2     2     8    2
     3     3     9   ar
     4     4     1    1
     5     5     1    1
     6     6     1    1
     7     7     1    1
     8     8     1    1
     9     9    10    1
    10    11     9   ar
    11    12    11    1
    12    13    11   ar
    13    14    13    1
    14    15    13   ar
    15    16    15    1
    16    17     3   ar
    17    18     4    1
    18    19    18    1
    19    20    18    1
    20    21     4    1
    21    22    21    1
    22    23    21    1
    23    24     5   ar
    24    25    24   ar
    25    26    25    1
    26    27    25   ar
    27    28    27    1
    28    29    27   ar
    29    30    29    1
    30    31     5   ar
    31    32    31    1
    32    33     4    1
    33    34    33    1
    34    35    33    1
    35    36     6    1
    36    37    36    1
    37    38    36    1
    38    39     6    1
    39    40    39    1
    40    41    39    1
    41    42     7   ar
    42    43    42   ar
    43    44    43    1
    44    45    43   ar
    45    46    45    1
    46    47    45   ar
    47    48    47    1
    48    49     7   ar
    49    50    49    1
    50    51     6    1
    51    52    51    1
    52    53    51    1
    53    54    51    1
    54    55    54   ar
    55    56    55    1
    56    57    55   ar
    57    58    57    1
    58    59    57   ar
    59    60    59    1
    60    61    59   ar
    61    62    61    1
    62    63    54   ar
    63    64    63    1
    64    15    17   ar
    65    17    18    1
    66    21    24    1
    67    29    31   ar
    68    33    36    1
    69    39    42    1
    70    47    49   ar
    71    61    63   ar
    72    65    66    1
    73    67    65    1
    74    68    65    1
    75    69    65    1
    76    70    65    1
    77    71    65    1
    78    72    73    1
    79    74    72    1
    80    75    72    1
    81    76    72    1
    82    77    72    1
    83    78    72    1
@<TRIPOS>SUBSTRUCTURE
     1 RES1        1 GROUP             0 ****  ****    0  
     2 RES2       65 GROUP             0 ****  ****    0  
     3 RES3       72 GROUP             0 ****  ****    0  
@<TRIPOS>CRYSIN
   17.4527   19.0622   19.5749   90.0000   90.0000   90.0000    61     1
