@<TRIPOS>MOLECULE
IXAQEF07
    78    83     3     0     0
SMALL
USER_CHARGES
****
Generated from the CSD

@<TRIPOS>ATOM
     1 Fe1     14.1476   2.6291  12.8678   Fe        1 RES1   2.0000
     2 O1      13.0372   0.5242  14.3431   O.2       1 RES1   0.0000
     3 N1      13.1915   2.2217  11.0444   N.ar      1 RES1   0.0000
     4 N2      15.1156   4.0247  11.4863   N.3       1 RES1   0.0000
     5 N3      13.0512   4.3454  13.3133   N.ar      1 RES1   0.0000
     6 N4      15.7593   3.3142  14.2050   N.3       1 RES1   0.0000
     7 N5      15.6067   1.1809  12.4432   N.ar      1 RES1   0.0000
     8 N6      13.3178   1.4958  13.9150   N.2       1 RES1   0.0000
     9 C1      12.0620   1.4613  10.9162   C.ar      1 RES1   0.0000
    10 H1      11.6463   1.1540  11.6876   H         1 RES1   0.0000
    11 C2      11.5411   1.1483   9.7738   C.ar      1 RES1   0.0000
    12 H2      10.7553   0.6548   9.7324   H         1 RES1   0.0000
    13 C3      12.1620   1.5534   8.6355   C.ar      1 RES1   0.0000
    14 H3      11.8217   1.2884   7.8108   H         1 RES1   0.0000
    15 C4      13.3038   2.3599   8.6789   C.ar      1 RES1   0.0000
    16 H4      13.7054   2.6902   7.9075   H         1 RES1   0.0000
    17 C5      13.8019   2.6364   9.9593   C.ar      1 RES1   0.0000
    18 C6      15.0788   3.3891  10.1586   C.3       1 RES1   0.0000
    19 H5      15.1630   4.0708   9.4720   H         1 RES1   0.0000
    20 H6      15.8295   2.7824  10.0718   H         1 RES1   0.0000
    21 C7      14.2983   5.2671  11.4607   C.3       1 RES1   0.0000
    22 H7      14.8964   6.0275  11.4173   H         1 RES1   0.0000
    23 H8      13.7668   5.2671  10.6478   H         1 RES1   0.0000
    24 C8      13.3862   5.4514  12.6168   C.ar      1 RES1   0.0000
    25 C9      12.9214   6.7168  12.9601   C.ar      1 RES1   0.0000
    26 H9      13.1740   7.4772  12.4886   H         1 RES1   0.0000
    27 C10     12.0480   6.7783  14.0630   C.ar      1 RES1   0.0000
    28 H10     11.7445   7.6040  14.3589   H         1 RES1   0.0000
    29 C11     11.6463   5.6588  14.6943   C.ar      1 RES1   0.0000
    30 H11     11.0096   5.7049  15.3690   H         1 RES1   0.0000
    31 C12     12.1777   4.4740  14.3372   C.ar      1 RES1   0.0000
    32 H12     11.9357   3.7156  14.8147   H         1 RES1   0.0000
    33 C13     16.4592   4.2513  11.9973   C.3       1 RES1   0.0000
    34 H13     16.8398   5.0347  11.5731   H         1 RES1   0.0000
    35 H14     17.0204   3.4890  11.7823   H         1 RES1   0.0000
    36 C14     16.4293   4.4452  13.4711   C.3       1 RES1   0.0000
    37 H15     17.3396   4.5355  13.7947   H         1 RES1   0.0000
    38 H16     15.9628   5.2709  13.6684   H         1 RES1   0.0000
    39 C15     16.6749   2.1871  14.3767   C.3       1 RES1   0.0000
    40 H17     16.4136   1.6936  15.1698   H         1 RES1   0.0000
    41 H18     17.5677   2.5347  14.5286   H         1 RES1   0.0000
    42 C16     16.7258   1.2270  13.2067   C.ar      1 RES1   0.0000
    43 C17     17.7834   0.3956  13.0173   C.ar      1 RES1   0.0000
    44 H19     18.5481   0.4704  13.5421   H         1 RES1   0.0000
    45 C18     17.6939  -0.5780  12.0092   C.ar      1 RES1   0.0000
    46 H20     18.3990  -1.1694  11.8711   H         1 RES1   0.0000
    47 C19     16.6275  -0.6586  11.2713   C.ar      1 RES1   0.0000
    48 H21     16.5644  -1.3038  10.6044   H         1 RES1   0.0000
    49 C20     15.5769   0.2419  11.4903   C.ar      1 RES1   0.0000
    50 H22     14.8227   0.1843  10.9497   H         1 RES1   0.0000
    51 C21     15.2489   3.7770  15.5446   C.3       1 RES1   0.0000
    52 H23     14.5965   3.1338  15.8623   H         1 RES1   0.0000
    53 H24     14.7894   4.6219  15.4203   H         1 RES1   0.0000
    54 C22     16.2978   3.9575  16.6100   C.ar      1 RES1   0.0000
    55 C23     17.0783   5.0789  16.6909   C.ar      1 RES1   0.0000
    56 H25     16.9538   5.7759  16.0872   H         1 RES1   0.0000
    57 C24     18.0921   5.1864  17.7129   C.ar      1 RES1   0.0000
    58 H26     18.6797   5.9065  17.7208   H         1 RES1   0.0000
    59 C25     18.1728   4.2321  18.6441   C.ar      1 RES1   0.0000
    60 H27     18.7919   4.3127  19.3346   H         1 RES1   0.0000
    61 C26     17.3502   3.1376  18.5908   C.ar      1 RES1   0.0000
    62 H28     17.4116   2.4905  19.2557   H         1 RES1   0.0000
    63 C27     16.4293   2.9705  17.5708   C.ar      1 RES1   0.0000
    64 H29     15.9049   2.2025  17.5333   H         1 RES1   0.0000
    65 P1      17.9116  -1.1016  16.6775   P.3       2 RES2  -1.0000
    66 F1      17.4993  -0.3802  18.0128   F         2 RES2   0.0000
    67 F2      17.2099  -2.4252  17.1605   F         2 RES2   0.0000
    68 F3      19.2339  -1.5189  17.4386   F         2 RES2   0.0000
    69 F4      18.5709   0.2400  16.1641   F         2 RES2   0.0000
    70 F5      16.5626  -0.6605  16.0083   F         2 RES2   0.0000
    71 F6      18.4289  -1.8664  15.4046   F         2 RES2   0.0000
    72 P2      12.0130   2.6134  18.2124   P.3       3 RES3  -1.0000
    73 F7      13.3196   2.0066  19.0505   F         3 RES3   0.0000
    74 F8      12.6881   1.9010  17.0026   F         3 RES3   0.0000
    75 F9      11.4972   1.0868  18.3975   F         3 RES3   0.0000
    76 F10     11.4744   3.3066  19.5220   F         3 RES3   0.0000
    77 F11     12.9127   3.8212  17.8964   F         3 RES3   0.0000
    78 F12     10.9745   3.0416  17.2039   F         3 RES3   0.0000
@<TRIPOS>BOND
     1     1     3    1
     2     2     8    2
     3     3     9   ar
     4     4     1    1
     5     5     1    1
     6     6     1    1
     7     7     1    1
     8     8     1    1
     9     9    10    1
    10    11     9   ar
    11    12    11    1
    12    13    11   ar
    13    14    13    1
    14    15    13   ar
    15    16    15    1
    16    17     3   ar
    17    18     4    1
    18    19    18    1
    19    20    18    1
    20    21     4    1
    21    22    21    1
    22    23    21    1
    23    24     5   ar
    24    25    24   ar
    25    26    25    1
    26    27    25   ar
    27    28    27    1
    28    29    27   ar
    29    30    29    1
    30    31     5   ar
    31    32    31    1
    32    33     4    1
    33    34    33    1
    34    35    33    1
    35    36     6    1
    36    37    36    1
    37    38    36    1
    38    39     6    1
    39    40    39    1
    40    41    39    1
    41    42     7   ar
    42    43    42   ar
    43    44    43    1
    44    45    43   ar
    45    46    45    1
    46    47    45   ar
    47    48    47    1
    48    49     7   ar
    49    50    49    1
    50    51     6    1
    51    52    51    1
    52    53    51    1
    53    54    51    1
    54    55    54   ar
    55    56    55    1
    56    57    55   ar
    57    58    57    1
    58    59    57   ar
    59    60    59    1
    60    61    59   ar
    61    62    61    1
    62    63    54   ar
    63    64    63    1
    64    15    17   ar
    65    17    18    1
    66    21    24    1
    67    29    31   ar
    68    33    36    1
    69    39    42    1
    70    47    49   ar
    71    61    63   ar
    72    65    66    1
    73    67    65    1
    74    68    65    1
    75    69    65    1
    76    70    65    1
    77    71    65    1
    78    72    73    1
    79    74    72    1
    80    75    72    1
    81    76    72    1
    82    77    72    1
    83    78    72    1
@<TRIPOS>SUBSTRUCTURE
     1 RES1        1 GROUP             0 ****  ****    0  
     2 RES2       65 GROUP             0 ****  ****    0  
     3 RES3       72 GROUP             0 ****  ****    0  
@<TRIPOS>CRYSIN
   17.5396   19.2019   19.7292   90.0000   90.0000   90.0000    61     1
