@<TRIPOS>MOLECULE
IXAQEF06
    78    83     3     0     0
SMALL
USER_CHARGES
****
Generated from the CSD

@<TRIPOS>ATOM
     1 Fe1      5.3816   2.6256  12.8016   Fe        1 RES1   2.0000
     2 O1       4.3460   0.5159  14.3037   O.2       1 RES1   0.0000
     3 N1       4.4117   2.2116  11.0187   N.ar      1 RES1   0.0000
     4 N2       6.3199   4.0071  11.4223   N.3       1 RES1   0.0000
     5 N3       4.2761   4.3297  13.2386   N.ar      1 RES1   0.0000
     6 N4       6.9690   3.3198  14.1232   N.3       1 RES1   0.0000
     7 N5       6.8232   1.1757  12.3813   N.ar      1 RES1   0.0000
     8 N6       4.5558   1.5063  13.8679   N.2       1 RES1   0.0000
     9 C1       3.2814   1.4541  10.8962   C.ar      1 RES1   0.0000
    10 H1       2.8565   1.1541  11.6660   H         1 RES1   0.0000
    11 C2       2.7674   1.1293   9.7119   C.ar      1 RES1   0.0000
    12 H2       1.9982   0.6095   9.6647   H         1 RES1   0.0000
    13 C3       3.3775   1.5630   8.5688   C.ar      1 RES1   0.0000
    14 H3       3.0279   1.3356   7.7361   H         1 RES1   0.0000
    15 C4       4.5103   2.3369   8.6572   C.ar      1 RES1   0.0000
    16 H4       4.9229   2.6522   7.8854   H         1 RES1   0.0000
    17 C5       5.0278   2.6388   9.8965   C.ar      1 RES1   0.0000
    18 C6       6.3075   3.3802  10.0943   C.3       1 RES1   0.0000
    19 H5       7.0557   2.7687  10.0143   H         1 RES1   0.0000
    20 H6       6.4001   4.0624   9.4094   H         1 RES1   0.0000
    21 C7       5.5208   5.2558  11.3793   C.3       1 RES1   0.0000
    22 H7       4.9806   5.2547  10.5721   H         1 RES1   0.0000
    23 H8       6.1257   6.0133  11.3263   H         1 RES1   0.0000
    24 C8       4.6187   5.4343  12.5655   C.ar      1 RES1   0.0000
    25 C9       4.1205   6.6725  12.8994   C.ar      1 RES1   0.0000
    26 H9       4.3705   7.4330  12.4281   H         1 RES1   0.0000
    27 C10      3.2342   6.7509  13.9600   C.ar      1 RES1   0.0000
    28 H10      2.8863   7.5763  14.2133   H         1 RES1   0.0000
    29 C11      2.8688   5.6292  14.6317   C.ar      1 RES1   0.0000
    30 H11      2.2622   5.6732  15.3348   H         1 RES1   0.0000
    31 C12      3.4055   4.4407  14.2526   C.ar      1 RES1   0.0000
    32 H12      3.1590   3.6726  14.7141   H         1 RES1   0.0000
    33 C13      7.6920   4.2229  11.9237   C.3       1 RES1   0.0000
    34 H13      8.0819   4.9987  11.4893   H         1 RES1   0.0000
    35 H14      8.2427   3.4509  11.7191   H         1 RES1   0.0000
    36 C14      7.6501   4.4420  13.4260   C.3       1 RES1   0.0000
    37 H15      8.5556   4.5267  13.7636   H         1 RES1   0.0000
    38 H16      7.1816   5.2700  13.6163   H         1 RES1   0.0000
    39 C15      7.8843   2.1753  14.3125   C.3       1 RES1   0.0000
    40 H17      7.6151   1.6911  15.1089   H         1 RES1   0.0000
    41 H18      8.7794   2.5146  14.4627   H         1 RES1   0.0000
    42 C16      7.9193   1.2229  13.1612   C.ar      1 RES1   0.0000
    43 C17      8.9927   0.3898  12.9627   C.ar      1 RES1   0.0000
    44 H19      9.7566   0.4681  13.4867   H         1 RES1   0.0000
    45 C18      8.9140  -0.5675  11.9685   C.ar      1 RES1   0.0000
    46 H20      9.6255  -1.1484  11.8192   H         1 RES1   0.0000
    47 C19      7.7812  -0.6573  11.2025   C.ar      1 RES1   0.0000
    48 H21      7.7060  -1.3070  10.5426   H         1 RES1   0.0000
    49 C20      6.7760   0.2197  11.4284   C.ar      1 RES1   0.0000
    50 H22      6.0120   0.1605  10.9001   H         1 RES1   0.0000
    51 C21      6.4508   3.7815  15.4679   C.3       1 RES1   0.0000
    52 H23      5.7952   3.1394  15.7806   H         1 RES1   0.0000
    53 H24      5.9945   4.6299  15.3465   H         1 RES1   0.0000
    54 C22      7.5050   3.9546  16.5430   C.ar      1 RES1   0.0000
    55 C23      8.3249   5.0713  16.5996   C.ar      1 RES1   0.0000
    56 H25      8.2427   5.7496  15.9711   H         1 RES1   0.0000
    57 C24      9.2881   5.1611  17.6287   C.ar      1 RES1   0.0000
    58 H26      9.8511   5.9006  17.6660   H         1 RES1   0.0000
    59 C25      9.4035   4.1789  18.5655   C.ar      1 RES1   0.0000
    60 H27     10.0486   4.2420  19.2333   H         1 RES1   0.0000
    61 C26      8.5766   3.1165  18.5203   C.ar      1 RES1   0.0000
    62 H28      8.6396   2.4630  19.1783   H         1 RES1   0.0000
    63 C27      7.6361   2.9751  17.5203   C.ar      1 RES1   0.0000
    64 H29      7.0907   2.2223  17.4991   H         1 RES1   0.0000
    65 P1       9.1051  -1.0821  16.6051   P.3       2 RES2  -1.0000
    66 F1       8.6623  -0.3478  17.9174   F         2 RES2   0.0000
    67 F2       8.4070  -2.4225  17.1220   F         2 RES2   0.0000
    68 F3      10.4384  -1.4847  17.3380   F         2 RES2   0.0000
    69 F4       9.7883   0.2501  16.0828   F         2 RES2   0.0000
    70 F5       7.7620  -0.6504  15.9161   F         2 RES2   0.0000
    71 F6       9.6081  -1.8296  15.3249   F         2 RES2   0.0000
    72 P2       3.2502   2.5706  18.1179   P.3       3 RES3  -1.0000
    73 F7       2.7097   1.0720  18.3357   F         3 RES3   0.0000
    74 F8       3.6869   2.0484  16.8293   F         3 RES3   0.0000
    75 F9       1.8950   2.8146  17.7878   F         3 RES3   0.0000
    76 F10      2.8391   3.2293  19.4650   F         3 RES3   0.0000
    77 F11      4.3565   2.0866  19.0192   F         3 RES3   0.0000
    78 F12      4.1467   3.8197  17.8624   F         3 RES3   0.0000
@<TRIPOS>BOND
     1     1     3    1
     2     2     8    2
     3     3     9   ar
     4     4     1    1
     5     5     1    1
     6     6     1    1
     7     7     1    1
     8     8     1    1
     9     9    10    1
    10    11     9   ar
    11    12    11    1
    12    13    11   ar
    13    14    13    1
    14    15    13   ar
    15    16    15    1
    16    17     3   ar
    17    18     4    1
    18    19    18    1
    19    20    18    1
    20    21     4    1
    21    22    21    1
    22    23    21    1
    23    24     5   ar
    24    25    24   ar
    25    26    25    1
    26    27    25   ar
    27    28    27    1
    28    29    27   ar
    29    30    29    1
    30    31     5   ar
    31    32    31    1
    32    33     4    1
    33    34    33    1
    34    35    33    1
    35    36     6    1
    36    37    36    1
    37    38    36    1
    38    39     6    1
    39    40    39    1
    40    41    39    1
    41    42     7   ar
    42    43    42   ar
    43    44    43    1
    44    45    43   ar
    45    46    45    1
    46    47    45   ar
    47    48    47    1
    48    49     7   ar
    49    50    49    1
    50    51     6    1
    51    52    51    1
    52    53    51    1
    53    54    51    1
    54    55    54   ar
    55    56    55    1
    56    57    55   ar
    57    58    57    1
    58    59    57   ar
    59    60    59    1
    60    61    59   ar
    61    62    61    1
    62    63    54   ar
    63    64    63    1
    64    15    17   ar
    65    17    18    1
    66    21    24    1
    67    29    31   ar
    68    33    36    1
    69    39    42    1
    70    47    49   ar
    71    61    63   ar
    72    65    66    1
    73    67    65    1
    74    68    65    1
    75    69    65    1
    76    70    65    1
    77    71    65    1
    78    72    73    1
    79    74    72    1
    80    75    72    1
    81    76    72    1
    82    77    72    1
    83    78    72    1
@<TRIPOS>SUBSTRUCTURE
     1 RES1        1 GROUP             0 ****  ****    0  
     2 RES2       65 GROUP             0 ****  ****    0  
     3 RES3       72 GROUP             0 ****  ****    0  
@<TRIPOS>CRYSIN
   17.4819   19.1080   19.6398   90.0000   90.0000   90.0000    61     1
