@<TRIPOS>MOLECULE
IXAQEF04
    78    83     3     0     0
SMALL
USER_CHARGES
****
Generated from the CSD

@<TRIPOS>ATOM
     1 Fe1      5.4284   2.6267   2.9372   Fe        1 RES1   2.0000
     2 O1       4.4700   0.4572   4.3705   O.2       1 RES1   0.0000
     3 N1       6.8066   1.1908   2.5265   N.ar      1 RES1   0.0000
     4 N2       4.4240   2.2001   1.2206   N.ar      1 RES1   0.0000
     5 N3       4.3130   4.2709   3.3675   N.ar      1 RES1   0.0000
     6 N4       6.3421   3.9807   1.5582   N.3       1 RES1   0.0000
     7 N5       6.9579   3.3114   4.2496   N.3       1 RES1   0.0000
     8 N6       4.6162   1.5139   4.0085   N.2       1 RES1   0.0000
     9 C1       3.2881   1.4703   1.1389   C.ar      1 RES1   0.0000
    10 H1       2.8669   1.2085   1.9268   H         1 RES1   0.0000
    11 C2       2.7398   1.1041  -0.0507   C.ar      1 RES1   0.0000
    12 H2       1.9722   0.5786  -0.0761   H         1 RES1   0.0000
    13 C3       3.3316   1.5196  -1.2033   C.ar      1 RES1   0.0000
    14 H3       2.9678   1.2749  -2.0243   H         1 RES1   0.0000
    15 C4       4.4700   2.3012  -1.1643   C.ar      1 RES1   0.0000
    16 H4       4.8634   2.6104  -1.9483   H         1 RES1   0.0000
    17 C5       5.0096   2.6127   0.0712   C.ar      1 RES1   0.0000
    18 C6       6.3151   3.3408   0.2321   C.3       1 RES1   0.0000
    19 H5       7.0531   2.7166   0.1502   H         1 RES1   0.0000
    20 H6       6.4056   4.0124  -0.4603   H         1 RES1   0.0000
    21 C7       5.5387   5.2297   1.5147   C.3       1 RES1   0.0000
    22 H7       5.0026   5.2303   0.7060   H         1 RES1   0.0000
    23 H8       6.1410   5.9891   1.4705   H         1 RES1   0.0000
    24 C8       4.6319   5.3927   2.7034   C.ar      1 RES1   0.0000
    25 C9       4.1097   6.6190   3.0424   C.ar      1 RES1   0.0000
    26 H9       4.3464   7.3816   2.5665   H         1 RES1   0.0000
    27 C10      3.2167   6.6968   4.1130   C.ar      1 RES1   0.0000
    28 H10      2.8547   7.5144   4.3666   H         1 RES1   0.0000
    29 C11      2.8843   5.5490   4.7820   C.ar      1 RES1   0.0000
    30 H11      2.2890   5.5775   5.4977   H         1 RES1   0.0000
    31 C12      3.4395   4.3519   4.3861   C.ar      1 RES1   0.0000
    32 H12      3.2028   3.5760   4.8385   H         1 RES1   0.0000
    33 C13      7.7146   4.2032   2.0497   C.3       1 RES1   0.0000
    34 H13      8.1010   4.9780   1.6109   H         1 RES1   0.0000
    35 H14      8.2663   3.4319   1.8488   H         1 RES1   0.0000
    36 C14      7.6676   4.4297   3.5547   C.3       1 RES1   0.0000
    37 H15      8.5727   4.4999   3.8985   H         1 RES1   0.0000
    38 H16      7.2115   5.2645   3.7405   H         1 RES1   0.0000
    39 C15      7.8660   2.1693   4.4637   C.3       1 RES1   0.0000
    40 H17      7.5858   1.6884   5.2578   H         1 RES1   0.0000
    41 H18      8.7624   2.5061   4.6240   H         1 RES1   0.0000
    42 C16      7.9052   1.2200   3.3119   C.ar      1 RES1   0.0000
    43 C17      8.9748   0.3586   3.1241   C.ar      1 RES1   0.0000
    44 H19      9.7337   0.4250   3.6567   H         1 RES1   0.0000
    45 C18      8.8930  -0.5995   2.1355   C.ar      1 RES1   0.0000
    46 H20      9.5962  -1.1914   1.9931   H         1 RES1   0.0000
    47 C19      7.7529  -0.6716   1.3632   C.ar      1 RES1   0.0000
    48 H21      7.6728  -1.3242   0.7060   H         1 RES1   0.0000
    49 C20      6.7311   0.2337   1.5705   C.ar      1 RES1   0.0000
    50 H22      5.9704   0.1859   1.0395   H         1 RES1   0.0000
    51 C21      6.4420   3.7859   5.5899   C.3       1 RES1   0.0000
    52 H23      5.7720   3.1568   5.8994   H         1 RES1   0.0000
    53 H24      6.0018   4.6403   5.4626   H         1 RES1   0.0000
    54 C22      7.4876   3.9456   6.6838   C.ar      1 RES1   0.0000
    55 C23      8.3273   5.0520   6.7497   C.ar      1 RES1   0.0000
    56 H25      8.2437   5.7368   6.1257   H         1 RES1   0.0000
    57 C24      9.2916   5.1336   7.7463   C.ar      1 RES1   0.0000
    58 H26      9.8730   5.8601   7.7697   H         1 RES1   0.0000
    59 C25      9.3891   4.1395   8.7078   C.ar      1 RES1   0.0000
    60 H27     10.0261   4.2040   9.3826   H         1 RES1   0.0000
    61 C26      8.5536   3.0676   8.6610   C.ar      1 RES1   0.0000
    62 H28      8.6197   2.3998   9.3065   H         1 RES1   0.0000
    63 C27      7.5962   2.9633   7.6535   C.ar      1 RES1   0.0000
    64 H29      7.0253   2.2272   7.6312   H         1 RES1   0.0000
    65 P1       9.0582  -1.0597   6.7435   P.3       2 RES2  -1.0000
    66 F1       9.5544  -1.8053   5.4394   F         2 RES2   0.0000
    67 F2       9.7485   0.2794   6.2214   F         2 RES2   0.0000
    68 F3       7.7182  -0.6441   6.0223   F         2 RES2   0.0000
    69 F4       8.3534  -2.4000   7.2588   F         2 RES2   0.0000
    70 F5      10.3899  -1.4759   7.4811   F         2 RES2   0.0000
    71 F6       8.5918  -0.3183   8.0505   F         2 RES2   0.0000
    72 P2      11.9953   2.5093   1.5288   P.3       3 RES3  -1.0000
    73 F7      11.3699   1.0510   1.2922   F         3 RES3   0.0000
    74 F8      11.3560   3.1416   0.2945   F         3 RES3   0.0000
    75 F9      13.0740   2.0451   0.5363   F         3 RES3   0.0000
    76 F10     12.6963   1.9009   2.7654   F         3 RES3   0.0000
    77 F11     10.9678   2.9177   2.5802   F         3 RES3   0.0000
    78 F12     12.8286   3.8227   1.7806   F         3 RES3   0.0000
@<TRIPOS>BOND
     1     1     3    1
     2     2     8    2
     3     3    42   ar
     4     4     1    1
     5     5     1    1
     6     6     1    1
     7     7     1    1
     8     8     1    1
     9     9     4   ar
    10    10     9    1
    11    11     9   ar
    12    12    11    1
    13    13    11   ar
    14    14    13    1
    15    15    13   ar
    16    16    15    1
    17    17     4   ar
    18    18     6    1
    19    19    18    1
    20    20    18    1
    21    21     6    1
    22    22    21    1
    23    23    21    1
    24    24     5   ar
    25    25    24   ar
    26    26    25    1
    27    27    25   ar
    28    28    27    1
    29    29    27   ar
    30    30    29    1
    31    31     5   ar
    32    32    31    1
    33    33     6    1
    34    34    33    1
    35    35    33    1
    36    36     7    1
    37    37    36    1
    38    38    36    1
    39    39     7    1
    40    40    39    1
    41    41    39    1
    42    42    39    1
    43    43    42   ar
    44    44    43    1
    45    45    43   ar
    46    46    45    1
    47    47    45   ar
    48    48    47    1
    49    49     3   ar
    50    50    49    1
    51    51     7    1
    52    52    51    1
    53    53    51    1
    54    54    51    1
    55    55    54   ar
    56    56    55    1
    57    57    55   ar
    58    58    57    1
    59    59    57   ar
    60    60    59    1
    61    61    59   ar
    62    62    61    1
    63    63    54   ar
    64    64    63    1
    65    15    17   ar
    66    17    18    1
    67    21    24    1
    68    29    31   ar
    69    33    36    1
    70    47    49   ar
    71    61    63   ar
    72    65    66    1
    73    67    65    1
    74    68    65    1
    75    69    65    1
    76    70    65    1
    77    71    65    1
    78    72    73    1
    79    74    72    1
    80    75    72    1
    81    76    72    1
    82    77    72    1
    83    78    72    1
@<TRIPOS>SUBSTRUCTURE
     1 RES1        1 GROUP             0 ****  ****    0  
     2 RES2       65 GROUP             0 ****  ****    0  
     3 RES3       72 GROUP             0 ****  ****    0  
@<TRIPOS>CRYSIN
   17.4065   18.9710   19.5023   90.0000   90.0000   90.0000    61     1
