@<TRIPOS>MOLECULE
IXAQEF03
    78    83     3     0     0
SMALL
USER_CHARGES
****
Generated from the CSD

@<TRIPOS>ATOM
     1 Fe1     14.1225  16.3335  16.5280   Fe        1 RES1   2.0000
     2 O1      13.1878  18.5187  15.1167   O.2       1 RES1   0.0000
     3 N1      13.1041  16.7623  18.2221   N.ar      1 RES1   0.0000
     4 N2      15.0254  14.9861  17.8987   N.3       1 RES1   0.0000
     5 N3      12.9996  14.7042  16.0984   N.ar      1 RES1   0.0000
     6 N4      15.6286  15.6459  15.2153   N.3       1 RES1   0.0000
     7 N5      15.4826  17.7711  16.9372   N.ar      1 RES1   0.0000
     8 N6      13.3179  17.4458  15.4580   N.2       1 RES1   0.0000
     9 C1      11.9689  17.4911  18.2886   C.ar      1 RES1   0.0000
    10 H1      11.5504  17.7452  17.4971   H         1 RES1   0.0000
    11 C2      11.4132  17.8646  19.4827   C.ar      1 RES1   0.0000
    12 H2      10.6457  18.3878  19.5002   H         1 RES1   0.0000
    13 C3      11.9984  17.4608  20.6437   C.ar      1 RES1   0.0000
    14 H3      11.6337  17.7110  21.4605   H         1 RES1   0.0000
    15 C4      13.1409  16.6778  20.6068   C.ar      1 RES1   0.0000
    16 H4      13.5316  16.3707  21.3925   H         1 RES1   0.0000
    17 C5      13.6879  16.3614  19.3742   C.ar      1 RES1   0.0000
    18 C6      14.9902  15.6298  19.2330   C.3       1 RES1   0.0000
    19 H5      15.7299  16.2493  19.3213   H         1 RES1   0.0000
    20 H6      15.0700  14.9583  19.9281   H         1 RES1   0.0000
    21 C7      14.2210  13.7354  17.9463   C.3       1 RES1   0.0000
    22 H7      14.8217  12.9752  17.9852   H         1 RES1   0.0000
    23 H8      13.6879  13.7335  18.7573   H         1 RES1   0.0000
    24 C8      13.3102  13.5775  16.7604   C.ar      1 RES1   0.0000
    25 C9      12.7798  12.3553  16.4080   C.ar      1 RES1   0.0000
    26 H9      13.0072  11.5893  16.8825   H         1 RES1   0.0000
    27 C10     11.9011  12.2832  15.3365   C.ar      1 RES1   0.0000
    28 H10     11.5435  11.4661  15.0720   H         1 RES1   0.0000
    29 C11     11.5678  13.4397  14.6733   C.ar      1 RES1   0.0000
    30 H11     10.9704  13.4169  13.9615   H         1 RES1   0.0000
    31 C12     12.1304  14.6379  15.0780   C.ar      1 RES1   0.0000
    32 H12     11.8994  15.4189  14.6286   H         1 RES1   0.0000
    33 C13     16.3973  14.7590  17.4142   C.3       1 RES1   0.0000
    34 H13     16.7821  13.9857  17.8569   H         1 RES1   0.0000
    35 H14     16.9505  15.5308  17.6118   H         1 RES1   0.0000
    36 C14     16.3452  14.5266  15.9164   C.3       1 RES1   0.0000
    37 H15     17.2492  14.4559  15.5698   H         1 RES1   0.0000
    38 H16     15.8896  13.6899  15.7371   H         1 RES1   0.0000
    39 C15     16.5373  16.7938  14.9955   C.3       1 RES1   0.0000
    40 H17     16.2508  17.2750  14.2046   H         1 RES1   0.0000
    41 H18     17.4333  16.4579  14.8289   H         1 RES1   0.0000
    42 C16     16.5836  17.7398  16.1468   C.ar      1 RES1   0.0000
    43 C17     17.6416  18.6102  16.3304   C.ar      1 RES1   0.0000
    44 H19     18.4022  18.5490  15.7993   H         1 RES1   0.0000
    45 C18     17.5496  19.5728  17.3191   C.ar      1 RES1   0.0000
    46 H20     18.2494  20.1718  17.4582   H         1 RES1   0.0000
    47 C19     16.4192  19.6412  18.0928   C.ar      1 RES1   0.0000
    48 H21     16.3376  20.2951  18.7476   H         1 RES1   0.0000
    49 C20     15.4069  18.7287  17.8890   C.ar      1 RES1   0.0000
    50 H22     14.6464  18.7727  18.4228   H         1 RES1   0.0000
    51 C21     15.1114  15.1657  13.8785   C.3       1 RES1   0.0000
    52 H23     14.4328  15.7867  13.5725   H         1 RES1   0.0000
    53 H24     14.6811  14.3061  14.0082   H         1 RES1   0.0000
    54 C22     16.1530  15.0182  12.7847   C.ar      1 RES1   0.0000
    55 C23     17.0009  13.9100  12.7184   C.ar      1 RES1   0.0000
    56 H25     16.9210  13.2236  13.3411   H         1 RES1   0.0000
    57 C24     17.9681  13.8359  11.7172   C.ar      1 RES1   0.0000
    58 H26     18.5550  13.1136  11.6900   H         1 RES1   0.0000
    59 C25     18.0601  14.8350  10.7626   C.ar      1 RES1   0.0000
    60 H27     18.7008  14.7763  10.0914   H         1 RES1   0.0000
    61 C26     17.2075  15.9119  10.8030   C.ar      1 RES1   0.0000
    62 H28     17.2596  16.5754  10.1536   H         1 RES1   0.0000
    63 C27     16.2647  16.0014  11.8199   C.ar      1 RES1   0.0000
    64 H29     15.6986  16.7385  11.8514   H         1 RES1   0.0000
    65 P1      17.0124  10.5392  16.4465   P.3       2 RES2  -1.0000
    66 F1      17.4906   9.7923  17.7524   F         2 RES2   0.0000
    67 F2      17.7180  11.8815  16.9619   F         2 RES2   0.0000
    68 F3      15.6741  10.9523  17.1937   F         2 RES2   0.0000
    69 F4      16.3199   9.1975  15.9302   F         2 RES2   0.0000
    70 F5      18.3480  10.1238  15.7139   F         2 RES2   0.0000
    71 F6      16.5060  11.2936  15.1492   F         2 RES2   0.0000
    72 P2      11.9873  16.4634  11.2542   P.3       3 RES3  -1.0000
    73 F7      12.8023  15.1300  11.5113   F         3 RES3   0.0000
    74 F8      12.6999  17.0797  12.4874   F         3 RES3   0.0000
    75 F9      10.9427  16.0465  12.2987   F         3 RES3   0.0000
    76 F10     11.3056  15.8209  10.0331   F         3 RES3   0.0000
    77 F11     13.0819  16.9205  10.2626   F         3 RES3   0.0000
    78 F12     11.3386  17.9101  11.0125   F         3 RES3   0.0000
@<TRIPOS>BOND
     1     1     3    1
     2     2     8    2
     3     3     9   ar
     4     4     1    1
     5     5     1    1
     6     6     1    1
     7     7     1    1
     8     8     1    1
     9     9    10    1
    10    11     9   ar
    11    12    11    1
    12    13    11   ar
    13    14    13    1
    14    15    13   ar
    15    16    15    1
    16    17     3   ar
    17    18     4    1
    18    19    18    1
    19    20    18    1
    20    21     4    1
    21    22    21    1
    22    23    21    1
    23    24     5   ar
    24    25    24   ar
    25    26    25    1
    26    27    25   ar
    27    28    27    1
    28    29    27   ar
    29    30    29    1
    30    31     5   ar
    31    32    31    1
    32    33     4    1
    33    34    33    1
    34    35    33    1
    35    36     6    1
    36    37    36    1
    37    38    36    1
    38    39     6    1
    39    40    39    1
    40    41    39    1
    41    42     7   ar
    42    43    42   ar
    43    44    43    1
    44    45    43   ar
    45    46    45    1
    46    47    45   ar
    47    48    47    1
    48    49     7   ar
    49    50    49    1
    50    51     6    1
    51    52    51    1
    52    53    51    1
    53    54    51    1
    54    55    54   ar
    55    56    55    1
    56    57    55   ar
    57    58    57    1
    58    59    57   ar
    59    60    59    1
    60    61    59   ar
    61    62    61    1
    62    63    54   ar
    63    64    63    1
    64    15    17   ar
    65    17    18    1
    66    21    24    1
    67    29    31   ar
    68    33    36    1
    69    39    42    1
    70    47    49   ar
    71    61    63   ar
    72    65    66    1
    73    67    65    1
    74    68    65    1
    75    69    65    1
    76    70    65    1
    77    71    65    1
    78    72    73    1
    79    74    72    1
    80    75    72    1
    81    76    72    1
    82    77    72    1
    83    78    72    1
@<TRIPOS>SUBSTRUCTURE
     1 RES1        1 GROUP             0 ****  ****    0  
     2 RES2       65 GROUP             0 ****  ****    0  
     3 RES3       72 GROUP             0 ****  ****    0  
@<TRIPOS>CRYSIN
   17.3638   18.9585   19.4477   90.0000   90.0000   90.0000    61     1
