@<TRIPOS>MOLECULE
IXAQEF
    78    83     3     0     0
SMALL
USER_CHARGES
****
Generated from the CSD

@<TRIPOS>ATOM
     1 Fe1     11.7164  11.9759   6.7736   Fe        1 RES1   2.0000
     2 O1      12.6041   9.7381   5.4111   O.2       1 RES1   0.0000
     3 N1      12.7554  11.5180   8.4125   N.ar      1 RES1   0.0000
     4 N2      10.8531  13.3015   8.1547   N.3       1 RES1   0.0000
     5 N3      12.8453  13.5523   6.3400   N.ar      1 RES1   0.0000
     6 N4      10.2447  12.6822   5.4780   N.3       1 RES1   0.0000
     7 N5      10.3793  10.5554   7.1753   N.ar      1 RES1   0.0000
     8 N6      12.4944  10.8692   5.6910   N.2       1 RES1   0.0000
     9 C1      13.8937  10.7846   8.4422   C.ar      1 RES1   0.0000
    10 H1      14.2933  10.5439   7.6385   H         1 RES1   0.0000
    11 C2      14.4785  10.3859   9.6180   C.ar      1 RES1   0.0000
    12 H2      15.2467   9.8594   9.6064   H         1 RES1   0.0000
    13 C3      13.9109  10.7771  10.8207   C.ar      1 RES1   0.0000
    14 H3      14.2898  10.5157  11.6283   H         1 RES1   0.0000
    15 C4      12.7722  11.5594  10.7995   C.ar      1 RES1   0.0000
    16 H4      12.3949  11.8584  11.5955   H         1 RES1   0.0000
    17 C5      12.1960  11.8960   9.5814   C.ar      1 RES1   0.0000
    18 C6      10.8927  12.6425   9.4796   C.3       1 RES1   0.0000
    19 H5      10.1485  12.0276   9.5698   H         1 RES1   0.0000
    20 H6      10.8327  13.3063  10.1846   H         1 RES1   0.0000
    21 C7      11.6764  14.5456   8.2109   C.3       1 RES1   0.0000
    22 H7      12.2235  14.5287   9.0128   H         1 RES1   0.0000
    23 H8      11.0882  15.3147   8.2688   H         1 RES1   0.0000
    24 C8      12.5699  14.6960   7.0069   C.ar      1 RES1   0.0000
    25 C9      13.1100  15.9108   6.6381   C.ar      1 RES1   0.0000
    26 H9      12.9025  16.6799   7.1161   H         1 RES1   0.0000
    27 C10     13.9709  15.9729   5.5395   C.ar      1 RES1   0.0000
    28 H10     14.3310  16.7853   5.2639   H         1 RES1   0.0000
    29 C11     14.2796  14.7976   4.8745   C.ar      1 RES1   0.0000
    30 H11     14.8575  14.8051   4.1459   H         1 RES1   0.0000
    31 C12     13.7154  13.6185   5.3082   C.ar      1 RES1   0.0000
    32 H12     13.9434  12.8306   4.8687   H         1 RES1   0.0000
    33 C13      9.4763  13.5508   7.6718   C.3       1 RES1   0.0000
    34 H13      9.0973  14.3218   8.1223   H         1 RES1   0.0000
    35 H14      8.9138  12.7817   7.8544   H         1 RES1   0.0000
    36 C14      9.5483  13.8028   6.1815   C.3       1 RES1   0.0000
    37 H15      8.6514  13.8968   5.8267   H         1 RES1   0.0000
    38 H16     10.0250  14.6302   6.0175   H         1 RES1   0.0000
    39 C15      9.3339  11.5368   5.2434   C.3       1 RES1   0.0000
    40 H17      9.6237  11.0610   4.4486   H         1 RES1   0.0000
    41 H18      8.4388  11.8753   5.0769   H         1 RES1   0.0000
    42 C16      9.2842  10.5872   6.3835   C.ar      1 RES1   0.0000
    43 C17      8.2347   9.7014   6.5635   C.ar      1 RES1   0.0000
    44 H19      7.4665   9.7767   6.0426   H         1 RES1   0.0000
    45 C18      8.3307   8.7067   7.5209   C.ar      1 RES1   0.0000
    46 H20      7.6431   8.0936   7.6404   H         1 RES1   0.0000
    47 C19      9.4780   8.6446   8.2957   C.ar      1 RES1   0.0000
    48 H21      9.5757   7.9789   8.9376   H         1 RES1   0.0000
    49 C20     10.4692   9.5773   8.1076   C.ar      1 RES1   0.0000
    50 H22     11.2288   9.5360   8.6408   H         1 RES1   0.0000
    51 C21     10.7761  13.1653   4.1461   C.3       1 RES1   0.0000
    52 H23     11.4672  12.5542   3.8491   H         1 RES1   0.0000
    53 H24     11.1911  14.0322   4.2770   H         1 RES1   0.0000
    54 C22      9.7403  13.2913   3.0427   C.ar      1 RES1   0.0000
    55 C23      8.8521  14.3651   2.9625   C.ar      1 RES1   0.0000
    56 H25      8.8984  15.0496   3.5908   H         1 RES1   0.0000
    57 C24      7.9020  14.4215   1.9525   C.ar      1 RES1   0.0000
    58 H26      7.3087  15.1361   1.9120   H         1 RES1   0.0000
    59 C25      7.8317  13.4154   1.0061   C.ar      1 RES1   0.0000
    60 H27      7.1818  13.4455   0.3412   H         1 RES1   0.0000
    61 C26      8.7303  12.3642   1.0524   C.ar      1 RES1   0.0000
    62 H28      8.7046  11.7023   0.3990   H         1 RES1   0.0000
    63 C27      9.6683  12.2984   2.0705   C.ar      1 RES1   0.0000
    64 H29     10.2582  11.5801   2.1048   H         1 RES1   0.0000
    65 P1       8.9102  10.4730  16.2783   P.3       2 RES2  -1.0000
    66 F1       8.4199   9.7172  17.5882   F         2 RES2   0.0000
    67 F2       8.1852  11.8179  16.7788   F         2 RES2   0.0000
    68 F3      10.2481  10.9095  17.0385   F         2 RES2   0.0000
    69 F4       9.6325   9.1358  15.7696   F         2 RES2   0.0000
    70 F5       7.5681  10.0456  15.5223   F         2 RES2   0.0000
    71 F6       9.4128  11.2403  14.9624   F         2 RES2   0.0000
    72 P2      11.9225   6.9349  11.1684   P.3       3 RES3  -1.0000
    73 F7      12.7010   5.5644  11.4581   F         3 RES3   0.0000
    74 F8      12.6714   7.6267  12.3902   F         3 RES3   0.0000
    75 F9      10.7538   6.4719  12.1493   F         3 RES3   0.0000
    76 F10     11.1808   6.2395   9.9429   F         3 RES3   0.0000
    77 F11     13.0850   7.3978  10.1835   F         3 RES3   0.0000
    78 F12     11.1554   8.3150  10.8785   F         3 RES3   0.0000
@<TRIPOS>BOND
     1     1     3    1
     2     2     8    2
     3     3     9   ar
     4     4     1    1
     5     5     1    1
     6     6     1    1
     7     7     1    1
     8     8     1    1
     9     9    10    1
    10    11     9   ar
    11    12    11    1
    12    13    11   ar
    13    14    13    1
    14    15    13   ar
    15    16    15    1
    16    17     3   ar
    17    18     4    1
    18    19    18    1
    19    20    18    1
    20    21     4    1
    21    22    21    1
    22    23    21    1
    23    24     5   ar
    24    25    24   ar
    25    26    25    1
    26    27    25   ar
    27    28    27    1
    28    29    27   ar
    29    30    29    1
    30    31     5   ar
    31    32    31    1
    32    33     4    1
    33    34    33    1
    34    35    33    1
    35    36     6    1
    36    37    36    1
    37    38    36    1
    38    39     6    1
    39    40    39    1
    40    41    39    1
    41    42     7   ar
    42    43    42   ar
    43    44    43    1
    44    45    43   ar
    45    46    45    1
    46    47    45   ar
    47    48    47    1
    48    49     7   ar
    49    50    49    1
    50    51     6    1
    51    52    51    1
    52    53    51    1
    53    54    51    1
    54    55    54   ar
    55    56    55    1
    56    57    55   ar
    57    58    57    1
    58    59    57   ar
    59    60    59    1
    60    61    59   ar
    61    62    61    1
    62    63    54   ar
    63    64    63    1
    64    15    17   ar
    65    17    18    1
    66    21    24    1
    67    29    31   ar
    68    33    36    1
    69    39    42    1
    70    47    49   ar
    71    61    63   ar
    72    65    66    1
    73    67    65    1
    74    68    65    1
    75    69    65    1
    76    70    65    1
    77    71    65    1
    78    72    73    1
    79    74    72    1
    80    75    72    1
    81    76    72    1
    82    77    72    1
    83    78    72    1
@<TRIPOS>SUBSTRUCTURE
     1 RES1        1 GROUP             0 ****  ****    0  
     2 RES2       65 GROUP             0 ****  ****    0  
     3 RES3       72 GROUP             0 ****  ****    0  
@<TRIPOS>CRYSIN
   17.1485   18.8049   19.2745   90.0000   90.0000   90.0000    61     1
