@<TRIPOS>MOLECULE
IXAQEF01
    78    83     3     0     0
SMALL
USER_CHARGES
****
Generated from the CSD

@<TRIPOS>ATOM
     1 Fe1      5.4565   2.6002   2.8806   Fe        1 RES1   2.0000
     2 O1       4.5555   0.3820   4.2597   O.2       1 RES1   0.0000
     3 N1       4.4215   2.1566   1.2295   N.ar      1 RES1   0.0000
     4 N2       6.3351   3.9304   1.5054   N.3       1 RES1   0.0000
     5 N3       4.3293   4.1936   3.3134   N.ar      1 RES1   0.0000
     6 N4       6.9271   3.2928   4.1845   N.3       1 RES1   0.0000
     7 N5       6.7872   1.1741   2.4768   N.ar      1 RES1   0.0000
     8 N6       4.6627   1.4950   3.9615   N.2       1 RES1   0.0000
     9 C1       3.2828   1.4310   1.1928   C.ar      1 RES1   0.0000
    10 H1       2.8782   1.1867   1.9944   H         1 RES1   0.0000
    11 C2       2.7044   1.0429   0.0089   C.ar      1 RES1   0.0000
    12 H2       1.9343   0.5207   0.0116   H         1 RES1   0.0000
    13 C3       3.2764   1.4335  -1.1794   C.ar      1 RES1   0.0000
    14 H3       2.8989   1.1754  -1.9886   H         1 RES1   0.0000
    15 C4       4.4173   2.2151  -1.1591   C.ar      1 RES1   0.0000
    16 H4       4.7987   2.5149  -1.9518   H         1 RES1   0.0000
    17 C5       4.9831   2.5443   0.0627   C.ar      1 RES1   0.0000
    18 C6       6.2906   3.2750   0.1809   C.3       1 RES1   0.0000
    19 H5       7.0298   2.6526   0.0929   H         1 RES1   0.0000
    20 H6       6.3654   3.9393  -0.5223   H         1 RES1   0.0000
    21 C7       5.5237   5.1786   1.4562   C.3       1 RES1   0.0000
    22 H7       4.9868   5.1769   0.6500   H         1 RES1   0.0000
    23 H8       6.1187   5.9429   1.4140   H         1 RES1   0.0000
    24 C8       4.6208   5.3228   2.6486   C.ar      1 RES1   0.0000
    25 C9       4.0817   6.5457   3.0126   C.ar      1 RES1   0.0000
    26 H9       4.3034   7.3164   2.5437   H         1 RES1   0.0000
    27 C10      3.2055   6.6040   4.0891   C.ar      1 RES1   0.0000
    28 H10      2.8368   7.4164   4.3563   H         1 RES1   0.0000
    29 C11      2.8892   5.4345   4.7594   C.ar      1 RES1   0.0000
    30 H11      2.3053   5.4486   5.4821   H         1 RES1   0.0000
    31 C12      3.4517   4.2474   4.3398   C.ar      1 RES1   0.0000
    32 H12      3.2198   3.4601   4.7760   H         1 RES1   0.0000
    33 C13      7.7143   4.1646   1.9919   C.3       1 RES1   0.0000
    34 H13      8.0979   4.9355   1.5456   H         1 RES1   0.0000
    35 H14      8.2704   3.3922   1.8029   H         1 RES1   0.0000
    36 C14      7.6501   4.4055   3.4839   C.3       1 RES1   0.0000
    37 H15      8.5500   4.4770   3.8378   H         1 RES1   0.0000
    38 H16      7.1937   5.2449   3.6541   H         1 RES1   0.0000
    39 C15      7.8415   2.1391   4.4193   C.3       1 RES1   0.0000
    40 H17      8.7363   2.4734   4.5845   H         1 RES1   0.0000
    41 H18      7.5526   1.6621   5.2132   H         1 RES1   0.0000
    42 C16      7.8794   1.1925   3.2707   C.ar      1 RES1   0.0000
    43 C17      8.9353   0.3102   3.0966   C.ar      1 RES1   0.0000
    44 H19      9.6974   0.3736   3.6270   H         1 RES1   0.0000
    45 C18      8.8338  -0.6641   2.1211   C.ar      1 RES1   0.0000
    46 H20      9.5249  -1.2735   1.9905   H         1 RES1   0.0000
    47 C19      7.6939  -0.7248   1.3403   C.ar      1 RES1   0.0000
    48 H21      7.6009  -1.3848   0.6925   H         1 RES1   0.0000
    49 C20      6.7017   0.2041   1.5361   C.ar      1 RES1   0.0000
    50 H22      5.9410   0.1660   1.0020   H         1 RES1   0.0000
    51 C21      6.4070   3.7776   5.5190   C.3       1 RES1   0.0000
    52 H23      5.7218   3.1620   5.8225   H         1 RES1   0.0000
    53 H24      5.9858   4.6411   5.3873   H         1 RES1   0.0000
    54 C22      7.4451   3.9148   6.6174   C.ar      1 RES1   0.0000
    55 C23      8.3161   5.0026   6.6878   C.ar      1 RES1   0.0000
    56 H25      8.2566   5.6863   6.0585   H         1 RES1   0.0000
    57 C24      9.2723   5.0686   7.6947   C.ar      1 RES1   0.0000
    58 H26      9.8596   5.7882   7.7299   H         1 RES1   0.0000
    59 C25      9.3509   4.0616   8.6473   C.ar      1 RES1   0.0000
    60 H27      9.9977   4.1034   9.3141   H         1 RES1   0.0000
    61 C26      8.4732   3.0022   8.6052   C.ar      1 RES1   0.0000
    62 H28      8.5120   2.3375   9.2561   H         1 RES1   0.0000
    63 C27      7.5300   2.9271   7.5916   C.ar      1 RES1   0.0000
    64 H29      6.9452   2.2055   7.5635   H         1 RES1   0.0000
    65 P1       8.9730  -1.0633   6.6820   P.3       2 RES2  -1.0000
    66 F1       9.4895  -1.8238   5.3788   F         2 RES2   0.0000
    67 F2       9.6755   0.2785   6.1671   F         2 RES2   0.0000
    68 F3       7.6328  -0.6550   5.9233   F         2 RES2   0.0000
    69 F4       8.2618  -2.4089   7.1907   F         2 RES2   0.0000
    70 F5      10.3117  -1.4744   7.4517   F         2 RES2   0.0000
    71 F6       8.4685  -0.3111   7.9844   F         2 RES2   0.0000
    72 P2       3.3366   2.4713   8.1351   P.3       3 RES3  -1.0000
    73 F7       2.6092   1.0707   8.4017   F         3 RES3   0.0000
    74 F8       2.2106   2.9201   7.1302   F         3 RES3   0.0000
    75 F9       4.0905   1.8108   6.9174   F         3 RES3   0.0000
    76 F10      4.4889   2.0153   9.1153   F         3 RES3   0.0000
    77 F11      2.6211   3.1637   9.3606   F         3 RES3   0.0000
    78 F12      4.1280   3.8346   7.8678   F         3 RES3   0.0000
@<TRIPOS>BOND
     1     1     3    1
     2     2     8    2
     3     3     9   ar
     4     4     1    1
     5     5     1    1
     6     6     1    1
     7     7     1    1
     8     8     1    1
     9     9    10    1
    10    11     9   ar
    11    12    11    1
    12    13    11   ar
    13    14    13    1
    14    15    13   ar
    15    16    15    1
    16    17     3   ar
    17    18     4    1
    18    19    18    1
    19    20    18    1
    20    21     4    1
    21    22    21    1
    22    23    21    1
    23    24     5   ar
    24    25    24   ar
    25    26    25    1
    26    27    25   ar
    27    28    27    1
    28    29    27   ar
    29    30    29    1
    30    31     5   ar
    31    32    31    1
    32    33     4    1
    33    34    33    1
    34    35    33    1
    35    36     6    1
    36    37    36    1
    37    38    36    1
    38    39     6    1
    39    40    39    1
    40    41    39    1
    41    42     7   ar
    42    43    42   ar
    43    44    43    1
    44    45    43   ar
    45    46    45    1
    46    47    45   ar
    47    48    47    1
    48    49     7   ar
    49    50    49    1
    50    51     6    1
    51    52    51    1
    52    53    51    1
    53    54    51    1
    54    55    54   ar
    55    56    55    1
    56    57    55   ar
    57    58    57    1
    58    59    57   ar
    59    60    59    1
    60    61    59   ar
    61    62    61    1
    62    63    54   ar
    63    64    63    1
    64    15    17   ar
    65    17    18    1
    66    21    24    1
    67    29    31   ar
    68    33    36    1
    69    39    42    1
    70    47    49   ar
    71    61    63   ar
    72    65    66    1
    73    67    65    1
    74    68    65    1
    75    69    65    1
    76    70    65    1
    77    71    65    1
    78    72    73    1
    79    74    72    1
    80    75    72    1
    81    76    72    1
    82    77    72    1
    83    78    72    1
@<TRIPOS>SUBSTRUCTURE
     1 RES1        1 GROUP             0 ****  ****    0  
     2 RES2       65 GROUP             0 ****  ****    0  
     3 RES3       72 GROUP             0 ****  ****    0  
@<TRIPOS>CRYSIN
   17.2552   18.8664   19.3440   90.0000   90.0000   90.0000    61     1
