@<TRIPOS>MOLECULE
IXAQEF02
    78    83     3     0     0
SMALL
USER_CHARGES
****
Generated from the CSD

@<TRIPOS>ATOM
     1 Fe1      5.4545   2.6287  12.6397   Fe        1 RES1   2.0000
     2 O1       4.5398   0.4269  14.0404   O.2       1 RES1   0.0000
     3 N1       4.4272   2.1952  10.9655   N.ar      1 RES1   0.0000
     4 N2       6.3471   3.9673  11.2664   N.3       1 RES1   0.0000
     5 N3       4.3290   4.2421  13.0708   N.ar      1 RES1   0.0000
     6 N4       6.9440   3.3126  13.9554   N.3       1 RES1   0.0000
     7 N5       6.7993   1.1969  12.2286   N.ar      1 RES1   0.0000
     8 N6       4.6504   1.5174  13.7183   N.2       1 RES1   0.0000
     9 C1       3.2907   1.4602  10.9081   C.ar      1 RES1   0.0000
    10 H1       2.8825   1.2007  11.7018   H         1 RES1   0.0000
    11 C2       2.7263   1.0909   9.7175   C.ar      1 RES1   0.0000
    12 H2       1.9523   0.5757   9.7077   H         1 RES1   0.0000
    13 C3       3.3059   1.4848   8.5444   C.ar      1 RES1   0.0000
    14 H3       2.9328   1.2272   7.7331   H         1 RES1   0.0000
    15 C4       4.4513   2.2670   8.5681   C.ar      1 RES1   0.0000
    16 H4       4.8366   2.5700   7.7779   H         1 RES1   0.0000
    17 C5       5.0101   2.5904   9.7998   C.ar      1 RES1   0.0000
    18 C6       6.3047   3.3196   9.9315   C.3       1 RES1   0.0000
    19 H5       7.0457   2.6988   9.8400   H         1 RES1   0.0000
    20 H6       6.3811   3.9904   9.2350   H         1 RES1   0.0000
    21 C7       5.5394   5.2195  11.2149   C.3       1 RES1   0.0000
    22 H7       5.0049   5.2176  10.4062   H         1 RES1   0.0000
    23 H8       6.1398   5.9809  11.1727   H         1 RES1   0.0000
    24 C8       4.6316   5.3727  12.4072   C.ar      1 RES1   0.0000
    25 C9       4.0955   6.5918  12.7601   C.ar      1 RES1   0.0000
    26 H9       4.3159   7.3596  12.2835   H         1 RES1   0.0000
    27 C10      3.2174   6.6589  13.8360   C.ar      1 RES1   0.0000
    28 H10      2.8617   7.4751  14.1064   H         1 RES1   0.0000
    29 C11      2.8842   5.4998  14.4955   C.ar      1 RES1   0.0000
    30 H11      2.2838   5.5188  15.2056   H         1 RES1   0.0000
    31 C12      3.4503   4.3061  14.0945   C.ar      1 RES1   0.0000
    32 H12      3.2192   3.5245  14.5422   H         1 RES1   0.0000
    33 C13      7.7231   4.1980  11.7526   C.3       1 RES1   0.0000
    34 H13      8.1061   4.9733  11.3108   H         1 RES1   0.0000
    35 H14      8.2796   3.4279  11.5559   H         1 RES1   0.0000
    36 C14      7.6673   4.4290  13.2582   C.3       1 RES1   0.0000
    37 H15      8.5694   4.4942  13.6064   H         1 RES1   0.0000
    38 H16      7.2141   5.2669  13.4391   H         1 RES1   0.0000
    39 C15      7.8499   2.1624  14.1826   C.3       1 RES1   0.0000
    40 H17      7.5559   1.6799  14.9721   H         1 RES1   0.0000
    41 H18      8.7447   2.4942  14.3535   H         1 RES1   0.0000
    42 C16      7.8947   1.2180  13.0222   C.ar      1 RES1   0.0000
    43 C17      8.9496   0.3396  12.8434   C.ar      1 RES1   0.0000
    44 H19      9.7096   0.3977  13.3768   H         1 RES1   0.0000
    45 C18      8.8540  -0.6269  11.8569   C.ar      1 RES1   0.0000
    46 H20      9.5482  -1.2310  11.7232   H         1 RES1   0.0000
    47 C19      7.7243  -0.6871  11.0781   C.ar      1 RES1   0.0000
    48 H21      7.6375  -1.3409  10.4217   H         1 RES1   0.0000
    49 C20      6.7229   0.2311  11.2834   C.ar      1 RES1   0.0000
    50 H22      5.9628   0.1875  10.7505   H         1 RES1   0.0000
    51 C21      6.4277   3.7948  15.2915   C.3       1 RES1   0.0000
    52 H23      5.7476   3.1760  15.5966   H         1 RES1   0.0000
    53 H24      5.9993   4.6552  15.1608   H         1 RES1   0.0000
    54 C22      7.4655   3.9414  16.3888   C.ar      1 RES1   0.0000
    55 C23      8.3230   5.0425  16.4565   C.ar      1 RES1   0.0000
    56 H25      8.2536   5.7252  15.8300   H         1 RES1   0.0000
    57 C24      9.2827   5.1173  17.4619   C.ar      1 RES1   0.0000
    58 H26      9.8657   5.8426  17.4934   H         1 RES1   0.0000
    59 C25      9.3729   4.1135  18.4194   C.ar      1 RES1   0.0000
    60 H27     10.0115   4.1684  19.0925   H         1 RES1   0.0000
    61 C26      8.5156   3.0416  18.3712   C.ar      1 RES1   0.0000
    62 H28      8.5677   2.3730  19.0167   H         1 RES1   0.0000
    63 C27      7.5698   2.9565  17.3584   C.ar      1 RES1   0.0000
    64 H29      6.9971   2.2253  17.3300   H         1 RES1   0.0000
    65 P1       8.3327   8.4156  12.7273   P.3       2 RES2  -1.0000
    66 F1       8.8177   9.1607  11.4225   F         2 RES2   0.0000
    67 F2       6.9964   7.9969  11.9728   F         2 RES2   0.0000
    68 F3       7.6380   9.7575  13.2477   F         2 RES2   0.0000
    69 F4       9.6693   8.8251  13.4681   F         2 RES2   0.0000
    70 F5       9.0350   7.0710  12.2104   F         2 RES2   0.0000
    71 F6       7.8249   7.6594  14.0332   F         2 RES2   0.0000
    72 P2       3.3177   2.4848  17.9173   P.3       3 RES3  -1.0000
    73 F7       2.2439   2.9033  16.8767   F         3 RES3   0.0000
    74 F8       4.0487   1.8503  16.6925   F         3 RES3   0.0000
    75 F9       2.6447   1.0437  18.1630   F         3 RES3   0.0000
    76 F10      2.6257   3.1476  19.1392   F         3 RES3   0.0000
    77 F11      4.1250   3.8298  17.6545   F         3 RES3   0.0000
    78 F12      4.4392   2.0302  18.8941   F         3 RES3   0.0000
@<TRIPOS>BOND
     1     1     3    1
     2     2     8    2
     3     3     9   ar
     4     4     1    1
     5     5     1    1
     6     6     1    1
     7     7     1    1
     8     8     1    1
     9     9    10    1
    10    11     9   ar
    11    12    11    1
    12    13    11   ar
    13    14    13    1
    14    15    13   ar
    15    16    15    1
    16    17     3   ar
    17    18     4    1
    18    19    18    1
    19    20    18    1
    20    21     4    1
    21    22    21    1
    22    23    21    1
    23    24     5   ar
    24    25    24   ar
    25    26    25    1
    26    27    25   ar
    27    28    27    1
    28    29    27   ar
    29    30    29    1
    30    31     5   ar
    31    32    31    1
    32    33     4    1
    33    34    33    1
    34    35    33    1
    35    36     6    1
    36    37    36    1
    37    38    36    1
    38    39     6    1
    39    40    39    1
    40    41    39    1
    41    42     7   ar
    42    43    42   ar
    43    44    43    1
    44    45    43   ar
    45    46    45    1
    46    47    45   ar
    47    48    47    1
    48    49     7   ar
    49    50    49    1
    50    51     6    1
    51    52    51    1
    52    53    51    1
    53    54    51    1
    54    55    54   ar
    55    56    55    1
    56    57    55   ar
    57    58    57    1
    58    59    57   ar
    59    60    59    1
    60    61    59   ar
    61    62    61    1
    62    63    54   ar
    63    64    63    1
    64    15    17   ar
    65    17    18    1
    66    21    24    1
    67    29    31   ar
    68    33    36    1
    69    39    42    1
    70    47    49   ar
    71    61    63   ar
    72    65    66    1
    73    67    65    1
    74    68    65    1
    75    69    65    1
    76    70    65    1
    77    71    65    1
    78    72    73    1
    79    74    72    1
    80    75    72    1
    81    76    72    1
    82    77    72    1
    83    78    72    1
@<TRIPOS>SUBSTRUCTURE
     1 RES1        1 GROUP             0 ****  ****    0  
     2 RES2       65 GROUP             0 ****  ****    0  
     3 RES3       72 GROUP             0 ****  ****    0  
@<TRIPOS>CRYSIN
   17.3540   18.9388   19.4544   90.0000   90.0000   90.0000    61     1
