@<TRIPOS>MOLECULE
IXUZUY01
    92    94     7     0     0
SMALL
USER_CHARGES
****
Generated from the CSD

@<TRIPOS>ATOM
     1 H1       8.9566   0.3086  13.7570   H         1 RES1   0.0000
     2 O1       8.5542   1.0679  13.6872   O.3       1 RES1   0.0000
     3 H2       8.5885   0.9330  14.5391   H         1 RES1   0.0000
     4 H1A      9.2044  -0.1098  14.1760   H         2 RES2   0.0000
     5 O1A      9.6068  -0.8691  14.2458   O.3       2 RES2   0.0000
     6 H2A      9.5726  -0.7343  13.3939   H         2 RES2   0.0000
     7 Fe1      5.8500   4.2385   3.5587   Fe        3 RES3   2.0000
     8 N1       5.8227   2.9998   5.2095   N.ar      3 RES3   0.0000
     9 N2       4.0196   3.3020   3.2682   N.2       3 RES3   0.0000
    10 N3       2.6511   1.5762   3.8827   N.2       3 RES3   0.0000
    11 N4       6.8932   2.9184   2.2877   N.2       3 RES3   0.0000
    12 N5       7.8172   2.6597   0.3436   N.2       3 RES3   0.0000
    13 N6       5.7828   5.2688   1.7193   N.ar      3 RES3   0.0000
    14 N7       7.6508   5.2145   4.0782   N.ar      3 RES3   0.0000
    15 N8       5.1643   5.8948   4.5670   N.2       3 RES3   0.0000
    16 N9       5.7104   7.8710   5.4567   N.2       3 RES3   0.0000
    17 C1       4.4046   7.8201   5.5210   C.2       3 RES3   0.0000
    18 C2       7.6354   1.7934   2.2207   C.2       3 RES3   0.0000
    19 C3       3.8430   2.3827   4.1620   C.2       3 RES3   0.0000
    20 C4       6.3284   4.6678   0.7221   C.ar      3 RES3   0.0000
    21 C5       2.0638   2.3326   2.6816   C.2       3 RES3   0.0000
    22 C6       5.0984   6.4372   1.4176   C.ar      3 RES3   0.0000
    23 H3       4.6346   6.8648   2.1006   H         3 RES3   0.0000
    24 C7       6.9941   3.3867   1.1048   C.2       3 RES3   0.0000
    25 C8       2.9912   3.2984   2.3897   C.2       3 RES3   0.0000
    26 C9       7.5603   6.3863   4.6159   C.ar      3 RES3   0.0000
    27 C10      4.7542   2.1478   5.2081   C.ar      3 RES3   0.0000
    28 C11      6.1674   6.7398   4.8925   C.2       3 RES3   0.0000
    29 C12     10.0685   5.3965   4.1271   C.ar      3 RES3   0.0000
    30 H4      10.9321   5.0537   4.0573   H         3 RES3   0.0000
    31 C13      9.0037   4.7027   3.7737   C.ar      3 RES3   0.0000
    32 H5       9.1049   3.8911   3.3324   H         3 RES3   0.0000
    33 C14      8.2318   1.6714   0.9777   C.2       3 RES3   0.0000
    34 C15      3.4990   8.9696   5.8939   C.3       3 RES3   0.0000
    35 H6       4.0347   9.7621   6.0391   H         3 RES3   0.0000
    36 H7       3.0242   8.7607   6.6969   H         3 RES3   0.0000
    37 H8       2.8800   9.1371   5.1816   H         3 RES3   0.0000
    38 C16      2.7161   4.2762   1.3841   C.3       3 RES3   0.0000
    39 H9       3.5381   4.5100   0.9372   H         3 RES3   0.0000
    40 H10      2.3436   5.0586   1.7919   H         3 RES3   0.0000
    41 H11      2.1004   3.9161   0.7472   H         3 RES3   0.0000
    42 C17      7.7182   0.9124   3.5028   C.3       3 RES3   0.0000
    43 H12      8.0892   1.4271   4.2235   H         3 RES3   0.0000
    44 H13      8.2758   0.1514   3.3296   H         3 RES3   0.0000
    45 H14      6.8365   0.6152   3.7430   H         3 RES3   0.0000
    46 C18      0.6820   1.8198   2.4022   C.3       3 RES3   0.0000
    47 H15      0.2928   1.5188   3.2305   H         3 RES3   0.0000
    48 H16      0.7318   1.0885   1.7877   H         3 RES3   0.0000
    49 H17      0.1491   2.5229   2.0363   H         3 RES3   0.0000
    50 C19      5.5186   6.2734  -0.8771   C.ar      3 RES3   0.0000
    51 H18      5.3512   6.5556  -1.7458   H         3 RES3   0.0000
    52 C20      4.0817   6.5663   4.9302   C.2       3 RES3   0.0000
    53 C21      5.0704   6.9725   0.2151   C.ar      3 RES3   0.0000
    54 H19      4.7361   7.8342   0.1034   H         3 RES3   0.0000
    55 C22      2.7913   5.7223   4.7556   C.3       3 RES3   0.0000
    56 H20      2.3843   5.9283   3.9106   H         3 RES3   0.0000
    57 H21      2.1773   5.9222   5.4651   H         3 RES3   0.0000
    58 H22      3.0136   4.7862   4.7807   H         3 RES3   0.0000
    59 C23      8.6206   7.1692   4.9078   C.ar      3 RES3   0.0000
    60 H23      8.5145   8.0081   5.2961   H         3 RES3   0.0000
    61 C24      6.2566   5.1113  -0.6075   C.ar      3 RES3   0.0000
    62 H24      6.6840   4.6456  -1.2891   H         3 RES3   0.0000
    63 C25      9.1547   0.5880   0.4749   C.3       3 RES3   0.0000
    64 H25      9.0929   0.5260  -0.4749   H         3 RES3   0.0000
    65 H26      8.9087  -0.2519   0.8743   H         3 RES3   0.0000
    66 H27     10.0625   0.8005   0.7263   H         3 RES3   0.0000
    67 C26      9.8159   6.6826   4.6229   C.ar      3 RES3   0.0000
    68 H28     10.5452   7.2444   4.7458   H         3 RES3   0.0000
    69 C27      4.6571   1.2479   6.2402   C.ar      3 RES3   0.0000
    70 H29      3.9728   0.6201   6.2752   H         3 RES3   0.0000
    71 C28      6.6638   2.8609   6.2277   C.ar      3 RES3   0.0000
    72 H30      7.4093   3.4166   6.2305   H         3 RES3   0.0000
    73 C29      5.5193   1.3147   7.1090   C.ar      3 RES3   0.0000
    74 H31      5.3687   0.7246   7.8184   H         3 RES3   0.0000
    75 C30      6.5542   2.0136   7.2486   C.ar      3 RES3   0.0000
    76 H32      7.1541   1.9382   7.9511   H         3 RES3   0.0000
    77 Cl1      4.0631  10.3171   2.0587   Cl        4 RES4   0.0000
    78 O2       3.3949  10.2378   0.9092   O.2       4 RES4   0.0000
    79 O3       2.8490   9.5512   2.4944   O.2       4 RES4   0.0000
    80 O4       5.7331  10.0725   2.2989   O.3       4 RES4  -1.0000
    81 O5       3.5685  11.3807   2.9386   O.2       4 RES4   0.0000
    82 Cl2     11.1388   2.4935   6.6006   Cl        5 RES5   0.0000
    83 O6      10.2837   1.9734   5.6746   O.3       5 RES5  -1.0000
    84 O7      12.0386   3.2962   6.1453   O.2       5 RES5   0.0000
    85 O8      12.0740   1.7089   6.9972   O.2       5 RES5   0.0000
    86 O9      10.7257   3.2461   7.4316   O.2       5 RES5   0.0000
    87 O10      9.6587  10.7394   2.9330   O.3       6 RES6   0.0000
    88 H33      9.0341  11.3169   2.6676   H         6 RES6   0.0000
    89 H34      9.9035  10.2437   3.5894   H         6 RES6   0.0000
    90 O11      5.5442  12.3561   4.5531   O.3       7 RES7   0.0000
    91 H35      5.4868  12.9055   3.8548   H         7 RES7   0.0000
    92 H36      4.8439  12.0386   4.1620   H         7 RES7   0.0000
@<TRIPOS>BOND
     1     1     2    1
     2     2     3    1
     3     4     5    1
     4     5     6    1
     5     7     8    1
     6     8    27   ar
     7     9     7    1
     8    10    19    1
     9    11     7    1
    10    12    24    1
    11    13     7    1
    12    14     7    1
    13    15     7    1
    14    16    17    1
    15    17    34    1
    16    18    11    1
    17    19     9    2
    18    20    13   ar
    19    21    10    1
    20    22    13   ar
    21    23    22    1
    22    24    11    2
    23    25     9    1
    24    26    14   ar
    25    27    19    1
    26    28    15    2
    27    29    30    1
    28    31    14   ar
    29    32    31    1
    30    33    12    1
    31    34    35    1
    32    36    34    1
    33    37    34    1
    34    38    25    1
    35    39    38    1
    36    40    38    1
    37    41    38    1
    38    42    18    1
    39    43    42    1
    40    44    42    1
    41    45    42    1
    42    46    21    1
    43    47    46    1
    44    48    46    1
    45    49    46    1
    46    50    51    1
    47    52    15    1
    48    53    22   ar
    49    54    53    1
    50    55    52    1
    51    56    55    1
    52    57    55    1
    53    58    55    1
    54    59    26   ar
    55    60    59    1
    56    61    20   ar
    57    62    61    1
    58    63    33    1
    59    64    63    1
    60    65    63    1
    61    66    63    1
    62    67    29   ar
    63    68    67    1
    64    69    27   ar
    65    70    69    1
    66    71     8   ar
    67    72    71    1
    68    73    69   ar
    69    74    73    1
    70    75    71   ar
    71    76    75    1
    72    16    28    1
    73    17    52    2
    74    18    33    2
    75    20    24    1
    76    21    25    2
    77    26    28    1
    78    29    31   ar
    79    50    53   ar
    80    50    61   ar
    81    59    67   ar
    82    73    75   ar
    83    77    78    2
    84    79    77    2
    85    80    77    1
    86    81    77    2
    87    82    83    1
    88    84    82    2
    89    85    82    2
    90    86    82    2
    91    87    88    1
    92    89    87    1
    93    90    91    1
    94    92    90    1
@<TRIPOS>SUBSTRUCTURE
     1 RES1        1 GROUP             0 ****  ****    0  
     2 RES2        4 GROUP             0 ****  ****    0  
     3 RES3        7 GROUP             0 ****  ****    0  
     4 RES4       77 GROUP             0 ****  ****    0  
     5 RES5       82 GROUP             0 ****  ****    0  
     6 RES6       87 GROUP             0 ****  ****    0  
     7 RES7       90 GROUP             0 ****  ****    0  
@<TRIPOS>CRYSIN
   10.7660   13.7040   14.4480   85.5550   75.1720   73.9180     2     1
