@<TRIPOS>MOLECULE
IXUZUY02
    92    94     7     0     0
SMALL
USER_CHARGES
****
Generated from the CSD

@<TRIPOS>ATOM
     1 C1       4.7337   2.0873   5.2392   C.ar      1 RES1   0.0000
     2 C2       9.1825   0.6114   0.4344   C.3       1 RES1   0.0000
     3 H1       9.2395   0.7666  -0.5086   H         1 RES1   0.0000
     4 H2       8.8431  -0.2782   0.5899   H         1 RES1   0.0000
     5 H3      10.0546   0.6872   0.8281   H         1 RES1   0.0000
     6 Fe1      5.8748   4.2481   3.5756   Fe        1 RES1   2.0000
     7 N1       5.8063   5.3242   1.6731   N.ar      1 RES1   0.0000
     8 N2       3.9914   3.2801   3.2803   N.2       1 RES1   0.0000
     9 N3       7.7106   5.2549   4.1308   N.ar      1 RES1   0.0000
    10 N4       5.8088   2.9583   5.2266   N.ar      1 RES1   0.0000
    11 N5       6.9583   2.9470   2.2742   N.2       1 RES1   0.0000
    12 N6       5.2135   5.9606   4.6114   N.2       1 RES1   0.0000
    13 C3       6.3933   4.6620   0.6754   C.ar      1 RES1   0.0000
    14 C4       7.7059   1.8087   2.2462   C.2       1 RES1   0.0000
    15 N7       7.8562   2.6434   0.3153   N.2       1 RES1   0.0000
    16 C5       7.0436   3.4466   1.0916   C.2       1 RES1   0.0000
    17 C6       6.3103   6.7652   4.8973   C.2       1 RES1   0.0000
    18 N8       2.6680   1.5916   3.8828   N.2       1 RES1   0.0000
    19 N9       5.8012   7.9184   5.4858   N.2       1 RES1   0.0000
    20 C7       4.1102   6.6200   4.9281   C.2       1 RES1   0.0000
    21 C8       4.4762   7.9032   5.5629   C.2       1 RES1   0.0000
    22 C9       3.8272   2.3245   4.1350   C.2       1 RES1   0.0000
    23 C10      7.5918   6.4226   4.7011   C.ar      1 RES1   0.0000
    24 C11      9.0807   4.7372   3.8520   C.ar      1 RES1   0.0000
    25 H4       9.1780   3.9170   3.4246   H         1 RES1   0.0000
    26 C12      7.8677   0.9575   3.4330   C.3       1 RES1   0.0000
    27 H5       8.2485   1.4747   4.1476   H         1 RES1   0.0000
    28 H6       8.4537   0.2249   3.2242   H         1 RES1   0.0000
    29 H7       7.0138   0.6173   3.7034   H         1 RES1   0.0000
    30 C13      2.9727   3.3156   2.4199   C.2       1 RES1   0.0000
    31 C14      5.1531   6.4614   1.4040   C.ar      1 RES1   0.0000
    32 H8       4.7236   6.8913   2.1074   H         1 RES1   0.0000
    33 C15      8.2367   1.6302   1.0649   C.2       1 RES1   0.0000
    34 C16      0.7260   1.8422   2.2980   C.3       1 RES1   0.0000
    35 H9       0.8117   1.0359   1.7978   H         1 RES1   0.0000
    36 H10      0.3437   2.5318   1.7501   H         1 RES1   0.0000
    37 H11      0.1680   1.6962   3.0659   H         1 RES1   0.0000
    38 C17     10.0027   6.6595   4.7361   C.ar      1 RES1   0.0000
    39 H12     10.7494   7.1871   4.9323   H         1 RES1   0.0000
    40 C18      2.0237   2.2660   2.7464   C.2       1 RES1   0.0000
    41 C19     10.1442   5.4074   4.1897   C.ar      1 RES1   0.0000
    42 H13     10.9925   5.0416   4.0692   H         1 RES1   0.0000
    43 C20      2.8066   5.9060   4.7361   C.3       1 RES1   0.0000
    44 H14      2.3793   6.2355   3.9416   H         1 RES1   0.0000
    45 H15      2.2410   6.0693   5.4942   H         1 RES1   0.0000
    46 H16      2.9671   4.9669   4.6507   H         1 RES1   0.0000
    47 C21      8.6064   7.1812   5.0262   C.ar      1 RES1   0.0000
    48 H17      8.4759   8.0131   5.4213   H         1 RES1   0.0000
    49 C22      2.7327   4.2752   1.4138   C.3       1 RES1   0.0000
    50 H18      2.8283   5.1558   1.7824   H         1 RES1   0.0000
    51 H19      1.8369   4.1669   1.0775   H         1 RES1   0.0000
    52 H20      3.3589   4.1546   0.6992   H         1 RES1   0.0000
    53 C23      3.6640   8.9537   6.0225   C.3       1 RES1   0.0000
    54 H21      4.1599   9.4939   6.6418   H         1 RES1   0.0000
    55 H22      2.8907   8.5910   6.4611   H         1 RES1   0.0000
    56 H23      3.3868   9.4924   5.2784   H         1 RES1   0.0000
    57 C24      5.0757   6.9943   0.2536   C.ar      1 RES1   0.0000
    58 H24      4.6633   7.8196   0.1485   H         1 RES1   0.0000
    59 C25      6.3812   5.1116  -0.6460   C.ar      1 RES1   0.0000
    60 H25      6.8196   4.6477  -1.3186   H         1 RES1   0.0000
    61 C26      5.6585   6.2977  -0.9248   C.ar      1 RES1   0.0000
    62 H26      5.5571   6.6253  -1.7922   H         1 RES1   0.0000
    63 C27      4.6089   1.2148   6.2270   C.ar      1 RES1   0.0000
    64 H27      3.9278   0.5827   6.1878   H         1 RES1   0.0000
    65 C28      6.7126   2.8079   6.2733   C.ar      1 RES1   0.0000
    66 H28      7.4982   3.2837   6.4316   H         1 RES1   0.0000
    67 C29      5.5030   1.2079   7.3704   C.ar      1 RES1   0.0000
    68 H29      5.3731   0.8046   8.1916   H         1 RES1   0.0000
    69 C30      6.0909   1.6158   7.1336   C.ar      1 RES1   0.0000
    70 H30      6.8197   1.2439   7.5708   H         1 RES1   0.0000
    71 Cl1     11.2166   2.4907   6.6040   Cl        2 RES2   0.0000
    72 O1      10.3590   2.0099   5.6441   O.2       2 RES2   0.0000
    73 O2      12.2238   3.3769   6.0071   O.3       2 RES2  -1.0000
    74 O3      10.7221   3.2317   7.5526   O.2       2 RES2   0.0000
    75 O4      11.9845   1.4918   6.9921   O.2       2 RES2   0.0000
    76 Cl2      4.1154  10.3433   2.0388   Cl        3 RES3   0.0000
    77 O5       3.4700  11.4396   2.9454   O.3       3 RES3  -1.0000
    78 O6       5.5987  10.2609   2.1509   O.2       3 RES3   0.0000
    79 O7       3.5626  10.4223   0.8281   O.2       3 RES3   0.0000
    80 O8       2.8793   9.5564   2.4984   O.2       3 RES3   0.0000
    81 O9       9.9465  12.1080   0.0420   O.3       4 RES4   0.0000
    82 H31      9.5024  12.8230   0.1962   H         4 RES4   0.0000
    83 H32      9.8181  12.4190  -0.7567   H         4 RES4   0.0000
    84 O9A      8.6019  14.3280  -0.0420   O.3       5 RES5   0.0000
    85 H31A     9.0460  13.6130  -0.1962   H         5 RES5   0.0000
    86 H32A     8.7304  14.0170   0.7567   H         5 RES5   0.0000
    87 O10      5.5896  12.4062   4.6745   O.3       6 RES6   0.0000
    88 H33      4.9361  12.0709   5.4087   H         6 RES6   0.0000
    89 H34      6.2333  11.4092   5.3106   H         6 RES6   0.0000
    90 O11      9.6363  11.4650   2.3120   O.3       7 RES7   0.0000
    91 H35      9.6218  11.8688   1.5554   H         7 RES7   0.0000
    92 H36      8.8405  11.7815   2.2279   H         7 RES7   0.0000
@<TRIPOS>BOND
     1     1    10   ar
     2     2     3    1
     3     4     2    1
     4     5     2    1
     5     6     7    1
     6     7    13   ar
     7     8     6    1
     8     9     6    1
     9    10     6    1
    10    11     6    1
    11    12     6    1
    12    13    16    1
    13    14    11    1
    14    15    16    1
    15    16    11    2
    16    17    12    2
    17    18    22    1
    18    19    17    1
    19    20    12    1
    20    21    19    1
    21    22     1    1
    22    23     9   ar
    23    24     9   ar
    24    25    24    1
    25    26    14    1
    26    27    26    1
    27    28    26    1
    28    29    26    1
    29    30     8    1
    30    31     7   ar
    31    32    31    1
    32    33     2    1
    33    34    35    1
    34    36    34    1
    35    37    34    1
    36    38    39    1
    37    40    18    1
    38    41    24   ar
    39    42    41    1
    40    43    20    1
    41    44    43    1
    42    45    43    1
    43    46    43    1
    44    47    23   ar
    45    48    47    1
    46    49    30    1
    47    50    49    1
    48    51    49    1
    49    52    49    1
    50    53    21    1
    51    54    53    1
    52    55    53    1
    53    56    53    1
    54    57    31   ar
    55    58    57    1
    56    59    13   ar
    57    60    59    1
    58    61    57   ar
    59    62    61    1
    60    63     1   ar
    61    64    63    1
    62    65    10   ar
    63    66    65    1
    64    67    63   ar
    65    68    67    1
    66    69    65   ar
    67    70    69    1
    68     8    22    2
    69    14    33    2
    70    15    33    1
    71    17    23    1
    72    20    21    2
    73    30    40    2
    74    34    40    1
    75    38    41   ar
    76    38    47   ar
    77    59    61   ar
    78    67    69   ar
    79    71    72    2
    80    73    71    1
    81    74    71    2
    82    75    71    2
    83    76    77    1
    84    78    76    2
    85    79    76    2
    86    80    76    2
    87    81    82    1
    88    83    81    1
    89    84    85    1
    90    86    84    1
    91    87    88    1
    92    89    87    1
    93    90    91    1
    94    92    90    1
@<TRIPOS>SUBSTRUCTURE
     1 RES1        1 GROUP             0 ****  ****    0  
     2 RES2       71 GROUP             0 ****  ****    0  
     3 RES3       76 GROUP             0 ****  ****    0  
     4 RES4       81 GROUP             0 ****  ****    0  
     5 RES5       84 GROUP             0 ****  ****    0  
     6 RES6       87 GROUP             0 ****  ****    0  
     7 RES7       90 GROUP             0 ****  ****    0  
@<TRIPOS>CRYSIN
   10.8290   13.7700   14.4900   85.4890   75.2530   73.7220     2     1
