@<TRIPOS>MOLECULE
IYABAL
    70    67     3     0     0
SMALL
NO_CHARGES
****
Generated from the CSD

@<TRIPOS>ATOM
     1 Gd1      3.8192   8.3294  10.5080   Gd        1 RES1   0.0000
     2 Fe1      0.7634   3.7266  10.4901   Fe        1 RES1   0.0000
     3 C1       0.9119   3.5822   8.5542   C.1       1 RES1   0.0000
     4 C2      -0.6485   5.0630  10.3939   C.1       1 RES1   0.0000
     5 C3       0.7251   3.8021  12.4305   C.1       1 RES1   0.0000
     6 C4       2.1316   2.3906  10.6021   C.1       1 RES1   0.0000
     7 C5      -0.5771   2.3434  10.4895   C.1       1 RES1   0.0000
     8 C6       2.0650   5.1855  10.4375   C.1       1 RES1   0.0000
     9 N1       1.0783   3.4815   7.4262   N.1       1 RES1   0.0000
    10 N2      -1.4797   5.8558  10.3475   N.1       1 RES1   0.0000
    11 N3       0.7481   3.8392  13.5768   N.1       1 RES1   0.0000
    12 N4       2.9524   1.5790  10.6499   N.1       1 RES1   0.0000
    13 N5      -1.3902   1.5388  10.5022   N.1       1 RES1   0.0000
    14 N6       2.7791   6.0716  10.3981   N.1       1 RES1   0.0000
    15 O1       2.8762   8.1985   8.3271   O.2       1 RES1   0.0000
    16 S1       2.4483   7.1228   7.3559   S.o       1 RES1   0.0000
    17 C7       0.6884   7.1882   7.3615   C.3       1 RES1   0.0000
    18 H1       0.3585   6.8496   8.1970   H         1 RES1   0.0000
    19 H2       0.3457   6.6537   6.6414   H         1 RES1   0.0000
    20 H3       0.4019   8.0973   7.2490   H         1 RES1   0.0000
    21 C8       2.6951   7.8008   5.7469   C.3       1 RES1   0.0000
    22 H4       3.6349   7.8418   5.5584   H         1 RES1   0.0000
    23 H5       2.3236   8.6854   5.7131   H         1 RES1   0.0000
    24 H6       2.2609   7.2461   5.0957   H         1 RES1   0.0000
    25 O2       1.8061   9.5913  10.5836   O.2       1 RES1   0.0000
    26 C9       1.3089  10.3183   9.7118   C.2       1 RES1   0.0000
    27 H7       1.8958  10.7877   9.1632   H         1 RES1   0.0000
    28 N7       0.0303  10.4808   9.4966   N.am      1 RES1   0.0000
    29 C10     -0.9549   9.7858  10.2701   C.3       1 RES1   0.0000
    30 H8      -0.5195   9.2579  10.9424   H         1 RES1   0.0000
    31 H9      -1.4668   9.2129   9.6949   H         1 RES1   0.0000
    32 H10     -1.5386  10.4215  10.6893   H         1 RES1   0.0000
    33 C11     -0.4855  11.3487   8.4150   C.3       1 RES1   0.0000
    34 H11      0.2500  11.7568   7.9537   H         1 RES1   0.0000
    35 H12     -1.0448  12.0319   8.7919   H         1 RES1   0.0000
    36 H13     -0.9974  10.8208   7.7975   H         1 RES1   0.0000
    37 O3       4.6251  10.0746  11.9260   O.2       1 RES1   0.0000
    38 C12      4.9114  10.1605  13.0943   C.2       1 RES1   0.0000
    39 H14      4.9931   9.3552  13.5500   H         1 RES1   0.0000
    40 N8       5.1158  11.2140  13.7891   N.am      1 RES1   0.0000
    41 C13      5.0073  12.4622  13.2209   C.3       1 RES1   0.0000
    42 H15      4.7818  12.3712  12.2912   H         1 RES1   0.0000
    43 H16      5.8445  12.9249  13.3039   H         1 RES1   0.0000
    44 H17      4.3199  12.9599  13.6696   H         1 RES1   0.0000
    45 C14      5.4512  11.2131  15.1605   C.3       1 RES1   0.0000
    46 H18      5.5323  10.3075  15.4699   H         1 RES1   0.0000
    47 H19      4.7642  11.6617  15.6584   H         1 RES1   0.0000
    48 H20      6.2862  11.6696  15.2856   H         1 RES1   0.0000
    49 O4       2.8644   7.9116  12.6398   O.2       1 RES1   0.0000
    50 N9       1.2193   7.3406  14.0986   N.am      1 RES1   0.0000
    51 C15      1.7399   7.6187  12.9903   C.2       1 RES1   0.0000
    52 H21      1.1331   7.5947  12.2856   H         1 RES1   0.0000
    53 C16      1.9529   7.1161  15.2083   C.3       1 RES1   0.0000
    54 H22      2.8803   7.2735  15.0156   H         1 RES1   0.0000
    55 H23      1.8356   6.2058  15.4910   H         1 RES1   0.0000
    56 H24      1.6665   7.7080  15.9073   H         1 RES1   0.0000
    57 C17     -0.1450   7.1478  14.2533   C.3       1 RES1   0.0000
    58 H25     -0.5900   7.3287  13.4207   H         1 RES1   0.0000
    59 H26     -0.4774   7.7424  14.9284   H         1 RES1   0.0000
    60 H27     -0.3121   6.2400  14.5149   H         1 RES1   0.0000
    61 O5       5.5047   7.2089  11.8256   O.3       1 RES1   0.0000
    62 H28      6.0776   7.7507  12.0536   H         1 RES1   0.0000
    63 O6       4.5718  10.1967   9.2008   O.3       1 RES1   0.0000
    64 H29      4.5343  10.8793   9.6527   H         1 RES1   0.0000
    65 O7       5.5614   7.3888   9.1153   O.3       1 RES1   0.0000
    66 H30      6.1258   7.9630   8.9579   H         1 RES1   0.0000
    67 O8       4.4953  10.9022   6.5472   O.3       2 RES2   0.0000
    68 H31      3.6976  10.9885   6.0296   H         2 RES2   0.0000
    69 O9       4.8721  12.8470   9.6316   O.3       3 RES3   0.0000
    70 H32      4.1289  13.1971  10.1253   H         3 RES3   0.0000
@<TRIPOS>BOND
     1     1    14    1
     2     2     3    1
     3     3     9    3
     4     4     2    1
     5     5     2    1
     6     6     2    1
     7     7     2    1
     8     8     2    1
     9    10     4    3
    10    11     5    3
    11    12     6    3
    12    13     7    3
    13    14     8    3
    14    15     1    1
    15    16    15    2
    16    17    16    1
    17    18    17    1
    18    19    17    1
    19    20    17    1
    20    21    16    1
    21    22    21    1
    22    23    21    1
    23    24    21    1
    24    25     1    1
    25    26    25    2
    26    27    26    1
    27    28    26   am
    28    29    28    1
    29    30    29    1
    30    31    29    1
    31    32    29    1
    32    33    28    1
    33    34    33    1
    34    35    33    1
    35    36    33    1
    36    37     1    1
    37    38    37    2
    38    39    38    1
    39    40    38   am
    40    41    40    1
    41    42    41    1
    42    43    41    1
    43    44    41    1
    44    45    40    1
    45    46    45    1
    46    47    45    1
    47    48    45    1
    48    49     1    1
    49    50    51   am
    50    51    49    2
    51    52    51    1
    52    53    50    1
    53    54    53    1
    54    55    53    1
    55    56    53    1
    56    57    50    1
    57    58    57    1
    58    59    57    1
    59    60    57    1
    60    61     1    1
    61    62    61    1
    62    63     1    1
    63    64    63    1
    64    65     1    1
    65    66    65    1
    66    67    68    1
    67    69    70    1
@<TRIPOS>SUBSTRUCTURE
     1 RES1        1 GROUP             0 ****  ****    0  
     2 RES2       67 GROUP             0 ****  ****    0  
     3 RES3       69 GROUP             0 ****  ****    0  
@<TRIPOS>CRYSIN
    9.0363   12.5078   14.1303   93.1740   94.4060   91.8170     2     1
