@<TRIPOS>MOLECULE
IYIJOR
   103   109     5     0     0
SMALL
USER_CHARGES
****
Generated from the CSD

@<TRIPOS>ATOM
     1 Fe1      9.9272   8.3712   5.9643   Fe        1 RES1   1.0000
     2 O1       8.3312  12.1826   6.6309   O.2       1 RES1   0.0000
     3 O2       8.7378   9.8062   5.5839   O.3       1 RES1   0.0000
     4 O3       4.4918   8.5387   7.1545   O.2       1 RES1   0.0000
     5 O4       8.2927   4.6806   5.0032   O.2       1 RES1   0.0000
     6 O5       8.6402   6.9982   6.2622   O.3       1 RES1   0.0000
     7 O6       4.6633   8.4659   4.2053   O.2       1 RES1   0.0000
     8 N1      10.0883   8.0470   3.8606   N.ar      1 RES1   0.0000
     9 N2      11.5724   6.9452   5.8043   N.3       1 RES1   0.0000
    10 N3      11.5936   9.7461   6.2177   N.3       1 RES1   0.0000
    11 N4      10.0302   8.6459   8.0926   N.ar      1 RES1   0.0000
    12 C1       7.4005  11.4004   6.7022   C.2       1 RES1   0.0000
    13 C2       7.5669  10.0093   6.1302   C.2       1 RES1   0.0000
    14 C3       6.5425   9.1047   6.1599   C.2       1 RES1   0.0000
    15 C4       5.3284   9.4031   6.9427   C.2       1 RES1   0.0000
    16 C5       3.9559  11.1213   8.1494   C.ar      1 RES1   0.0000
    17 H1       3.2899  10.4624   8.3012   H         1 RES1   0.0000
    18 C6       3.7615  12.4103   8.5982   C.ar      1 RES1   0.0000
    19 H2       2.9630  12.6305   9.0614   H         1 RES1   0.0000
    20 C7       4.7062  13.3771   8.3828   C.ar      1 RES1   0.0000
    21 H3       4.5490  14.2657   8.6789   H         1 RES1   0.0000
    22 C8       5.8872  13.0692   7.7378   C.ar      1 RES1   0.0000
    23 H4       6.5443  13.7408   7.5949   H         1 RES1   0.0000
    24 C9       6.1090  11.7642   7.2974   C.ar      1 RES1   0.0000
    25 C10      5.1242  10.7830   7.4741   C.ar      1 RES1   0.0000
    26 C11      7.3798   5.4976   4.9314   C.2       1 RES1   0.0000
    27 C12      7.5300   6.8585   5.5785   C.2       1 RES1   0.0000
    28 C13      6.5496   7.7949   5.4547   C.2       1 RES1   0.0000
    29 C14      5.4081   7.5540   4.5549   C.2       1 RES1   0.0000
    30 C15      3.9862   5.8645   3.3805   C.ar      1 RES1   0.0000
    31 H5       3.3478   6.5458   3.2050   H         1 RES1   0.0000
    32 C16      3.7348   4.5579   2.9713   C.ar      1 RES1   0.0000
    33 H6       2.9185   4.3474   2.5363   H         1 RES1   0.0000
    34 C17      4.6624   3.5720   3.1935   C.ar      1 RES1   0.0000
    35 H7       4.4822   2.6834   2.9094   H         1 RES1   0.0000
    36 C18      5.8636   3.8624   3.8303   C.ar      1 RES1   0.0000
    37 H8       6.5109   3.1811   3.9723   H         1 RES1   0.0000
    38 C19      6.1092   5.1642   4.2562   C.ar      1 RES1   0.0000
    39 C20      5.1674   6.1772   4.0457   C.ar      1 RES1   0.0000
    40 C21      9.5006   8.7841   2.9099   C.ar      1 RES1   0.0000
    41 H9       9.0891   9.6041   3.1558   H         1 RES1   0.0000
    42 C22      9.4694   8.3980   1.5955   C.ar      1 RES1   0.0000
    43 H10      9.0335   8.9324   0.9432   H         1 RES1   0.0000
    44 C23     10.0901   7.2174   1.2388   C.ar      1 RES1   0.0000
    45 H11     10.0812   6.9286   0.3355   H         1 RES1   0.0000
    46 C24     10.7151   6.4628   2.2004   C.ar      1 RES1   0.0000
    47 H12     11.1533   5.6524   1.9685   H         1 RES1   0.0000
    48 C25     10.7004   6.9015   3.5126   C.ar      1 RES1   0.0000
    49 C26     11.2757   6.1007   4.6393   C.3       1 RES1   0.0000
    50 H13     10.6328   5.3955   4.9014   H         1 RES1   0.0000
    51 H14     12.1076   5.6587   4.3359   H         1 RES1   0.0000
    52 C27     12.8248   7.7263   5.5799   C.3       1 RES1   0.0000
    53 H15     12.8840   7.9943   4.6292   H         1 RES1   0.0000
    54 H16     13.6113   7.1616   5.7906   H         1 RES1   0.0000
    55 C28     12.8337   8.9564   6.4561   C.3       1 RES1   0.0000
    56 H17     12.8817   8.6899   7.4072   H         1 RES1   0.0000
    57 H18     13.6269   9.5099   6.2482   H         1 RES1   0.0000
    58 C29     11.2781  10.5820   7.3983   C.3       1 RES1   0.0000
    59 H19     10.6261  11.2840   7.1445   H         1 RES1   0.0000
    60 H20     12.1010  11.0287   7.7193   H         1 RES1   0.0000
    61 C30     10.7018   9.7285   8.4973   C.ar      1 RES1   0.0000
    62 C31     10.7997  10.0587   9.8342   C.ar      1 RES1   0.0000
    63 H21     11.2957  10.8213  10.1102   H         1 RES1   0.0000
    64 C32     10.1657   9.2579  10.7648   C.ar      1 RES1   0.0000
    65 H22     10.2013   9.4796  11.6892   H         1 RES1   0.0000
    66 C33      9.4806   8.1411  10.3542   C.ar      1 RES1   0.0000
    67 H23      9.0535   7.5748  10.9853   H         1 RES1   0.0000
    68 C34      9.4250   7.8619   9.0107   C.ar      1 RES1   0.0000
    69 H24      8.9467   7.0946   8.7188   H         1 RES1   0.0000
    70 C35     11.6983   6.0991   7.0166   C.3       1 RES1   0.0000
    71 H25     11.9697   6.6558   7.7756   H         1 RES1   0.0000
    72 H26     12.3768   5.4067   6.8629   H         1 RES1   0.0000
    73 H27     10.8375   5.6763   7.2125   H         1 RES1   0.0000
    74 C36     11.7524  10.6331   5.0290   C.3       1 RES1   0.0000
    75 H28     11.9897  10.0922   4.2468   H         1 RES1   0.0000
    76 H29     12.4613  11.2872   5.2017   H         1 RES1   0.0000
    77 H30     10.9087  11.1021   4.8568   H         1 RES1   0.0000
    78 Cl1     10.7828   3.7598  10.4436   Cl        2 RES2   0.0000
    79 O7      11.5115   4.2277   9.3420   O.2       2 RES2   0.0000
    80 O8       9.9343   4.7621  10.9290   O.2       2 RES2   0.0000
    81 O9      10.0109   2.6244  10.0175   O.3       2 RES2  -1.0000
    82 O10     11.7010   3.3997  11.4628   O.2       2 RES2   0.0000
    83 O11     13.9784   8.9691   9.7723   O.3       3 RES3   0.0000
    84 H31     14.4989   8.4171  10.1806   H         3 RES3   0.0000
    85 H32     13.9116   9.7110  10.1665   H         3 RES3   0.0000
    86 O12      8.0591   4.1958  12.8999   O.3       4 RES4   0.0000
    87 H33      7.4452   3.7698  13.3340   H         4 RES4   0.0000
    88 H34      7.8901   5.0062  12.7943   H         4 RES4   0.0000
    89 C37      7.0426  11.7801  -0.7508   C.3       5 RES5   0.0000
    90 H35      6.3997  12.2891  -0.2135   H         5 RES5   0.0000
    91 H36      6.9647  12.0434  -1.6917   H         5 RES5   0.0000
    92 H37      7.9501  11.9668  -0.4317   H         5 RES5   0.0000
    93 C38      6.5977   7.4535  -0.6382   C.ar      5 RES5   0.0000
    94 H38      6.5488   6.5043  -0.6499   H         5 RES5   0.0000
    95 C39      7.5653   8.1076  -1.3913   C.ar      5 RES5   0.0000
    96 H39      8.1793   7.6067  -1.9169   H         5 RES5   0.0000
    97 C40      7.6365   9.4956  -1.3749   C.ar      5 RES5   0.0000
    98 H40      8.2994   9.9423  -1.8888   H         5 RES5   0.0000
    99 C41      6.7401  10.2294  -0.6077   C.ar      5 RES5   0.0000
   100 C42      5.7724   9.5738   0.1455   C.ar      5 RES5   0.0000
   101 H41      5.1585  10.0763   0.6687   H         5 RES5   0.0000
   102 C43      5.7012   8.1858   0.1290   C.ar      5 RES5   0.0000
   103 H42      5.0384   7.7391   0.6429   H         5 RES5   0.0000
@<TRIPOS>BOND
     1     1     3    1
     2     2    12    2
     3     3    13    1
     4     4    15    2
     5     5    26    2
     6     6     1    1
     7     7    29    2
     8     8     1    1
     9     9     1    1
    10    10     1    1
    11    11     1    1
    12    12    13    1
    13    13    14    2
    14    14    15    1
    15    15    25    1
    16    16    17    1
    17    18    16   ar
    18    19    18    1
    19    20    18   ar
    20    21    20    1
    21    22    20   ar
    22    23    22    1
    23    24    12    1
    24    25    16   ar
    25    26    27    1
    26    27     6    1
    27    28    14    1
    28    29    28    1
    29    30    31    1
    30    32    30   ar
    31    33    32    1
    32    34    32   ar
    33    35    34    1
    34    36    34   ar
    35    37    36    1
    36    38    26    1
    37    39    29    1
    38    40     8   ar
    39    41    40    1
    40    42    40   ar
    41    43    42    1
    42    44    42   ar
    43    45    44    1
    44    46    44   ar
    45    47    46    1
    46    48     8   ar
    47    49     9    1
    48    50    49    1
    49    51    49    1
    50    52     9    1
    51    53    52    1
    52    54    52    1
    53    55    10    1
    54    56    55    1
    55    57    55    1
    56    58    10    1
    57    59    58    1
    58    60    58    1
    59    61    11   ar
    60    62    61   ar
    61    63    62    1
    62    64    62   ar
    63    65    64    1
    64    66    64   ar
    65    67    66    1
    66    68    11   ar
    67    69    68    1
    68    70     9    1
    69    71    70    1
    70    72    70    1
    71    73    70    1
    72    74    10    1
    73    75    74    1
    74    76    74    1
    75    77    74    1
    76    22    24   ar
    77    24    25   ar
    78    27    28    2
    79    30    39   ar
    80    36    38   ar
    81    38    39   ar
    82    46    48   ar
    83    48    49    1
    84    52    55    1
    85    58    61    1
    86    66    68   ar
    87    78    79    2
    88    80    78    2
    89    81    78    1
    90    82    78    2
    91    83    84    1
    92    85    83    1
    93    86    87    1
    94    88    86    1
    95    89    90    1
    96    91    89    1
    97    92    89    1
    98    93    94    1
    99    95    93   ar
   100    96    95    1
   101    97    95   ar
   102    98    97    1
   103    99    89    1
   104   100    99   ar
   105   101   100    1
   106   102    93   ar
   107   103   102    1
   108    97    99   ar
   109   100   102   ar
@<TRIPOS>SUBSTRUCTURE
     1 RES1        1 GROUP             0 ****  ****    0  
     2 RES2       78 GROUP             0 ****  ****    0  
     3 RES3       83 GROUP             0 ****  ****    0  
     4 RES4       86 GROUP             0 ****  ****    0  
     5 RES5       89 GROUP             0 ****  ****    0  
@<TRIPOS>CRYSIN
   22.2444   15.9536   23.4629   90.0000   90.0000   90.0000    61     1
