@<TRIPOS>MOLECULE
IZAFOG
    75    81     4     0     0
SMALL
USER_CHARGES
****
Generated from the CSD

@<TRIPOS>ATOM
     1 Fe1      3.7863   9.9001   2.2380   Fe        1 RES1   2.0000
     2 O1       4.7131  13.2739   0.0934   O.3       1 RES1   0.0000
     3 O2       1.2352  10.0255   5.4471   O.3       1 RES1   0.0000
     4 O3       2.0203   7.6225  -0.6758   O.3       1 RES1   0.0000
     5 O4       7.3373   8.8169   3.9673   O.3       1 RES1   0.0000
     6 N1       4.5927  11.1523   0.8874   N.2       1 RES1   0.0000
     7 N2       3.0283  11.5974   2.7862   N.ar      1 RES1   0.0000
     8 N3       2.6199   9.3089   3.7790   N.2       1 RES1   0.0000
     9 N4       2.4709   9.2205   0.8809   N.2       1 RES1   0.0000
    10 N5       4.6223   8.2432   1.6910   N.ar      1 RES1   0.0000
    11 N6       5.4090   9.9176   3.3922   N.2       1 RES1   0.0000
    12 C1       5.5003  11.0313  -0.3078   C.3       1 RES1   0.0000
    13 H1       5.1188  10.4444  -0.9802   H         1 RES1   0.0000
    14 H2       6.3746  10.6964  -0.0527   H         1 RES1   0.0000
    15 C2       5.5845  12.4646  -0.8101   C.3       1 RES1   0.0000
    16 H3       6.4998  12.7842  -0.7756   H         1 RES1   0.0000
    17 H4       5.2702  12.5224  -1.7254   H         1 RES1   0.0000
    18 C3       4.2330  12.3806   0.9903   C.2       1 RES1   0.0000
    19 C4       3.3500  12.7384   2.0920   C.ar      1 RES1   0.0000
    20 C5       2.8247  13.9830   2.5031   C.ar      1 RES1   0.0000
    21 H5       3.0315  14.7531   2.0231   H         1 RES1   0.0000
    22 C6       2.0011  14.0604   3.6210   C.ar      1 RES1   0.0000
    23 H6       1.6570  14.8774   3.9025   H         1 RES1   0.0000
    24 C7       1.7000  12.8693   4.3197   C.ar      1 RES1   0.0000
    25 H7       1.1607  12.8943   5.0771   H         1 RES1   0.0000
    26 C8       2.2096  11.6737   3.8742   C.ar      1 RES1   0.0000
    27 C9       2.0184  10.2873   4.3885   C.2       1 RES1   0.0000
    28 C10      1.2495   8.5322   5.5814   C.3       1 RES1   0.0000
    29 H8       0.3613   8.1657   5.4416   H         1 RES1   0.0000
    30 H9       1.5639   8.2683   6.4603   H         1 RES1   0.0000
    31 C11      2.2271   8.0403   4.4756   C.3       1 RES1   0.0000
    32 H10      2.9992   7.6007   4.8645   H         1 RES1   0.0000
    33 H11      1.7861   7.4273   3.8661   H         1 RES1   0.0000
    34 C12      1.1854   9.6863   0.2936   C.3       1 RES1   0.0000
    35 H12      1.2954  10.5273  -0.1782   H         1 RES1   0.0000
    36 H13      0.5002   9.7877   0.9721   H         1 RES1   0.0000
    37 C13      0.8367   8.5093  -0.7048   C.3       1 RES1   0.0000
    38 H14      0.0432   8.0337  -0.4111   H         1 RES1   0.0000
    39 H15      0.6839   8.8508  -1.5999   H         1 RES1   0.0000
    40 C14      2.8167   8.1243   0.3038   C.2       1 RES1   0.0000
    41 C15      4.0750   7.4567   0.7453   C.ar      1 RES1   0.0000
    42 C16      4.6334   6.2579   0.3301   C.ar      1 RES1   0.0000
    43 H16      4.2289   5.7420  -0.3281   H         1 RES1   0.0000
    44 C17      5.8362   5.8456   0.9377   C.ar      1 RES1   0.0000
    45 H17      6.2351   5.0417   0.6946   H         1 RES1   0.0000
    46 C18      6.4150   6.6506   1.9016   C.ar      1 RES1   0.0000
    47 H18      7.2112   6.3899   2.3067   H         1 RES1   0.0000
    48 C19      5.8025   7.8603   2.2682   C.ar      1 RES1   0.0000
    49 C20      6.1890   8.9086   3.2261   C.2       1 RES1   0.0000
    50 C21      7.3514  10.0877   4.7713   C.3       1 RES1   0.0000
    51 H19      8.0874  10.6571   4.5020   H         1 RES1   0.0000
    52 H20      7.4361   9.8936   5.7191   H         1 RES1   0.0000
    53 C22      6.0083  10.7618   4.4756   C.3       1 RES1   0.0000
    54 H21      5.4409  10.7684   5.2634   H         1 RES1   0.0000
    55 H22      6.1376  11.6737   4.1719   H         1 RES1   0.0000
    56 P1       8.0846   2.6934   2.4320   P.3       2 RES2  -1.0000
    57 F1       6.5130   3.0204   2.5066   F         2 RES2   0.0000
    58 F2       8.4168   4.2552   2.6356   F         2 RES2   0.0000
    59 F3       8.0843   2.4707   4.0277   F         2 RES2   0.0000
    60 F4       7.7399   1.1235   2.2176   F         2 RES2   0.0000
    61 F5       8.0678   2.8972   0.8328   F         2 RES2   0.0000
    62 F6       9.6556   2.3703   2.3626   F         2 RES2   0.0000
    63 P2       2.1929  11.5565  -3.2443   P.3       3 RES3  -1.0000
    64 F7       1.5357  12.8038  -3.9936   F         3 RES3   0.0000
    65 F8       2.2982  10.7847  -4.6385   F         3 RES3   0.0000
    66 F9       3.6046  12.2148  -3.4448   F         3 RES3   0.0000
    67 F10      2.0792  12.3184  -1.8148   F         3 RES3   0.0000
    68 F11      0.7316  10.9440  -2.9813   F         3 RES3   0.0000
    69 F12      2.8340  10.3059  -2.4667   F         3 RES3   0.0000
    70 N7       1.0639   5.8140   1.6829   N.1       4 RES4   0.0000
    71 C23     -0.0367   5.9394   1.9482   C.1       4 RES4   0.0000
    72 C24     -1.4215   6.0932   2.3370   C.3       4 RES4   0.0000
    73 H23     -1.9870   5.6962   1.6708   H         4 RES4   0.0000
    74 H24     -1.6292   7.0269   2.4181   H         4 RES4   0.0000
    75 H25     -1.5676   5.6591   3.1795   H         4 RES4   0.0000
@<TRIPOS>BOND
     1     1     6    1
     2     2    15    1
     3     3    27    1
     4     4    37    1
     5     5    49    1
     6     6    12    1
     7     7     1    1
     8     8     1    1
     9     9     1    1
    10    10     1    1
    11    11     1    1
    12    12    13    1
    13    14    12    1
    14    15    12    1
    15    16    15    1
    16    17    15    1
    17    18     2    1
    18    19     7   ar
    19    20    19   ar
    20    21    20    1
    21    22    20   ar
    22    23    22    1
    23    24    22   ar
    24    25    24    1
    25    26     7   ar
    26    27     8    2
    27    28     3    1
    28    29    28    1
    29    30    28    1
    30    31     8    1
    31    32    31    1
    32    33    31    1
    33    34     9    1
    34    35    34    1
    35    36    34    1
    36    37    34    1
    37    38    37    1
    38    39    37    1
    39    40     4    1
    40    41    10   ar
    41    42    41   ar
    42    43    42    1
    43    44    42   ar
    44    45    44    1
    45    46    44   ar
    46    47    46    1
    47    48    10   ar
    48    49    11    2
    49    50     5    1
    50    51    50    1
    51    52    50    1
    52    53    11    1
    53    54    53    1
    54    55    53    1
    55     6    18    2
    56     9    40    2
    57    18    19    1
    58    24    26   ar
    59    26    27    1
    60    28    31    1
    61    40    41    1
    62    46    48   ar
    63    48    49    1
    64    50    53    1
    65    56    57    1
    66    58    56    1
    67    59    56    1
    68    60    56    1
    69    61    56    1
    70    62    56    1
    71    63    64    1
    72    65    63    1
    73    66    63    1
    74    67    63    1
    75    68    63    1
    76    69    63    1
    77    70    71    3
    78    71    72    1
    79    72    73    1
    80    74    72    1
    81    75    72    1
@<TRIPOS>SUBSTRUCTURE
     1 RES1        1 GROUP             0 ****  ****    0  
     2 RES2       56 GROUP             0 ****  ****    0  
     3 RES3       63 GROUP             0 ****  ****    0  
     4 RES4       70 GROUP             0 ****  ****    0  
@<TRIPOS>CRYSIN
   15.3520   10.9080   20.7080   90.0000  102.0500   90.0000    14     1
