@<TRIPOS>MOLECULE
IZAFOG01
    75    81     4     0     0
SMALL
USER_CHARGES
****
Generated from the CSD

@<TRIPOS>ATOM
     1 Fe1      1.6864  10.0876   7.8843   Fe        1 RES1   2.0000
     2 O1       3.3420   7.5532  10.8424   O.3       1 RES1   0.0000
     3 O2      -1.9891   8.6818   6.3294   O.3       1 RES1   0.0000
     4 O3       0.9313  13.7258   9.9455   O.3       1 RES1   0.0000
     5 O4       4.0784  10.5860   4.4399   O.3       1 RES1   0.0000
     6 N1       3.0541   9.2033   9.3406   N.2       1 RES1   0.0000
     7 N2       0.7789   8.2774   8.5007   N.ar      1 RES1   0.0000
     8 N3      -0.1496   9.9075   6.7096   N.2       1 RES1   0.0000
     9 N4       0.9182  11.5587   9.3279   N.2       1 RES1   0.0000
    10 N5       2.4146  11.9609   7.2499   N.ar      1 RES1   0.0000
    11 N6       2.9410   9.6635   6.1404   N.2       1 RES1   0.0000
    12 C1       4.3563   9.4974   9.9817   C.3       1 RES1   0.0000
    13 H1       4.3343  10.3576  10.4275   H         1 RES1   0.0000
    14 H2       5.0707   9.5019   9.3249   H         1 RES1   0.0000
    15 C2       4.5503   8.3632  10.9939   C.3       1 RES1   0.0000
    16 H3       5.3447   7.8451  10.7870   H         1 RES1   0.0000
    17 H4       4.6266   8.7097  11.8956   H         1 RES1   0.0000
    18 C3       2.6344   8.1348   9.8784   C.2       1 RES1   0.0000
    19 C4       1.3798   7.5186   9.4203   C.ar      1 RES1   0.0000
    20 C5       0.8422   6.2975   9.8210   C.ar      1 RES1   0.0000
    21 H5       1.2494   5.7816  10.4797   H         1 RES1   0.0000
    22 C6      -0.3184   5.8885   9.2024   C.ar      1 RES1   0.0000
    23 H6      -0.6843   5.0629   9.4253   H         1 RES1   0.0000
    24 C7      -0.9403   6.6618   8.2745   C.ar      1 RES1   0.0000
    25 H7      -1.7315   6.3821   7.8729   H         1 RES1   0.0000
    26 C8      -0.3625   7.8830   7.9391   C.ar      1 RES1   0.0000
    27 C9      -0.8353   8.8779   6.9651   C.2       1 RES1   0.0000
    28 C10     -2.1550   9.8841   5.4989   C.3       1 RES1   0.0000
    29 H8      -2.9020  10.4167   5.8143   H         1 RES1   0.0000
    30 H9      -2.3136   9.6412   4.5731   H         1 RES1   0.0000
    31 C11     -0.8713  10.6373   5.6375   C.3       1 RES1   0.0000
    32 H10     -0.3683  10.6239   4.8081   H         1 RES1   0.0000
    33 H11     -1.0343  11.5587   5.8926   H         1 RES1   0.0000
    34 C12      0.0830  11.5999  10.5581   C.3       1 RES1   0.0000
    35 H12      0.4638  11.0417  11.2550   H         1 RES1   0.0000
    36 H13     -0.8210  11.3002  10.3753   H         1 RES1   0.0000
    37 C13      0.0961  13.0607  10.9678   C.3       1 RES1   0.0000
    38 H14     -0.8019  13.4261  10.9718   H         1 RES1   0.0000
    39 H15      0.4814  13.1676  11.8515   H         1 RES1   0.0000
    40 C14      1.2869  12.7498   9.1062   C.2       1 RES1   0.0000
    41 C15      2.1214  13.0673   7.9415   C.ar      1 RES1   0.0000
    42 C16      2.5685  14.3197   7.5475   C.ar      1 RES1   0.0000
    43 H16      2.3583  15.0807   8.0395   H         1 RES1   0.0000
    44 C17      3.3346  14.3977   6.3987   C.ar      1 RES1   0.0000
    45 H17      3.6509  15.2222   6.1055   H         1 RES1   0.0000
    46 C18      3.6288  13.2512   5.6817   C.ar      1 RES1   0.0000
    47 H18      4.1359  13.2946   4.9025   H         1 RES1   0.0000
    48 C19      3.1591  12.0501   6.1444   C.ar      1 RES1   0.0000
    49 C20      3.3913  10.7008   5.5658   C.2       1 RES1   0.0000
    50 C21      4.1595   9.1398   4.1794   C.3       1 RES1   0.0000
    51 H19      5.0821   8.8401   4.1734   H         1 RES1   0.0000
    52 H20      3.7487   8.9181   3.3299   H         1 RES1   0.0000
    53 C22      3.3925   8.5080   5.3323   C.3       1 RES1   0.0000
    54 H21      2.6360   7.9955   5.0069   H         1 RES1   0.0000
    55 H22      3.9675   7.9253   5.8524   H         1 RES1   0.0000
    56 P1       5.4531   5.1474   3.3419   P.3       2 RES2  -1.0000
    57 F1       4.0294   4.6150   3.6071   F         2 RES2   0.0000
    58 F2       6.0330   3.8986   4.0589   F         2 RES2   0.0000
    59 F3       5.5308   5.8830   4.6775   F         2 RES2   0.0000
    60 F4       4.8663   6.3955   2.5838   F         2 RES2   0.0000
    61 F5       5.4005   4.4379   1.9015   F         2 RES2   0.0000
    62 F6       6.9007   5.6000   2.9704   F         2 RES2   0.0000
    63 P2      12.5571   2.7052   7.6901   P.3       3 RES3  -1.0000
    64 F7      13.0098   1.2178   8.0078   F         3 RES3   0.0000
    65 F8      14.0839   3.1153   7.5021   F         3 RES3   0.0000
    66 F9      12.6604   3.0618   9.2193   F         3 RES3   0.0000
    67 F10     12.1188   4.1938   7.3647   F         3 RES3   0.0000
    68 F11     11.0475   2.3365   7.8990   F         3 RES3   0.0000
    69 F12     12.5064   2.3855   6.1376   F         3 RES3   0.0000
    70 N7       8.6671   0.3989   1.7573   N.1       4 RES4   0.0000
    71 C23      7.6053   0.6685   1.9923   C.1       4 RES4   0.0000
    72 C24      6.2615   0.9994   2.2675   C.3       4 RES4   0.0000
    73 H23      5.9452   0.4680   3.0025   H         4 RES4   0.0000
    74 H24      5.7241   0.8256   1.4922   H         4 RES4   0.0000
    75 H25      6.2023   1.9298   2.4964   H         4 RES4   0.0000
@<TRIPOS>BOND
     1     1     6    1
     2     2    15    1
     3     3    27    1
     4     4    37    1
     5     5    49    1
     6     6    12    1
     7     7     1    1
     8     8     1    1
     9     9     1    1
    10    10     1    1
    11    11     1    1
    12    12    13    1
    13    14    12    1
    14    15    12    1
    15    16    15    1
    16    17    15    1
    17    18     2    1
    18    19     7   ar
    19    20    19   ar
    20    21    20    1
    21    22    20   ar
    22    23    22    1
    23    24    22   ar
    24    25    24    1
    25    26     7   ar
    26    27     8    2
    27    28     3    1
    28    29    28    1
    29    30    28    1
    30    31     8    1
    31    32    31    1
    32    33    31    1
    33    34     9    1
    34    35    34    1
    35    36    34    1
    36    37    34    1
    37    38    37    1
    38    39    37    1
    39    40     4    1
    40    41    10   ar
    41    42    41   ar
    42    43    42    1
    43    44    42   ar
    44    45    44    1
    45    46    44   ar
    46    47    46    1
    47    48    10   ar
    48    49    11    2
    49    50     5    1
    50    51    50    1
    51    52    50    1
    52    53    11    1
    53    54    53    1
    54    55    53    1
    55     6    18    2
    56     9    40    2
    57    18    19    1
    58    24    26   ar
    59    26    27    1
    60    28    31    1
    61    40    41    1
    62    46    48   ar
    63    48    49    1
    64    50    53    1
    65    56    57    1
    66    58    56    1
    67    59    56    1
    68    60    56    1
    69    61    56    1
    70    62    56    1
    71    63    64    1
    72    65    63    1
    73    66    63    1
    74    67    63    1
    75    68    63    1
    76    69    63    1
    77    70    71    3
    78    71    72    1
    79    72    73    1
    80    74    72    1
    81    75    72    1
@<TRIPOS>SUBSTRUCTURE
     1 RES1        1 GROUP             0 ****  ****    0  
     2 RES2       56 GROUP             0 ****  ****    0  
     3 RES3       63 GROUP             0 ****  ****    0  
     4 RES4       70 GROUP             0 ****  ****    0  
@<TRIPOS>CRYSIN
   15.1030   11.1420   20.5580   90.0000  102.3300   90.0000    14     1
