@<TRIPOS>MOLECULE
IZEWAM
    85    96     1     0     0
SMALL
NO_CHARGES
****
Generated from the CSD

@<TRIPOS>ATOM
     1 C1       4.1537   1.1828   2.6382   C.2       1 RES1   0.0000
     2 H1       4.4702   0.2940   2.7436   H         1 RES1   0.0000
     3 C2       4.9378   2.2662   2.1611   C.2       1 RES1   0.0000
     4 H2       5.8487   2.2309   1.8947   H         1 RES1   0.0000
     5 C3       4.1406   3.3551   2.1583   C.2       1 RES1   0.0000
     6 H3       4.3921   4.2331   1.8947   H         1 RES1   0.0000
     7 C4       2.8450   2.9495   2.6216   C.2       1 RES1   0.0000
     8 C5       1.6864   3.6913   2.6648   C.2       1 RES1   0.0000
     9 C6       0.4131   3.2027   2.9517   C.2       1 RES1   0.0000
    10 C7      -0.8065   3.9282   2.9239   C.2       1 RES1   0.0000
    11 H4      -0.9095   4.8415   2.6854   H         1 RES1   0.0000
    12 C8      -1.8055   3.0788   3.3068   C.2       1 RES1   0.0000
    13 H5      -2.7281   3.2871   3.3983   H         1 RES1   0.0000
    14 C9      -1.1935   1.8293   3.5370   C.2       1 RES1   0.0000
    15 H6      -1.6589   1.0467   3.8089   H         1 RES1   0.0000
    16 C10      1.7998   5.1545   2.3858   C.ar      1 RES1   0.0000
    17 C11      2.1231   6.0733   3.3734   C.ar      1 RES1   0.0000
    18 C12      2.2110   7.4072   3.1570   C.ar      1 RES1   0.0000
    19 C13      1.9561   7.9053   1.9031   C.ar      1 RES1   0.0000
    20 C14      1.6456   7.0492   0.8960   C.ar      1 RES1   0.0000
    21 C15      1.5736   5.6908   1.1319   C.ar      1 RES1   0.0000
    22 C16      1.7717  -0.4614   1.0378   C.2       1 RES1   0.0000
    23 H7       2.5648   0.0422   0.8988   H         1 RES1   0.0000
    24 C17      1.1885  -1.2849   0.0444   C.2       1 RES1   0.0000
    25 H8       1.5215  -1.4509  -0.8295   H         1 RES1   0.0000
    26 C18      0.0487  -1.7926   0.5992   C.2       1 RES1   0.0000
    27 H9      -0.5787  -2.3656   0.1748   H         1 RES1   0.0000
    28 C19     -0.0258  -1.3012   1.9364   C.2       1 RES1   0.0000
    29 C20     -0.9405  -1.6674   2.9212   C.2       1 RES1   0.0000
    30 C21     -0.8540  -1.3407   4.2694   C.2       1 RES1   0.0000
    31 C22     -1.6501  -1.8497   5.3347   C.2       1 RES1   0.0000
    32 H10     -2.4019  -2.4255   5.2515   H         1 RES1   0.0000
    33 C23     -1.1326  -1.3570   6.4970   C.2       1 RES1   0.0000
    34 H11     -1.4475  -1.5285   7.3765   H         1 RES1   0.0000
    35 C24     -0.0402  -0.5444   6.1392   C.2       1 RES1   0.0000
    36 H12      0.5069  -0.0789   6.7606   H         1 RES1   0.0000
    37 C25     -2.1196  -2.4799   2.4607   C.ar      1 RES1   0.0000
    38 C26     -3.2461  -1.8293   1.9197   C.ar      1 RES1   0.0000
    39 C27     -4.3269  -2.5289   1.4231   C.ar      1 RES1   0.0000
    40 C28     -4.3165  -3.8832   1.4731   C.ar      1 RES1   0.0000
    41 C29     -3.2569  -4.5434   2.0168   C.ar      1 RES1   0.0000
    42 C30     -2.1541  -3.8370   2.5078   C.ar      1 RES1   0.0000
    43 C31      3.0132  -1.9722   3.8450   C.2       1 RES1   0.0000
    44 H13      2.4121  -2.3969   3.2457   H         1 RES1   0.0000
    45 C32      4.2020  -2.5480   4.2861   C.2       1 RES1   0.0000
    46 H14      4.5535  -3.3960   4.0419   H         1 RES1   0.0000
    47 C33      4.7638  -1.6306   5.1488   C.2       1 RES1   0.0000
    48 H15      5.5857  -1.7259   5.6149   H         1 RES1   0.0000
    49 C34      3.8846  -0.5186   5.2098   C.2       1 RES1   0.0000
    50 C35      4.0029   0.6002   6.0171   C.2       1 RES1   0.0000
    51 C36      3.0599   1.6102   6.1583   C.2       1 RES1   0.0000
    52 C37      3.0507   2.7072   7.0602   C.2       1 RES1   0.0000
    53 H16      3.7412   2.9346   7.6705   H         1 RES1   0.0000
    54 C38      1.8965   3.3647   6.8938   C.2       1 RES1   0.0000
    55 H17      1.6143   4.1405   7.3626   H         1 RES1   0.0000
    56 C39      1.1820   2.6841   5.8895   C.2       1 RES1   0.0000
    57 H18      0.3186   2.9373   5.5844   H         1 RES1   0.0000
    58 C40      5.2371   0.7296   6.8410   C.ar      1 RES1   0.0000
    59 C41      5.5154  -0.0789   7.9035   C.ar      1 RES1   0.0000
    60 C42      6.6872   0.0027   8.6359   C.ar      1 RES1   0.0000
    61 C43      7.6229   0.9759   8.3280   C.ar      1 RES1   0.0000
    62 C44      7.3716   1.8184   7.2738   C.ar      1 RES1   0.0000
    63 C45      6.2016   1.7000   6.5442   C.ar      1 RES1   0.0000
    64 N1       2.8936   1.5884   2.9264   N.2       1 RES1   0.0000
    65 N2       0.1366   1.8879   3.3220   N.2       1 RES1   0.0000
    66 N3       1.0960  -0.4655   2.1877   N.2       1 RES1   0.0000
    67 N4       0.1318  -0.5104   4.8012   N.2       1 RES1   0.0000
    68 N5       2.8119  -0.7527   4.3659   N.2       1 RES1   0.0000
    69 N6       1.8708   1.6347   5.4126   N.2       1 RES1   0.0000
    70 F1       2.3831   5.6064   4.6153   F         1 RES1   0.0000
    71 F2       2.5282   8.2510   4.1568   F         1 RES1   0.0000
    72 F3       2.0118   9.2256   1.6659   F         1 RES1   0.0000
    73 F4       1.3960   7.5133  -0.3473   F         1 RES1   0.0000
    74 F5       1.2266   4.8728   0.1204   F         1 RES1   0.0000
    75 F6      -3.2776  -0.4886   1.8778   F         1 RES1   0.0000
    76 F7      -5.3879  -1.8647   0.9476   F         1 RES1   0.0000
    77 F8      -5.3595  -4.5897   1.0156   F         1 RES1   0.0000
    78 F9      -3.2238  -5.8936   2.0384   F         1 RES1   0.0000
    79 F10     -1.1065  -4.5202   3.0105   F         1 RES1   0.0000
    80 F11      4.6320  -1.0317   8.2756   F         1 RES1   0.0000
    81 F12      6.9517  -0.8507   9.6415   F         1 RES1   0.0000
    82 F13      8.7696   1.0698   9.0151   F         1 RES1   0.0000
    83 F14      8.2737   2.7699   6.9495   F         1 RES1   0.0000
    84 F15      6.0102   2.5330   5.5103   F         1 RES1   0.0000
    85 Fe1      1.4682   0.5391   3.8253   Fe        1 RES1   0.0000
@<TRIPOS>BOND
     1     1     2    1
     2     3     1    2
     3     4     3    1
     4     5     3    1
     5     6     5    1
     6     7     5    2
     7     8     7    1
     8     9     8    2
     9    10     9    1
    10    11    10    1
    11    12    10    2
    12    13    12    1
    13    14    12    1
    14    15    14    1
    15    16     8    1
    16    17    16   ar
    17    18    17   ar
    18    19    18   ar
    19    20    19   ar
    20    21    16   ar
    21    22    23    1
    22    24    22    2
    23    25    24    1
    24    26    24    1
    25    27    26    1
    26    28    26    2
    27    29    28    1
    28    30    29    2
    29    31    30    1
    30    32    31    1
    31    33    31    2
    32    34    33    1
    33    35    33    1
    34    36    35    1
    35    37    29    1
    36    38    37   ar
    37    39    38   ar
    38    40    39   ar
    39    41    40   ar
    40    42    37   ar
    41    43    44    1
    42    45    43    1
    43    46    45    1
    44    47    45    2
    45    48    47    1
    46    49    47    1
    47    50    49    2
    48    51    50    1
    49    52    51    2
    50    53    52    1
    51    54    52    1
    52    55    54    1
    53    56    54    2
    54    57    56    1
    55    58    50    1
    56    59    58   ar
    57    60    59   ar
    58    61    60   ar
    59    62    61   ar
    60    63    58   ar
    61    64     1    1
    62    65     9    1
    63    66    22    1
    64    67    30    1
    65    68    43    2
    66    69    51    1
    67    70    17    1
    68    71    18    1
    69    72    19    1
    70    73    20    1
    71    74    21    1
    72    75    38    1
    73    76    39    1
    74    77    40    1
    75    78    41    1
    76    79    42    1
    77    80    59    1
    78    81    60    1
    79    82    61    1
    80    83    62    1
    81    84    63    1
    82    85    64    1
    83     7    64    1
    84    14    65    2
    85    20    21   ar
    86    28    66    1
    87    35    67    2
    88    41    42   ar
    89    49    68    1
    90    56    69    1
    91    62    63   ar
    92    65    85    1
    93    66    85    1
    94    67    85    1
    95    68    85    1
    96    69    85    1
@<TRIPOS>SUBSTRUCTURE
     1 RES1        1 GROUP             0 ****  ****    0  
@<TRIPOS>CRYSIN
   10.2500   13.6111   27.8290   90.0000   94.5460   90.0000   231     1
