@<TRIPOS>MOLECULE
JACCUP
    82    83     1     0     0
SMALL
NO_CHARGES
****
Generated from the CSD

@<TRIPOS>ATOM
     1 Fe1      0.5581   6.4189   4.0428   Fe        1 RES1   0.0000
     2 P1       1.8872   6.2465   5.7918   P.3       1 RES1   0.0000
     3 P2       0.0980   8.4356   4.7964   P.3       1 RES1   0.0000
     4 P3      -0.5455   6.7119   2.1550   P.3       1 RES1   0.0000
     5 P4       1.1238   4.4572   3.2003   P.3       1 RES1   0.0000
     6 O1      -0.8953   5.6232   5.2826   O.co2     1 RES1   0.0000
     7 O2      -2.4413   4.7855   3.8798   O.co2     1 RES1   0.0000
     8 C1      -1.9576   4.9790   5.0045   C.2       1 RES1   0.0000
     9 C2       0.2038   9.9646   3.7742   C.3       1 RES1   0.0000
    10 H1      -0.4404   9.8867   3.0265   H         1 RES1   0.0000
    11 H2      -0.0777  10.7335   4.3306   H         1 RES1   0.0000
    12 C3       2.8815   3.9017   3.1302   C.3       1 RES1   0.0000
    13 H3       3.2004   3.7512   4.0552   H         1 RES1   0.0000
    14 H4       2.9175   3.0325   2.6576   H         1 RES1   0.0000
    15 C4       0.6437   4.3540   1.4232   C.3       1 RES1   0.0000
    16 H5       1.3598   4.7390   0.8583   H         1 RES1   0.0000
    17 H6       0.5182   3.4070   1.1631   H         1 RES1   0.0000
    18 C5       1.4855   7.5954   6.9966   C.3       1 RES1   0.0000
    19 H7       0.6954   7.3420   7.5366   H         1 RES1   0.0000
    20 H8       2.2491   7.7392   7.6100   H         1 RES1   0.0000
    21 C6      -1.5794   8.6235   5.5306   C.3       1 RES1   0.0000
    22 H9      -2.2368   8.5582   4.7933   H         1 RES1   0.0000
    23 H10     -1.7334   7.8472   6.1254   H         1 RES1   0.0000
    24 C7       0.2915   2.9580   3.8888   C.3       1 RES1   0.0000
    25 H11      0.4654   2.9356   4.8631   H         1 RES1   0.0000
    26 H12     -0.6846   3.0715   3.7689   H         1 RES1   0.0000
    27 C8      -0.6594   5.1288   1.2114   C.3       1 RES1   0.0000
    28 H13     -1.4284   4.5953   1.5341   H         1 RES1   0.0000
    29 H14     -0.7909   5.3160   0.2481   H         1 RES1   0.0000
    30 C9       3.7108   6.3950   5.6209   C.3       1 RES1   0.0000
    31 H15      4.1124   6.3445   6.5244   H         1 RES1   0.0000
    32 H16      4.0390   5.6150   5.1072   H         1 RES1   0.0000
    33 C10      0.1835   7.8311   0.8754   C.3       1 RES1   0.0000
    34 H17     -0.4292   7.8427   0.0978   H         1 RES1   0.0000
    35 H18      0.1997   8.7482   1.2481   H         1 RES1   0.0000
    36 C11      1.1949   8.8762   6.2160   C.3       1 RES1   0.0000
    37 H19      2.0394   9.2723   5.8843   H         1 RES1   0.0000
    38 H20      0.7469   9.5376   6.8007   H         1 RES1   0.0000
    39 C12     -2.2741   7.3579   2.1351   C.3       1 RES1   0.0000
    40 H21     -2.7710   6.9124   2.8664   H         1 RES1   0.0000
    41 H22     -2.2380   8.3229   2.3531   H         1 RES1   0.0000
    42 C13      3.8422   4.8713   2.4370   C.3       1 RES1   0.0000
    43 H23      3.6772   4.8602   1.4712   H         1 RES1   0.0000
    44 H24      4.7665   4.5974   2.6137   H         1 RES1   0.0000
    45 H25      3.6982   5.7769   2.7827   H         1 RES1   0.0000
    46 C14      1.7595   4.7547   6.8594   C.3       1 RES1   0.0000
    47 H26      0.8029   4.6164   7.0737   H         1 RES1   0.0000
    48 H27      2.0552   3.9745   6.3266   H         1 RES1   0.0000
    49 C15      1.5840  10.2674   3.1939   C.3       1 RES1   0.0000
    50 H28      1.5249  11.0435   2.5984   H         1 RES1   0.0000
    51 H29      1.9031   9.4910   2.6879   H         1 RES1   0.0000
    52 H30      2.2095  10.4617   3.9228   H         1 RES1   0.0000
    53 C16     -2.6384   4.3736   6.1995   C.2       1 RES1   0.0000
    54 H31     -2.3173   4.5931   7.0662   H         1 RES1   0.0000
    55 C17     -3.6578   3.5542   6.0954   C.2       1 RES1   0.0000
    56 C18     -3.0897   7.2007   0.8563   C.3       1 RES1   0.0000
    57 H32     -2.6380   7.6661   0.1216   H         1 RES1   0.0000
    58 H33     -3.9811   7.5859   0.9880   H         1 RES1   0.0000
    59 H34     -3.1740   6.2492   0.6376   H         1 RES1   0.0000
    60 C19      4.2183   7.6627   4.9422   C.3       1 RES1   0.0000
    61 H35      3.6976   7.8285   4.1288   H         1 RES1   0.0000
    62 H36      5.1635   7.5519   4.7081   H         1 RES1   0.0000
    63 H37      4.1201   8.4223   5.5536   H         1 RES1   0.0000
    64 C20      2.5390   4.7461   8.1737   C.3       1 RES1   0.0000
    65 H38      3.5003   4.7484   7.9833   H         1 RES1   0.0000
    66 H39      2.3091   3.9420   8.6845   H         1 RES1   0.0000
    67 H40      2.3075   5.5423   8.6960   H         1 RES1   0.0000
    68 C21      1.5821   7.5105   0.3631   C.3       1 RES1   0.0000
    69 H41      1.5521   6.6954  -0.1801   H         1 RES1   0.0000
    70 H42      2.1852   7.3743   1.1235   H         1 RES1   0.0000
    71 H43      1.9086   8.2555  -0.1834   H         1 RES1   0.0000
    72 C22      0.6765   1.6015   3.3156   C.3       1 RES1   0.0000
    73 H44      0.5316   1.6034   2.3465   H         1 RES1   0.0000
    74 H45      0.1240   0.9044   3.7272   H         1 RES1   0.0000
    75 H46      1.6214   1.4234   3.5045   H         1 RES1   0.0000
    76 C23     -1.9043   9.8805   6.3242   C.3       1 RES1   0.0000
    77 H47     -1.6444  10.6704   5.8057   H         1 RES1   0.0000
    78 H48     -1.4110   9.8688   7.1709   H         1 RES1   0.0000
    79 H49     -2.8665   9.9118   6.5070   H         1 RES1   0.0000
    80 H50      1.6670   6.9764   3.2940   H         1 RES1   0.0000
    81 H51     -4.0055   3.3603   5.2097   H         1 RES1   0.0000
    82 H52     -4.0802   3.1387   6.8479   H         1 RES1   0.0000
@<TRIPOS>BOND
     1     1     2    1
     2     2    18    1
     3     3     1    1
     4     4     1    1
     5     5     1    1
     6     6     1    1
     7     7     8    2
     8     8     6    1
     9     9     3    1
    10    10     9    1
    11    11     9    1
    12    12     5    1
    13    13    12    1
    14    14    12    1
    15    15     5    1
    16    16    15    1
    17    17    15    1
    18    18    19    1
    19    20    18    1
    20    21     3    1
    21    22    21    1
    22    23    21    1
    23    24     5    1
    24    25    24    1
    25    26    24    1
    26    27     4    1
    27    28    27    1
    28    29    27    1
    29    30     2    1
    30    31    30    1
    31    32    30    1
    32    33     4    1
    33    34    33    1
    34    35    33    1
    35    36     3    1
    36    37    36    1
    37    38    36    1
    38    39     4    1
    39    40    39    1
    40    41    39    1
    41    42    12    1
    42    43    42    1
    43    44    42    1
    44    45    42    1
    45    46     2    1
    46    47    46    1
    47    48    46    1
    48    49     9    1
    49    50    49    1
    50    51    49    1
    51    52    49    1
    52    53     8    1
    53    54    53    1
    54    55    53    2
    55    56    39    1
    56    57    56    1
    57    58    56    1
    58    59    56    1
    59    60    30    1
    60    61    60    1
    61    62    60    1
    62    63    60    1
    63    64    46    1
    64    65    64    1
    65    66    64    1
    66    67    64    1
    67    68    33    1
    68    69    68    1
    69    70    68    1
    70    71    68    1
    71    72    24    1
    72    73    72    1
    73    74    72    1
    74    75    72    1
    75    76    21    1
    76    77    76    1
    77    78    76    1
    78    79    76    1
    79    80     1    1
    80    81    55    1
    81    82    55    1
    82    15    27    1
    83    18    36    1
@<TRIPOS>SUBSTRUCTURE
     1 RES1        1 GROUP             0 ****  ****    0  
@<TRIPOS>CRYSIN
    9.4746   10.4092   16.5548   94.4780   99.9790  116.8130     2     1
