@<TRIPOS>MOLECULE
JACDAW
    79    81     1     0     0
SMALL
NO_CHARGES
****
Generated from the CSD

@<TRIPOS>ATOM
     1 Fe1      0.9485   4.5556   2.6479   Fe        1 RES1   0.0000
     2 P1       0.9482   3.8283   4.7199   P.3       1 RES1   0.0000
     3 P2      -0.2455   6.1867   3.4710   P.3       1 RES1   0.0000
     4 C1      -0.3289   6.1340   5.3314   C.3       1 RES1   0.0000
     5 H1      -0.2659   7.0502   5.7010   H         1 RES1   0.0000
     6 H2      -1.1881   5.7375   5.6225   H         1 RES1   0.0000
     7 C2       0.8304   5.2898   5.8290   C.3       1 RES1   0.0000
     8 H3       0.6696   5.0009   6.7621   H         1 RES1   0.0000
     9 H4       1.6718   5.8109   5.8012   H         1 RES1   0.0000
    10 C3      -0.4339   2.7878   5.3568   C.3       1 RES1   0.0000
    11 H5      -1.2822   3.2258   5.0946   H         1 RES1   0.0000
    12 H6      -0.3972   1.9200   4.8818   H         1 RES1   0.0000
    13 C4       2.4015   3.0092   5.4921   C.3       1 RES1   0.0000
    14 H7       3.2193   3.4805   5.1932   H         1 RES1   0.0000
    15 H8       2.3369   3.1221   6.4736   H         1 RES1   0.0000
    16 C5      -2.0556   6.3177   3.1108   C.3       1 RES1   0.0000
    17 H9      -2.1596   6.3798   2.1282   H         1 RES1   0.0000
    18 H10     -2.4774   5.4677   3.3930   H         1 RES1   0.0000
    19 C6       0.2760   7.9541   3.2383   C.3       1 RES1   0.0000
    20 H11      0.3478   8.1394   2.2684   H         1 RES1   0.0000
    21 H12     -0.4288   8.5446   3.6052   H         1 RES1   0.0000
    22 C7       2.8755   5.2065   2.9465   C.2       1 RES1   0.0000
    23 H13      3.1522   5.9259   2.4086   H         1 RES1   0.0000
    24 H14      3.1657   5.2991   3.8607   H         1 RES1   0.0000
    25 C8      -0.5129   2.4910   6.8507   C.3       1 RES1   0.0000
    26 H15     -0.7051   3.3189   7.3386   H         1 RES1   0.0000
    27 H16      0.3424   2.1227   7.1563   H         1 RES1   0.0000
    28 H17     -1.2267   1.8405   7.0172   H         1 RES1   0.0000
    29 C9       1.6002   8.3029   3.9019   C.3       1 RES1   0.0000
    30 H18      2.2963   7.6907   3.5838   H         1 RES1   0.0000
    31 H19      1.5107   8.2188   4.8741   H         1 RES1   0.0000
    32 H20      1.8468   9.2239   3.6750   H         1 RES1   0.0000
    33 C10     -2.8532   7.4457   3.7238   C.3       1 RES1   0.0000
    34 H21     -3.8009   7.3350   3.5000   H         1 RES1   0.0000
    35 H22     -2.5322   8.3020   3.3713   H         1 RES1   0.0000
    36 H23     -2.7437   7.4317   4.6975   H         1 RES1   0.0000
    37 C11      2.5668   1.5278   5.1914   C.3       1 RES1   0.0000
    38 H24      2.5893   1.3920   4.2211   H         1 RES1   0.0000
    39 H25      1.8135   1.0309   5.5735   H         1 RES1   0.0000
    40 H26      3.4042   1.2058   5.5858   H         1 RES1   0.0000
    41 C7B      2.8755   3.9047   2.3493   C.2       1 RES1   0.0000
    42 H13B     3.1522   3.1853   2.8873   H         1 RES1   0.0000
    43 H14B     3.1657   3.8121   1.4352   H         1 RES1   0.0000
    44 P1B      0.9482   5.2829   0.5760   P.3       1 RES1   0.0000
    45 P2B     -0.2455   2.9245   1.8248   P.3       1 RES1   0.0000
    46 C1B     -0.3289   2.9772  -0.0356   C.3       1 RES1   0.0000
    47 H1B     -0.2659   2.0610  -0.4051   H         1 RES1   0.0000
    48 H2B     -1.1881   3.3737  -0.3266   H         1 RES1   0.0000
    49 C2B      0.8304   3.8214  -0.5332   C.3       1 RES1   0.0000
    50 H3B      0.6696   4.1103  -1.4663   H         1 RES1   0.0000
    51 H4B      1.6718   3.3003  -0.5053   H         1 RES1   0.0000
    52 C3B     -0.4339   6.3234  -0.0609   C.3       1 RES1   0.0000
    53 H5B     -1.2822   5.8854   0.2013   H         1 RES1   0.0000
    54 H6B     -0.3972   7.1912   0.4140   H         1 RES1   0.0000
    55 C4B      2.4015   6.1020  -0.1963   C.3       1 RES1   0.0000
    56 H7B      3.2193   5.6307   0.1027   H         1 RES1   0.0000
    57 H8B      2.3369   5.9891  -1.1777   H         1 RES1   0.0000
    58 C5B     -2.0556   2.7935   2.1851   C.3       1 RES1   0.0000
    59 H9B     -2.1596   2.7314   3.1676   H         1 RES1   0.0000
    60 H10B    -2.4774   3.6435   1.9028   H         1 RES1   0.0000
    61 C6B      0.2760   1.1571   2.0575   C.3       1 RES1   0.0000
    62 H11B     0.3478   0.9718   3.0274   H         1 RES1   0.0000
    63 H12B    -0.4288   0.5666   1.6906   H         1 RES1   0.0000
    64 C8B     -0.5129   6.6202  -1.5549   C.3       1 RES1   0.0000
    65 H15B    -0.7051   5.7923  -2.0428   H         1 RES1   0.0000
    66 H16B     0.3424   6.9885  -1.8604   H         1 RES1   0.0000
    67 H17B    -1.2267   7.2707  -1.7213   H         1 RES1   0.0000
    68 C9B      1.6002   0.8083   1.3940   C.3       1 RES1   0.0000
    69 H18B     2.2963   1.4205   1.7121   H         1 RES1   0.0000
    70 H19B     1.5107   0.8924   0.4217   H         1 RES1   0.0000
    71 H20B     1.8468  -0.1127   1.6209   H         1 RES1   0.0000
    72 C10B    -2.8532   1.6655   1.5720   C.3       1 RES1   0.0000
    73 H21B    -3.8009   1.7762   1.7959   H         1 RES1   0.0000
    74 H22B    -2.5322   0.8092   1.9245   H         1 RES1   0.0000
    75 H23B    -2.7437   1.6795   0.5983   H         1 RES1   0.0000
    76 C11B     2.5668   7.5834   0.1044   C.3       1 RES1   0.0000
    77 H24B     2.5893   7.7192   1.0748   H         1 RES1   0.0000
    78 H25B     1.8135   8.0803  -0.2776   H         1 RES1   0.0000
    79 H26B     3.4042   7.9054  -0.2899   H         1 RES1   0.0000
@<TRIPOS>BOND
     1     1     2    1
     2     2     7    1
     3     3     1    1
     4     4     3    1
     5     5     4    1
     6     6     4    1
     7     7     4    1
     8     8     7    1
     9     9     7    1
    10    10     2    1
    11    11    10    1
    12    12    10    1
    13    13     2    1
    14    14    13    1
    15    15    13    1
    16    16     3    1
    17    17    16    1
    18    18    16    1
    19    19     3    1
    20    20    19    1
    21    21    19    1
    22    22     1   un
    23    23    22    1
    24    24    22    1
    25    25    10    1
    26    26    25    1
    27    27    25    1
    28    28    25    1
    29    29    19    1
    30    30    29    1
    31    31    29    1
    32    32    29    1
    33    33    16    1
    34    34    33    1
    35    35    33    1
    36    36    33    1
    37    37    13    1
    38    38    37    1
    39    39    37    1
    40    40    37    1
    41    41     1   un
    42    42    41    1
    43    43    41    1
    44    44     1    1
    45    45     1    1
    46    46    45    1
    47    47    46    1
    48    48    46    1
    49    49    44    1
    50    50    49    1
    51    51    49    1
    52    52    44    1
    53    53    52    1
    54    54    52    1
    55    55    44    1
    56    56    55    1
    57    57    55    1
    58    58    45    1
    59    59    58    1
    60    60    58    1
    61    61    45    1
    62    62    61    1
    63    63    61    1
    64    64    52    1
    65    65    64    1
    66    66    64    1
    67    67    64    1
    68    68    61    1
    69    69    68    1
    70    70    68    1
    71    71    68    1
    72    72    58    1
    73    73    72    1
    74    74    72    1
    75    75    72    1
    76    76    55    1
    77    77    76    1
    78    78    76    1
    79    79    76    1
    80    22    41    2
    81    46    49    1
@<TRIPOS>SUBSTRUCTURE
     1 RES1        1 GROUP             0 ****  ****    0  
@<TRIPOS>CRYSIN
   13.5694   18.2224   10.5917   90.0000   90.0000   90.0000    52     1
