@<TRIPOS>MOLECULE
JADYIA
    91   100     3     0     0
SMALL
USER_CHARGES
****
Generated from the CSD

@<TRIPOS>ATOM
     1 Fe1      7.9651   3.1505  11.0635   Fe        1 RES1   2.0000
     2 N1       9.8976   0.9201  11.0482   N.pl3     1 RES1   0.0000
     3 N2       9.3443   1.9434  10.3203   N.2       1 RES1   0.0000
     4 N3      11.1120   1.9503  12.8357   N.pl3     1 RES1   0.0000
     5 N4       9.5806   5.6676  10.9093   N.pl3     1 RES1   0.0000
     6 N5       7.9659   2.2565  12.8196   N.ar      1 RES1   0.0000
     7 N6       6.5168   4.1905  11.8944   N.ar      1 RES1   0.0000
     8 N7      11.1608   2.4584  14.1058   N.2       1 RES1   0.0000
     9 N8       9.2153   4.5820  11.6796   N.2       1 RES1   0.0000
    10 N9      10.7625   4.8439   9.0136   N.pl3     1 RES1   0.0000
    11 C1      12.7302   3.9334   8.7695   C.2       1 RES1   0.0000
    12 H1      13.6141   3.6172   8.9160   H         1 RES1   0.0000
    13 N10     10.7604   4.3595   7.7362   N.2       1 RES1   0.0000
    14 N11      7.6942   4.0278   9.3308   N.ar      1 RES1   0.0000
    15 N12      6.5990   1.8858  10.3568   N.ar      1 RES1   0.0000
    16 C2      10.0559   0.9729  12.4791   C.3       1 RES1   0.0000
    17 H2      10.3740   0.0718  12.7760   H         1 RES1   0.0000
    18 C3       8.7914   1.2835  13.2610   C.ar      1 RES1   0.0000
    19 C4       8.5758   0.5659  14.4449   C.ar      1 RES1   0.0000
    20 H3       9.1696  -0.1266  14.7104   H         1 RES1   0.0000
    21 C5       7.4811   0.8916  15.2152   C.ar      1 RES1   0.0000
    22 H4       7.3033   0.4142  16.0166   H         1 RES1   0.0000
    23 C6       6.6342   1.9246  14.8147   C.ar      1 RES1   0.0000
    24 H5       5.8862   2.1730  15.3450   H         1 RES1   0.0000
    25 C7       6.9098   2.5888  13.6089   C.ar      1 RES1   0.0000
    26 C8       6.1101   3.7048  13.1002   C.ar      1 RES1   0.0000
    27 C9       5.0605   4.2925  13.8150   C.ar      1 RES1   0.0000
    28 H6       4.7740   3.9261  14.6436   H         1 RES1   0.0000
    29 C10      4.4437   5.4295  13.2859   C.ar      1 RES1   0.0000
    30 H7       3.7248   5.8455  13.7472   H         1 RES1   0.0000
    31 C11      4.8893   5.9371  12.0903   C.ar      1 RES1   0.0000
    32 H8       4.4930   6.7206  11.7280   H         1 RES1   0.0000
    33 C12      5.9251   5.2978  11.4136   C.ar      1 RES1   0.0000
    34 H9       6.2219   5.6554  10.5847   H         1 RES1   0.0000
    35 C13     10.5244   0.0428  10.2224   C.2       1 RES1   0.0000
    36 H10     11.0149  -0.7260  10.4893   H         1 RES1   0.0000
    37 C14     10.3208   0.4650   8.9318   C.2       1 RES1   0.0000
    38 H11     10.6126   0.0389   8.1349   H         1 RES1   0.0000
    39 C15      9.5960   1.6529   9.0370   C.2       1 RES1   0.0000
    40 H12      9.3200   2.1838   8.2994   H         1 RES1   0.0000
    41 C16     12.1541   2.3723  12.0727   C.2       1 RES1   0.0000
    42 H13     12.3188   2.1411  11.1663   H         1 RES1   0.0000
    43 C17     12.9347   3.2044  12.8678   C.2       1 RES1   0.0000
    44 H14     13.7352   3.6546  12.6254   H         1 RES1   0.0000
    45 C18     12.2726   3.2303  14.1160   C.2       1 RES1   0.0000
    46 H15     12.5709   3.7271  14.8693   H         1 RES1   0.0000
    47 C19      9.5933   5.6300   9.4667   C.3       1 RES1   0.0000
    48 H16      9.7210   6.5682   9.1445   H         1 RES1   0.0000
    49 C20      8.3170   5.0869   8.8032   C.ar      1 RES1   0.0000
    50 C21      7.9098   5.7078   7.6295   C.ar      1 RES1   0.0000
    51 H17      8.3848   6.4606   7.2974   H         1 RES1   0.0000
    52 C22      6.8046   5.2217   6.9469   C.ar      1 RES1   0.0000
    53 H18      6.5100   5.6373   6.1445   H         1 RES1   0.0000
    54 C23      6.1320   4.1058   7.4614   C.ar      1 RES1   0.0000
    55 H19      5.3757   3.7470   7.0127   H         1 RES1   0.0000
    56 C24      6.5933   3.5332   8.6453   C.ar      1 RES1   0.0000
    57 C25      5.9862   2.3102   9.2241   C.ar      1 RES1   0.0000
    58 C26      4.9259   1.6045   8.6526   C.ar      1 RES1   0.0000
    59 H20      4.4956   1.9337   7.8726   H         1 RES1   0.0000
    60 C27      4.5012   0.3975   9.2460   C.ar      1 RES1   0.0000
    61 H21      3.7650  -0.0816   8.8842   H         1 RES1   0.0000
    62 C28      5.1654  -0.0814  10.3568   C.ar      1 RES1   0.0000
    63 H22      4.9180  -0.9070  10.7550   H         1 RES1   0.0000
    64 C29      6.2136   0.6851  10.8801   C.ar      1 RES1   0.0000
    65 H23      6.6807   0.3527  11.6369   H         1 RES1   0.0000
    66 C30     10.1174   6.6550  11.6898   C.2       1 RES1   0.0000
    67 H24     10.4406   7.4962  11.3903   H         1 RES1   0.0000
    68 C31     10.0995   6.2074  12.9702   C.2       1 RES1   0.0000
    69 H25     10.4163   6.6656  13.7394   H         1 RES1   0.0000
    70 C32      9.5179   4.9302  12.9292   C.2       1 RES1   0.0000
    71 H26      9.3615   4.3857  13.6914   H         1 RES1   0.0000
    72 C33     11.9690   3.8004   7.6295   C.2       1 RES1   0.0000
    73 H27     12.2717   3.3548   6.8472   H         1 RES1   0.0000
    74 C34     11.9259   4.6316   9.6567   C.2       1 RES1   0.0000
    75 H28     12.1494   4.9046  10.5387   H         1 RES1   0.0000
    76 S1       3.4820   3.3528   4.6841   S.o2      2 RES2   0.0000
    77 F1       3.5968   1.6778   2.6674   F         2 RES2   0.0000
    78 F2       5.2524   3.0641   2.7536   F         2 RES2   0.0000
    79 F3       3.3272   3.7357   2.0828   F         2 RES2   0.0000
    80 O1       4.0899   2.2748   5.4532   O.2       2 RES2   0.0000
    81 O2       4.0982   4.6642   4.8949   O.3       2 RES2  -1.0000
    82 O3       2.0481   3.3362   4.6756   O.2       2 RES2   0.0000
    83 C35      3.9282   2.9428   2.9466   C.3       2 RES2   0.0000
    84 S2       9.1635   3.2068   2.5647   S.o2      3 RES3   0.0000
    85 F4       9.3515   2.5827   5.1258   F         3 RES3   0.0000
    86 F5       7.6061   3.7041   4.5967   F         3 RES3   0.0000
    87 F6       9.5128   4.7037   4.6917   F         3 RES3   0.0000
    88 O4      10.5992   3.0152   2.4759   O.2       3 RES3   0.0000
    89 O5       8.3795   2.0128   2.3663   O.2       3 RES3   0.0000
    90 O6       8.6729   4.3962   1.8928   O.3       3 RES3  -1.0000
    91 C36      8.9369   3.5747   4.3497   C.3       3 RES3   0.0000
@<TRIPOS>BOND
     1     1     3    1
     2     2     3    1
     3     3    39    2
     4     4     8    1
     5     5     9    1
     6     6     1    1
     7     7     1    1
     8     8    45    2
     9     9     1    1
    10    10    13    1
    11    11    12    1
    12    13    72    2
    13    14     1    1
    14    15     1    1
    15    16     2    1
    16    17    16    1
    17    18     6   ar
    18    19    18   ar
    19    20    19    1
    20    21    19   ar
    21    22    21    1
    22    23    21   ar
    23    24    23    1
    24    25     6   ar
    25    26     7   ar
    26    27    26   ar
    27    28    27    1
    28    29    27   ar
    29    30    29    1
    30    31    29   ar
    31    32    31    1
    32    33     7   ar
    33    34    33    1
    34    35     2    1
    35    36    35    1
    36    37    35    2
    37    38    37    1
    38    39    37    1
    39    40    39    1
    40    41     4    1
    41    42    41    1
    42    43    41    2
    43    44    43    1
    44    45    43    1
    45    46    45    1
    46    47     5    1
    47    48    47    1
    48    49    14   ar
    49    50    49   ar
    50    51    50    1
    51    52    50   ar
    52    53    52    1
    53    54    52   ar
    54    55    54    1
    55    56    14   ar
    56    57    15   ar
    57    58    57   ar
    58    59    58    1
    59    60    58   ar
    60    61    60    1
    61    62    60   ar
    62    63    62    1
    63    64    15   ar
    64    65    64    1
    65    66     5    1
    66    67    66    1
    67    68    66    2
    68    69    68    1
    69    70     9    2
    70    71    70    1
    71    72    11    1
    72    73    72    1
    73    74    10    1
    74    75    74    1
    75     4    16    1
    76    10    47    1
    77    11    74    2
    78    16    18    1
    79    23    25   ar
    80    25    26    1
    81    31    33   ar
    82    47    49    1
    83    54    56   ar
    84    56    57    1
    85    62    64   ar
    86    68    70    1
    87    76    80    2
    88    77    83    1
    89    78    83    1
    90    79    83    1
    91    81    76    1
    92    82    76    2
    93    83    76    1
    94    84    88    2
    95    85    91    1
    96    86    91    1
    97    87    91    1
    98    89    84    2
    99    90    84    1
   100    91    84    1
@<TRIPOS>SUBSTRUCTURE
     1 RES1        1 GROUP             0 ****  ****    0  
     2 RES2       76 GROUP             0 ****  ****    0  
     3 RES3       84 GROUP             0 ****  ****    0  
@<TRIPOS>CRYSIN
   11.3870   13.1450   15.6760   80.0210   68.8720   65.7030     2     1
