@<TRIPOS>MOLECULE
JAFNAJ
    86    95     1     0     0
SMALL
NO_CHARGES
****
Generated from the CSD

@<TRIPOS>ATOM
     1 Fe1      3.3222   4.9950   3.8114   Fe        1 RES1   0.0000
     2 O1       5.3203   3.0381   4.5460   O.3       1 RES1   0.0000
     3 O2       1.2707   5.9876   5.5743   O.3       1 RES1   0.0000
     4 O3       5.7504   4.1990   2.4518   O.3       1 RES1   0.0000
     5 O4       2.6335   7.7095   4.5210   O.3       1 RES1   0.0000
     6 O5       4.0175   2.4903   2.5696   O.3       1 RES1   0.0000
     7 O6       0.9540   6.5464   3.2016   O.3       1 RES1   0.0000
     8 N1       4.2686   3.8352   4.9742   N.2       1 RES1   0.0000
     9 N2       2.2912   5.0837   5.4136   N.2       1 RES1   0.0000
    10 N3       4.9861   5.2527   2.9216   N.2       1 RES1   0.0000
    11 N4       3.0562   3.4907   2.6791   N.2       1 RES1   0.0000
    12 N5       3.6186   6.8662   4.0332   N.2       1 RES1   0.0000
    13 N6       1.7396   5.4569   2.8745   N.2       1 RES1   0.0000
    14 B1       5.3528   2.9056   3.0713   B         1 RES1   0.0000
    15 B2       1.2896   7.0865   4.5737   B         1 RES1   0.0000
    16 C1       3.8030   3.5849   6.1675   C.2       1 RES1   0.0000
    17 C2       2.7071   4.4437   6.4725   C.2       1 RES1   0.0000
    18 C3       2.1466   4.6550   7.8570   C.3       1 RES1   0.0000
    19 C4       1.7981   3.5667   8.6068   C.3       1 RES1   0.0000
    20 C5       2.6838   2.4460   9.0115   C.3       1 RES1   0.0000
    21 C6       3.2327   1.7529   7.7988   C.3       1 RES1   0.0000
    22 C7       4.3364   2.5054   7.0615   C.3       1 RES1   0.0000
    23 C8       5.5512   6.4350   2.9438   C.2       1 RES1   0.0000
    24 C9       4.6539   7.4148   3.5079   C.2       1 RES1   0.0000
    25 C10      4.8996   8.8857   3.4206   C.3       1 RES1   0.0000
    26 C11      6.1497   9.3773   4.1163   C.3       1 RES1   0.0000
    27 C12      7.4546   9.0160   3.4413   C.3       1 RES1   0.0000
    28 C13      7.7601   7.5467   3.3831   C.3       1 RES1   0.0000
    29 C14      6.9339   6.6964   2.4393   C.3       1 RES1   0.0000
    30 C15      2.0909   3.4922   1.8142   C.2       1 RES1   0.0000
    31 C16      1.2216   4.6207   2.0055   C.2       1 RES1   0.0000
    32 C17     -0.0630   4.8436   1.2848   C.3       1 RES1   0.0000
    33 C18     -0.9798   3.6639   1.1476   C.3       1 RES1   0.0000
    34 C19     -0.5147   2.5699   0.1926   C.3       1 RES1   0.0000
    35 C20      0.6550   1.7776   0.6958   C.3       1 RES1   0.0000
    36 C21      1.9578   2.4602   0.7387   C.3       1 RES1   0.0000
    37 C22      6.4083   1.7989   2.7109   C.3       1 RES1   0.0000
    38 C23      6.5855   1.4673   1.3056   C.3       1 RES1   0.0000
    39 C24      7.5140   0.2890   1.0575   C.3       1 RES1   0.0000
    40 C25      0.2013   8.1535   4.9631   C.3       1 RES1   0.0000
    41 C26      0.3205   8.7070   6.3449   C.3       1 RES1   0.0000
    42 C27     -0.7918   9.6870   6.7122   C.3       1 RES1   0.0000
    43 H1       4.0457   9.3958   3.8639   H         1 RES1   0.0000
    44 H2       4.9746   9.1518   2.3672   H         1 RES1   0.0000
    45 H3       5.0005   2.9580   7.7964   H         1 RES1   0.0000
    46 H4       4.8966   1.7956   6.4546   H         1 RES1   0.0000
    47 H5       0.7623   0.9061   0.0518   H         1 RES1   0.0000
    48 H6       0.4207   1.4539   1.7088   H         1 RES1   0.0000
    49 H7       2.7294   1.7077   0.8941   H         1 RES1   0.0000
    50 H8       2.1157   2.9493  -0.2214   H         1 RES1   0.0000
    51 H9      -1.9432   4.0286   0.7941   H         1 RES1   0.0000
    52 H10     -1.1002   3.2177   2.1337   H         1 RES1   0.0000
    53 H11      6.1118   0.8863   3.2258   H         1 RES1   0.0000
    54 H12      7.3727   2.1329   3.0907   H         1 RES1   0.0000
    55 H13      7.6247   7.1455   4.3865   H         1 RES1   0.0000
    56 H14      8.8031   7.4420   3.0880   H         1 RES1   0.0000
    57 H15      6.9960   2.3389   0.7978   H         1 RES1   0.0000
    58 H16      5.6098   1.2282   0.8850   H         1 RES1   0.0000
    59 H17      8.2615   9.5064   3.9839   H         1 RES1   0.0000
    60 H18      7.4215   9.3937   2.4205   H         1 RES1   0.0000
    61 H19      1.2522   5.2667   7.7486   H         1 RES1   0.0000
    62 H20      2.8963   5.2053   8.4236   H         1 RES1   0.0000
    63 H21      6.1630   8.9556   5.1202   H         1 RES1   0.0000
    64 H22      6.0938  10.4630   4.1794   H         1 RES1   0.0000
    65 H23      2.1132   1.7335   9.6053   H         1 RES1   0.0000
    66 H24      3.5082   2.8363   9.6064   H         1 RES1   0.0000
    67 H25      2.4112   1.5929   7.1021   H         1 RES1   0.0000
    68 H26      3.6340   0.7908   8.1140   H         1 RES1   0.0000
    69 H27      0.1791   5.1902   0.2812   H         1 RES1   0.0000
    70 H28     -0.6073   5.6228   1.8165   H         1 RES1   0.0000
    71 H29     -0.2325   3.0358  -0.7503   H         1 RES1   0.0000
    72 H30     -1.3452   1.8857   0.0253   H         1 RES1   0.0000
    73 H31      0.9819   3.0973   8.0597   H         1 RES1   0.0000
    74 H32      1.4193   3.9780   9.5413   H         1 RES1   0.0000
    75 H33      6.8622   7.2109   1.4822   H         1 RES1   0.0000
    76 H34      7.4388   5.7415   2.3011   H         1 RES1   0.0000
    77 H35      1.2753   9.2243   6.4268   H         1 RES1   0.0000
    78 H36      0.2952   7.8780   7.0507   H         1 RES1   0.0000
    79 H37     -0.7777   7.6856   4.8708   H         1 RES1   0.0000
    80 H38      0.2752   8.9823   4.2605   H         1 RES1   0.0000
    81 H39     -1.7552   9.1837   6.6468   H         1 RES1   0.0000
    82 H40     -0.6381  10.0461   7.7287   H         1 RES1   0.0000
    83 H41     -0.7750  10.5300   6.0230   H         1 RES1   0.0000
    84 H42      7.1145  -0.5976   1.5477   H         1 RES1   0.0000
    85 H43      7.5921   0.1075  -0.0134   H         1 RES1   0.0000
    86 H44      8.5006   0.5131   1.4605   H         1 RES1   0.0000
@<TRIPOS>BOND
     1     1     8    1
     2     2     8    1
     3     3     9    1
     4     4    10    1
     5     5    12    1
     6     6    11    1
     7     7    13    1
     8     8    16    2
     9     9     1    1
    10    10     1    1
    11    11     1    1
    12    12     1    1
    13    13     1    1
    14    14     2    1
    15    15     3    1
    16    16    17    1
    17    17     9    2
    18    18    17    1
    19    19    18    1
    20    20    19    1
    21    21    20    1
    22    22    16    1
    23    23    10    2
    24    24    12    2
    25    25    24    1
    26    26    25    1
    27    27    26    1
    28    28    27    1
    29    29    23    1
    30    30    11    2
    31    31    13    2
    32    32    31    1
    33    33    32    1
    34    34    33    1
    35    35    34    1
    36    36    30    1
    37    37    14    1
    38    38    37    1
    39    39    38    1
    40    40    15    1
    41    41    40    1
    42    42    41    1
    43    43    25    1
    44    44    25    1
    45    45    22    1
    46    46    22    1
    47    47    35    1
    48    48    35    1
    49    49    36    1
    50    50    36    1
    51    51    33    1
    52    52    33    1
    53    53    37    1
    54    54    37    1
    55    55    28    1
    56    56    28    1
    57    57    38    1
    58    58    38    1
    59    59    27    1
    60    60    27    1
    61    61    18    1
    62    62    18    1
    63    63    26    1
    64    64    26    1
    65    65    20    1
    66    66    20    1
    67    67    21    1
    68    68    21    1
    69    69    32    1
    70    70    32    1
    71    71    34    1
    72    72    34    1
    73    73    19    1
    74    74    19    1
    75    75    29    1
    76    76    29    1
    77    77    41    1
    78    78    41    1
    79    79    40    1
    80    80    40    1
    81    81    42    1
    82    82    42    1
    83    83    42    1
    84    84    39    1
    85    85    39    1
    86    86    39    1
    87     4    14    1
    88     5    15    1
    89     6    14    1
    90     7    15    1
    91    21    22    1
    92    23    24    1
    93    28    29    1
    94    30    31    1
    95    35    36    1
@<TRIPOS>SUBSTRUCTURE
     1 RES1        1 GROUP             0 ****  ****    0  
@<TRIPOS>CRYSIN
   11.0780   10.6590   14.5590  107.2800  100.0000   69.5100     2     1
