@<TRIPOS>MOLECULE
JAFNEN
   106   114     2     0     0
SMALL
NO_CHARGES
****
Generated from the CSD

@<TRIPOS>ATOM
     1 Fe1     -1.1628   0.7514   7.1287   Fe        1 RES1   0.0000
     2 O1      -3.8162   0.8882   6.0472   O.3       1 RES1   0.0000
     3 O2      -0.2869   1.8772   9.6358   O.3       1 RES1   0.0000
     4 O3      -2.0529   1.8254   4.6134   O.3       1 RES1   0.0000
     5 O4       1.5126   1.0375   8.1923   O.3       1 RES1   0.0000
     6 O5      -2.2696  -0.6114   4.8427   O.3       1 RES1   0.0000
     7 O6       0.0801  -0.5389   9.3844   O.3       1 RES1   0.0000
     8 N1      -2.9820   1.1758   7.1260   N.2       1 RES1   0.0000
     9 N2      -1.3006   1.7814   8.7089   N.2       1 RES1   0.0000
    10 N3      -1.0375   1.7564   5.5209   N.2       1 RES1   0.0000
    11 N4       0.7030   1.2394   7.1080   N.2       1 RES1   0.0000
    12 N5      -1.5475  -0.7123   6.0113   N.2       1 RES1   0.0000
    13 N6      -0.6106  -0.7065   8.2117   N.2       1 RES1   0.0000
    14 B1      -3.0297   0.6894   4.7889   B         1 RES1   0.0000
    15 B2       0.7566   0.8058   9.4645   B         1 RES1   0.0000
    16 C1      -3.4711   1.9899   8.0570   C.2       1 RES1   0.0000
    17 C2      -4.8245   2.6041   8.0431   C.3       1 RES1   0.0000
    18 C3      -5.8412   1.8984   8.9299   C.3       1 RES1   0.0000
    19 C4      -5.6207   2.1121  10.4645   C.3       1 RES1   0.0000
    20 C5      -4.4889   1.3541  11.0101   C.3       1 RES1   0.0000
    21 C6      -3.2899   2.1865  11.3665   C.3       1 RES1   0.0000
    22 C7      -2.7135   3.0290  10.2877   C.3       1 RES1   0.0000
    23 C8      -2.4633   2.2896   9.0390   C.2       1 RES1   0.0000
    24 C9       0.1286   2.1696   5.0997   C.2       1 RES1   0.0000
    25 C10      0.4466   2.6259   3.7446   C.3       1 RES1   0.0000
    26 C11      0.8565   1.4607   2.8565   C.3       1 RES1   0.0000
    27 C12      1.9168   0.5426   3.4311   C.3       1 RES1   0.0000
    28 C13      3.2044   1.2741   3.7805   C.3       1 RES1   0.0000
    29 C14      3.4948   1.4617   5.3138   C.3       1 RES1   0.0000
    30 C15      2.5518   2.4495   6.0223   C.3       1 RES1   0.0000
    31 C16      1.1447   1.9229   6.1177   C.2       1 RES1   0.0000
    32 C17     -1.2512  -1.9535   6.4077   C.2       1 RES1   0.0000
    33 C18     -1.4288  -3.1565   5.5831   C.3       1 RES1   0.0000
    34 C19     -0.2472  -3.3375   4.6563   C.3       1 RES1   0.0000
    35 C20      1.1239  -3.2317   5.3731   C.3       1 RES1   0.0000
    36 C21      1.3301  -4.2145   6.5652   C.3       1 RES1   0.0000
    37 C22      1.2601  -3.5823   7.9119   C.3       1 RES1   0.0000
    38 C23     -0.0942  -3.1366   8.3912   C.3       1 RES1   0.0000
    39 C24     -0.6333  -1.9208   7.7089   C.2       1 RES1   0.0000
    40 C25     -4.0457   0.6455   3.5637   C.3       1 RES1   0.0000
    41 C26     -3.4267   0.8978   2.2156   C.3       1 RES1   0.0000
    42 C27     -4.3084   0.9721   1.1092   C.3       1 RES1   0.0000
    43 C28     -3.6520   1.1850  -0.2776   C.3       1 RES1   0.0000
    44 C29      1.6672   0.8102  10.7228   C.3       1 RES1   0.0000
    45 C30      2.5959  -0.3439  10.8941   C.3       1 RES1   0.0000
    46 C31      3.2061  -0.3800  12.3403   C.3       1 RES1   0.0000
    47 C32      4.0975  -1.3733  12.4936   C.3       1 RES1   0.0000
    48 H1      -6.5248   1.8039  10.9877   H         1 RES1   0.0000
    49 H2      -5.4421   3.1716  10.6417   H         1 RES1   0.0000
    50 H3      -5.1957   2.5887   7.0195   H         1 RES1   0.0000
    51 H4      -4.7346   3.6354   8.3812   H         1 RES1   0.0000
    52 H5       1.2376   1.8694   1.9218   H         1 RES1   0.0000
    53 H6      -0.0317   0.8632   2.6560   H         1 RES1   0.0000
    54 H7       1.2662   3.3413   3.7934   H         1 RES1   0.0000
    55 H8      -0.4310   3.1079   3.3165   H         1 RES1   0.0000
    56 H9       2.1434  -0.2293   2.6971   H         1 RES1   0.0000
    57 H10      1.5234   0.0797   4.3349   H         1 RES1   0.0000
    58 H11     -5.7892   0.8303   8.7240   H         1 RES1   0.0000
    59 H12     -6.8323   2.2697   8.6735   H         1 RES1   0.0000
    60 H13     -1.7693   3.4420  10.6395   H         1 RES1   0.0000
    61 H14     -3.4079   3.8405  10.0751   H         1 RES1   0.0000
    62 H15      2.5393   3.3845   5.4641   H         1 RES1   0.0000
    63 H16      2.9268   2.6323   7.0283   H         1 RES1   0.0000
    64 H17     -2.3374  -3.0553   4.9912   H         1 RES1   0.0000
    65 H18     -1.5133  -4.0272   6.2316   H         1 RES1   0.0000
    66 H19     -0.2932  -2.5696   3.8854   H         1 RES1   0.0000
    67 H20     -0.3194  -4.3208   4.1939   H         1 RES1   0.0000
    68 H21      3.1599   2.2629   3.3263   H         1 RES1   0.0000
    69 H22      4.0333   0.7140   3.3504   H         1 RES1   0.0000
    70 H23      4.5153   1.8253   5.4253   H         1 RES1   0.0000
    71 H24      3.3999   0.4918   5.7997   H         1 RES1   0.0000
    72 H25      2.3101  -4.6769   6.4580   H         1 RES1   0.0000
    73 H26      0.5588  -4.9813   6.5099   H         1 RES1   0.0000
    74 H27     -2.5087   1.5092  11.7082   H         1 RES1   0.0000
    75 H28     -3.5790   2.8480  12.1818   H         1 RES1   0.0000
    76 H29      1.2276  -2.2162   5.7526   H         1 RES1   0.0000
    77 H30      1.9036  -3.4261   4.6382   H         1 RES1   0.0000
    78 H31     -4.1830   0.6191  10.2670   H         1 RES1   0.0000
    79 H32     -4.8259   0.8418  11.9101   H         1 RES1   0.0000
    80 H33      1.9072  -2.7066   7.8970   H         1 RES1   0.0000
    81 H34      1.6420  -4.3036   8.6329   H         1 RES1   0.0000
    82 H35     -0.0228  -2.9231   9.4567   H         1 RES1   0.0000
    83 H36     -0.7958  -3.9539   8.2310   H         1 RES1   0.0000
    84 H37     -4.8103   1.4026   3.7314   H         1 RES1   0.0000
    85 H38     -4.5087  -0.3399   3.5438   H         1 RES1   0.0000
    86 H39      2.3988  -0.5202  13.0575   H         1 RES1   0.0000
    87 H40      3.7032   0.5694  12.5343   H         1 RES1   0.0000
    88 H41     -4.9913   1.8021   1.2841   H         1 RES1   0.0000
    89 H42     -4.8714   0.0407   1.0704   H         1 RES1   0.0000
    90 H43     -2.7219   0.0908   2.0210   H         1 RES1   0.0000
    91 H44     -2.8893   1.8433   2.2720   H         1 RES1   0.0000
    92 H45      4.9147  -1.2401  11.7863   H         1 RES1   0.0000
    93 H46      4.4899  -1.3553  13.5093   H         1 RES1   0.0000
    94 H47      3.6104  -2.3298  12.3095   H         1 RES1   0.0000
    95 H48      1.0185   0.8417  11.5969   H         1 RES1   0.0000
    96 H49      2.2719   1.7152  10.6868   H         1 RES1   0.0000
    97 H50     -2.9746   0.3591  -0.4893   H         1 RES1   0.0000
    98 H51     -4.4256   1.2253  -1.0430   H         1 RES1   0.0000
    99 H52     -3.0944   2.1204  -0.2755   H         1 RES1   0.0000
   100 H53      3.4050  -0.2578  10.1703   H         1 RES1   0.0000
   101 H54      2.0480  -1.2684  10.7178   H         1 RES1   0.0000
   102 Cl1      6.0358   8.4851  -0.2417   Cl        2 RES2   0.0000
   103 Cl2      6.6182  10.5169   1.2929   Cl        2 RES2   0.0000
   104 Cl3      4.7374   8.8912   2.1244   Cl        2 RES2   0.0000
   105 Cl4      4.4603  10.5284  -0.1768   Cl        2 RES2   0.0000
   106 C33      5.3855   9.5225   0.7210   C.3       2 RES2   0.0000
@<TRIPOS>BOND
     1     1     8    1
     2     2     8    1
     3     3     9    1
     4     4    10    1
     5     5    11    1
     6     6    12    1
     7     7    13    1
     8     8    16    2
     9     9     1    1
    10    10     1    1
    11    11     1    1
    12    12     1    1
    13    13     1    1
    14    14     2    1
    15    15     3    1
    16    16    17    1
    17    17    18    1
    18    18    19    1
    19    19    20    1
    20    20    21    1
    21    21    22    1
    22    22    23    1
    23    23     9    2
    24    24    10    2
    25    25    24    1
    26    26    25    1
    27    27    26    1
    28    28    27    1
    29    29    28    1
    30    30    29    1
    31    31    11    2
    32    32    12    2
    33    33    32    1
    34    34    33    1
    35    35    34    1
    36    36    35    1
    37    37    36    1
    38    38    37    1
    39    39    13    2
    40    40    14    1
    41    41    40    1
    42    42    41    1
    43    43    42    1
    44    44    15    1
    45    45    44    1
    46    46    45    1
    47    47    46    1
    48    48    19    1
    49    49    19    1
    50    50    17    1
    51    51    17    1
    52    52    26    1
    53    53    26    1
    54    54    25    1
    55    55    25    1
    56    56    27    1
    57    57    27    1
    58    58    18    1
    59    59    18    1
    60    60    22    1
    61    61    22    1
    62    62    30    1
    63    63    30    1
    64    64    33    1
    65    65    33    1
    66    66    34    1
    67    67    34    1
    68    68    28    1
    69    69    28    1
    70    70    29    1
    71    71    29    1
    72    72    36    1
    73    73    36    1
    74    74    21    1
    75    75    21    1
    76    76    35    1
    77    77    35    1
    78    78    20    1
    79    79    20    1
    80    80    37    1
    81    81    37    1
    82    82    38    1
    83    83    38    1
    84    84    40    1
    85    85    40    1
    86    86    46    1
    87    87    46    1
    88    88    42    1
    89    89    42    1
    90    90    41    1
    91    91    41    1
    92    92    47    1
    93    93    47    1
    94    94    47    1
    95    95    44    1
    96    96    44    1
    97    97    43    1
    98    98    43    1
    99    99    43    1
   100   100    45    1
   101   101    45    1
   102     4    14    1
   103     5    15    1
   104     6    14    1
   105     7    15    1
   106    16    23    1
   107    24    31    1
   108    30    31    1
   109    32    39    1
   110    38    39    1
   111   102   106    1
   112   103   106    1
   113   104   106    1
   114   105   106    1
@<TRIPOS>SUBSTRUCTURE
     1 RES1        1 GROUP             0 ****  ****    0  
     2 RES2      102 GROUP             0 ****  ****    0  
@<TRIPOS>CRYSIN
   11.3680   13.6160   15.9670  106.9000  109.7800  102.1600     2     1
