@<TRIPOS>MOLECULE
JAGTOB
   117   130     1     0     0
SMALL
NO_CHARGES
****
Generated from the CSD

@<TRIPOS>ATOM
     1 Fe1      0.0000   0.0000   0.0000   Fe        1 RES1   0.0000
     2 N1       0.5561   0.7590   1.7626   N.2       1 RES1   0.0000
     3 N2       1.6146  -1.1624  -0.0097   N.2       1 RES1   0.0000
     4 N3       1.1123   1.4770  -1.0114   N.3       1 RES1   0.0000
     5 C1      -0.0538   1.7773   2.4612   C.2       1 RES1   0.0000
     6 C2       1.7241   0.4918   2.4555   C.2       1 RES1   0.0000
     7 C3       2.6388  -1.1820   0.9197   C.2       1 RES1   0.0000
     8 C4       1.9480  -2.1241  -0.9365   C.2       1 RES1   0.0000
     9 C5       0.7385   2.1384   3.6054   C.2       1 RES1   0.0000
    10 H1       0.5372   2.7966   4.2311   H         1 RES1   0.0000
    11 C6       1.8193   1.3491   3.6033   C.2       1 RES1   0.0000
    12 H2       2.5064   1.3553   4.2300   H         1 RES1   0.0000
    13 C7       3.6198  -2.1563   0.5492   C.2       1 RES1   0.0000
    14 H3       4.4044  -2.3487   1.0090   H         1 RES1   0.0000
    15 C8       3.1983  -2.7415  -0.5847   C.2       1 RES1   0.0000
    16 H4       3.6327  -3.4176  -1.0521   H         1 RES1   0.0000
    17 C9       2.7089  -0.4027   2.0658   C.2       1 RES1   0.0000
    18 C10     -1.2211   2.4388   2.0805   C.2       1 RES1   0.0000
    19 C11      3.9734  -0.4727   2.8796   C.ar      1 RES1   0.0000
    20 C12      5.0567   0.3023   2.5199   C.ar      1 RES1   0.0000
    21 H5       4.9930   0.8606   1.7779   H         1 RES1   0.0000
    22 C13      6.2285   0.2644   3.2414   C.ar      1 RES1   0.0000
    23 H6       6.9469   0.7951   2.9819   H         1 RES1   0.0000
    24 C14      6.3440  -0.5410   4.3259   C.ar      1 RES1   0.0000
    25 H7       7.1349  -0.5617   4.8137   H         1 RES1   0.0000
    26 C15      5.2922  -1.3189   4.6931   C.ar      1 RES1   0.0000
    27 H8       5.3658  -1.8749   5.4340   H         1 RES1   0.0000
    28 C16      4.1118  -1.2872   3.9716   C.ar      1 RES1   0.0000
    29 H9       3.4002  -1.8266   4.2332   H         1 RES1   0.0000
    30 C17     -1.7145   3.5641   2.9281   C.ar      1 RES1   0.0000
    31 C18     -2.2046   3.3572   4.2063   C.ar      1 RES1   0.0000
    32 H10     -2.2107   2.5005   4.5671   H         1 RES1   0.0000
    33 C19     -2.6878   4.4282   4.9526   C.ar      1 RES1   0.0000
    34 H11     -3.0147   4.2836   5.8109   H         1 RES1   0.0000
    35 C20     -2.6845   5.6934   4.4303   C.ar      1 RES1   0.0000
    36 H12     -3.0143   6.4064   4.9289   H         1 RES1   0.0000
    37 C21     -2.1967   5.9031   3.1790   C.ar      1 RES1   0.0000
    38 H13     -2.1914   6.7627   2.8236   H         1 RES1   0.0000
    39 C22     -1.7113   4.8554   2.4348   C.ar      1 RES1   0.0000
    40 H14     -1.3742   5.0190   1.5830   H         1 RES1   0.0000
    41 C23      0.4363   2.3276  -1.9427   C.3       1 RES1   0.0000
    42 H15     -0.1939   2.8771  -1.4506   H         1 RES1   0.0000
    43 H16     -0.0777   1.7685  -2.5468   H         1 RES1   0.0000
    44 C24      1.3102   3.2399  -2.7730   C.3       1 RES1   0.0000
    45 H17      1.7695   2.7074  -3.4417   H         1 RES1   0.0000
    46 H18      0.7427   3.8723  -3.2404   H         1 RES1   0.0000
    47 C25      2.3240   3.9972  -1.9869   C.3       1 RES1   0.0000
    48 H19      1.8071   4.5980  -1.4107   H         1 RES1   0.0000
    49 C26      3.0326   3.0946  -1.0672   C.3       1 RES1   0.0000
    50 H20      3.5373   3.6358  -0.4394   H         1 RES1   0.0000
    51 H21      3.6720   2.5783  -1.5819   H         1 RES1   0.0000
    52 C27      2.1866   2.1428  -0.2875   C.3       1 RES1   0.0000
    53 H22      2.7650   1.4611   0.0872   H         1 RES1   0.0000
    54 H23      1.7935   2.6278   0.4555   H         1 RES1   0.0000
    55 C28      3.2185   4.8979  -2.7902   C.3       1 RES1   0.0000
    56 H24      3.8084   5.3717  -2.2001   H         1 RES1   0.0000
    57 H25      2.6830   5.5254  -3.2802   H         1 RES1   0.0000
    58 H26      3.7350   4.3700  -3.4040   H         1 RES1   0.0000
    59 H27      1.5429   0.7797  -1.5766   H         1 RES1   0.0000
    60 N1A     -0.5561  -0.7590  -1.7626   N.2       1 RES1   0.0000
    61 C1A      0.0538  -1.7773  -2.4612   C.2       1 RES1   0.0000
    62 C5A     -0.7385  -2.1384  -3.6054   C.2       1 RES1   0.0000
    63 H1A     -0.5372  -2.7966  -4.2311   H         1 RES1   0.0000
    64 C6A     -1.8193  -1.3491  -3.6033   C.2       1 RES1   0.0000
    65 C2A     -1.7241  -0.4918  -2.4555   C.2       1 RES1   0.0000
    66 C9A     -2.7089   0.4027  -2.0658   C.2       1 RES1   0.0000
    67 C3A     -2.6388   1.1820  -0.9197   C.2       1 RES1   0.0000
    68 N2A     -1.6146   1.1624   0.0097   N.2       1 RES1   0.0000
    69 N3A     -1.1123  -1.4770   1.0114   N.3       1 RES1   0.0000
    70 C23A    -0.4363  -2.3276   1.9427   C.3       1 RES1   0.0000
    71 H15A     0.1939  -2.8771   1.4506   H         1 RES1   0.0000
    72 H16A     0.0777  -1.7685   2.5468   H         1 RES1   0.0000
    73 C24A    -1.3102  -3.2399   2.7730   C.3       1 RES1   0.0000
    74 H17A    -1.7695  -2.7074   3.4417   H         1 RES1   0.0000
    75 H18A    -0.7427  -3.8723   3.2404   H         1 RES1   0.0000
    76 C25A    -2.3240  -3.9972   1.9869   C.3       1 RES1   0.0000
    77 H19A    -1.8071  -4.5980   1.4107   H         1 RES1   0.0000
    78 C26A    -3.0326  -3.0946   1.0672   C.3       1 RES1   0.0000
    79 H20A    -3.5373  -3.6358   0.4394   H         1 RES1   0.0000
    80 H21A    -3.6720  -2.5783   1.5819   H         1 RES1   0.0000
    81 C27A    -2.1866  -2.1428   0.2875   C.3       1 RES1   0.0000
    82 H27A    -1.5429  -0.7797   1.5766   H         1 RES1   0.0000
    83 H22A    -2.7650  -1.4611  -0.0872   H         1 RES1   0.0000
    84 H23A    -1.7935  -2.6278  -0.4555   H         1 RES1   0.0000
    85 C28A    -3.2185  -4.8979   2.7902   C.3       1 RES1   0.0000
    86 H24A    -3.8084  -5.3717   2.2001   H         1 RES1   0.0000
    87 H25A    -2.6830  -5.5254   3.2802   H         1 RES1   0.0000
    88 H26A    -3.7350  -4.3700   3.4040   H         1 RES1   0.0000
    89 C4A     -1.9480   2.1241   0.9365   C.2       1 RES1   0.0000
    90 C8A     -3.1983   2.7415   0.5847   C.2       1 RES1   0.0000
    91 C7A     -3.6198   2.1563  -0.5492   C.2       1 RES1   0.0000
    92 H3A     -4.4044   2.3487  -1.0090   H         1 RES1   0.0000
    93 H4A     -3.6327   3.4176   1.0521   H         1 RES1   0.0000
    94 C11A    -3.9734   0.4727  -2.8796   C.ar      1 RES1   0.0000
    95 C12A    -5.0567  -0.3023  -2.5199   C.ar      1 RES1   0.0000
    96 H5A     -4.9930  -0.8606  -1.7779   H         1 RES1   0.0000
    97 C13A    -6.2285  -0.2644  -3.2414   C.ar      1 RES1   0.0000
    98 H6A     -6.9469  -0.7951  -2.9819   H         1 RES1   0.0000
    99 C14A    -6.3440   0.5410  -4.3259   C.ar      1 RES1   0.0000
   100 H7A     -7.1349   0.5617  -4.8137   H         1 RES1   0.0000
   101 C15A    -5.2922   1.3189  -4.6931   C.ar      1 RES1   0.0000
   102 H8A     -5.3658   1.8749  -5.4340   H         1 RES1   0.0000
   103 C16A    -4.1118   1.2872  -3.9716   C.ar      1 RES1   0.0000
   104 H9A     -3.4002   1.8266  -4.2332   H         1 RES1   0.0000
   105 H2A     -2.5064  -1.3553  -4.2300   H         1 RES1   0.0000
   106 C10A     1.2211  -2.4388  -2.0805   C.2       1 RES1   0.0000
   107 C17A     1.7145  -3.5641  -2.9281   C.ar      1 RES1   0.0000
   108 C18A     2.2046  -3.3572  -4.2063   C.ar      1 RES1   0.0000
   109 H10A     2.2107  -2.5005  -4.5671   H         1 RES1   0.0000
   110 C19A     2.6878  -4.4282  -4.9526   C.ar      1 RES1   0.0000
   111 H11A     3.0147  -4.2836  -5.8109   H         1 RES1   0.0000
   112 C20A     2.6845  -5.6934  -4.4303   C.ar      1 RES1   0.0000
   113 H12A     3.0143  -6.4064  -4.9289   H         1 RES1   0.0000
   114 C21A     2.1967  -5.9031  -3.1790   C.ar      1 RES1   0.0000
   115 H13A     2.1914  -6.7627  -2.8236   H         1 RES1   0.0000
   116 C22A     1.7113  -4.8554  -2.4348   C.ar      1 RES1   0.0000
   117 H14A     1.3742  -5.0190  -1.5830   H         1 RES1   0.0000
@<TRIPOS>BOND
     1     1     2    1
     2     2     5    1
     3     3     1    1
     4     4     1    1
     5     5     9    1
     6     6     2    1
     7     7     3    2
     8     8     3    1
     9     9    10    1
    10    11     6    1
    11    12    11    1
    12    13     7    1
    13    14    13    1
    14    15     8    1
    15    16    15    1
    16    17     6    2
    17    18     5    2
    18    19    17    1
    19    20    19   ar
    20    21    20    1
    21    22    20   ar
    22    23    22    1
    23    24    22   ar
    24    25    24    1
    25    26    24   ar
    26    27    26    1
    27    28    19   ar
    28    29    28    1
    29    30    18    1
    30    31    30   ar
    31    32    31    1
    32    33    31   ar
    33    34    33    1
    34    35    33   ar
    35    36    35    1
    36    37    35   ar
    37    38    37    1
    38    39    30   ar
    39    40    39    1
    40    41     4    1
    41    42    41    1
    42    43    41    1
    43    44    41    1
    44    45    44    1
    45    46    44    1
    46    47    44    1
    47    48    47    1
    48    49    47    1
    49    50    49    1
    50    51    49    1
    51    52     4    1
    52    53    52    1
    53    54    52    1
    54    55    47    1
    55    56    55    1
    56    57    55    1
    57    58    55    1
    58    59     4    1
    59    60     1    1
    60    61    60    1
    61    62    61    2
    62    63    62    1
    63    64    62    1
    64    65    60    1
    65    66    65    1
    66    67    66    2
    67    68     1    1
    68    69     1    1
    69    70    69    1
    70    71    70    1
    71    72    70    1
    72    73    70    1
    73    74    73    1
    74    75    73    1
    75    76    73    1
    76    77    76    1
    77    78    76    1
    78    79    78    1
    79    80    78    1
    80    81    69    1
    81    82    69    1
    82    83    81    1
    83    84    81    1
    84    85    76    1
    85    86    85    1
    86    87    85    1
    87    88    85    1
    88    89    18    1
    89    90    89    1
    90    91    67    1
    91    92    91    1
    92    93    90    1
    93    94    66    1
    94    95    94   ar
    95    96    95    1
    96    97    95   ar
    97    98    97    1
    98    99    97   ar
    99   100    99    1
   100   101    99   ar
   101   102   101    1
   102   103    94   ar
   103   104   103    1
   104   105    64    1
   105   106     8    2
   106   107   106    1
   107   108   107   ar
   108   109   108    1
   109   110   108   ar
   110   111   110    1
   111   112   110   ar
   112   113   112    1
   113   114   112   ar
   114   115   114    1
   115   116   107   ar
   116   117   116    1
   117     7    17    1
   118     9    11    2
   119    13    15    2
   120    26    28   ar
   121    37    39   ar
   122    49    52    1
   123    61   106    1
   124    64    65    2
   125    67    68    1
   126    68    89    2
   127    78    81    1
   128    90    91    2
   129   101   103   ar
   130   114   116   ar
@<TRIPOS>SUBSTRUCTURE
     1 RES1        1 GROUP             0 ****  ****    0  
@<TRIPOS>CRYSIN
   10.3189   11.2427   11.8631   93.0770  111.1120  113.4830     2     1
