@<TRIPOS>MOLECULE
JAHGIJ
    75    75     1     0     0
SMALL
NO_CHARGES
****
Generated from the CSD

@<TRIPOS>ATOM
     1 Fe1      9.4997   0.6913  52.8225   Fe        1 RES1   0.0000
     2 Cl1      6.6232   1.7942  50.7916   Cl        1 RES1   0.0000
     3 Cl2     10.7377   4.1534  53.3804   Cl        1 RES1   0.0000
     4 Si1      8.6428   2.2180  51.1541   Si        1 RES1   0.0000
     5 Si2      8.9801   3.0089  53.2373   Si        1 RES1   0.0000
     6 Si3      9.6386   2.9195  49.1137   Si        1 RES1   0.0000
     7 Si4      7.4121   3.8942  54.7803   Si        1 RES1   0.0000
     8 O1       6.7281   0.0093  53.5239   O.2       1 RES1   0.0000
     9 O2      12.2373   1.4062  52.0419   O.2       1 RES1   0.0000
    10 O3      10.5117  -0.0636  55.4803   O.2       1 RES1   0.0000
    11 O4       9.4864  -1.8191  51.2493   O.2       1 RES1   0.0000
    12 C1       7.8095   0.3585  53.2671   C.1       1 RES1   0.0000
    13 C2      11.1514   1.1703  52.3043   C.1       1 RES1   0.0000
    14 C3      10.1187   0.2266  54.4421   C.1       1 RES1   0.0000
    15 C4       9.5337  -0.8443  51.8661   C.1       1 RES1   0.0000
    16 C5      11.4705   3.0747  49.4017   C.3       1 RES1   0.0000
    17 H1      11.9093   3.3634  48.5756   H         1 RES1   0.0000
    18 H2      11.8325   2.2071  49.6780   H         1 RES1   0.0000
    19 H3      11.6360   3.7359  50.1078   H         1 RES1   0.0000
    20 C6       9.3519   1.5443  47.7970   C.3       1 RES1   0.0000
    21 C7      10.1822   1.8625  46.5522   C.3       1 RES1   0.0000
    22 H4      10.0404   1.1656  45.8768   H         1 RES1   0.0000
    23 H5      11.1322   1.8951  46.7922   H         1 RES1   0.0000
    24 H6       9.9074   2.7301  46.1866   H         1 RES1   0.0000
    25 C8       7.8287   1.5350  47.3141   C.3       1 RES1   0.0000
    26 H7       7.7046   0.8366  46.6387   H         1 RES1   0.0000
    27 H8       7.6027   2.4073  46.9290   H         1 RES1   0.0000
    28 H9       7.2452   1.3565  48.0816   H         1 RES1   0.0000
    29 C9       9.6917   0.2282  48.3942   C.3       1 RES1   0.0000
    30 H10      9.5632  -0.4796  47.7300   H         1 RES1   0.0000
    31 H11      9.1215   0.0605  49.1701   H         1 RES1   0.0000
    32 H12     10.6343   0.2344  48.6817   H         1 RES1   0.0000
    33 C10      8.9796   4.6501  48.7291   C.3       1 RES1   0.0000
    34 C11      9.4539   5.6170  49.8008   C.3       1 RES1   0.0000
    35 H13      9.1185   6.5157  49.5999   H         1 RES1   0.0000
    36 H14     10.4334   5.6295  49.8176   H         1 RES1   0.0000
    37 H15      9.1141   5.3284  50.6716   H         1 RES1   0.0000
    38 C12      7.4151   4.7277  48.7989   C.3       1 RES1   0.0000
    39 H16      7.1225   5.6388  48.5896   H         1 RES1   0.0000
    40 H17      7.1166   4.4887  49.7031   H         1 RES1   0.0000
    41 H18      7.0280   4.1022  48.1514   H         1 RES1   0.0000
    42 C13      9.4480   5.1778  47.3951   C.3       1 RES1   0.0000
    43 H19      9.0801   6.0734  47.2499   H         1 RES1   0.0000
    44 H20      9.1422   4.5787  46.6806   H         1 RES1   0.0000
    45 H21     10.4275   5.2213  47.3867   H         1 RES1   0.0000
    46 C14      6.0278   2.6696  54.9975   C.3       1 RES1   0.0000
    47 H22      5.3718   3.0281  55.6338   H         1 RES1   0.0000
    48 H23      6.3883   1.8253  55.3408   H         1 RES1   0.0000
    49 H24      5.5920   2.5113  54.1351   H         1 RES1   0.0000
    50 C15      8.2926   4.1100  56.4571   C.3       1 RES1   0.0000
    51 C16      9.1333   5.3532  56.5883   C.3       1 RES1   0.0000
    52 H25      9.5499   5.3734  57.4730   H         1 RES1   0.0000
    53 H26      8.5660   6.1448  56.4739   H         1 RES1   0.0000
    54 H27      9.8291   5.3516  55.8989   H         1 RES1   0.0000
    55 C17      7.2570   4.1426  57.6181   C.3       1 RES1   0.0000
    56 H28      7.7268   4.2543  58.4694   H         1 RES1   0.0000
    57 H29      6.7532   3.3029  57.6293   H         1 RES1   0.0000
    58 H30      6.6409   4.8922  57.4842   H         1 RES1   0.0000
    59 C18      9.1820   2.9102  56.7083   C.3       1 RES1   0.0000
    60 H31      9.6430   3.0188  57.5651   H         1 RES1   0.0000
    61 H32      9.8424   2.8357  55.9882   H         1 RES1   0.0000
    62 H33      8.6339   2.0969  56.7334   H         1 RES1   0.0000
    63 C19      6.7133   5.4929  53.9928   C.3       1 RES1   0.0000
    64 C20      7.8199   6.4552  53.5071   C.3       1 RES1   0.0000
    65 H34      7.4092   7.2483  53.1025   H         1 RES1   0.0000
    66 H35      8.3798   6.0020  52.8429   H         1 RES1   0.0000
    67 H36      8.3739   6.7284  54.2691   H         1 RES1   0.0000
    68 C21      5.7958   6.2379  55.0505   C.3       1 RES1   0.0000
    69 H37      5.4487   7.0652  54.6598   H         1 RES1   0.0000
    70 H38      6.3247   6.4505  55.8487   H         1 RES1   0.0000
    71 H39      5.0483   5.6559  55.3017   H         1 RES1   0.0000
    72 C22      5.7929   5.0412  52.8401   C.3       1 RES1   0.0000
    73 H40      5.4280   5.8297  52.3852   H         1 RES1   0.0000
    74 H41      5.0571   4.5042  53.2029   H         1 RES1   0.0000
    75 H42      6.3070   4.5042  52.2010   H         1 RES1   0.0000
@<TRIPOS>BOND
     1     1     4    1
     2     2     4    1
     3     3     5    1
     4     4     5    1
     5     5     1    1
     6     6     4    1
     7     7     5    1
     8     8    12    3
     9     9    13    3
    10    10    14    3
    11    11    15    3
    12    12     1    1
    13    13     1    1
    14    14     1    1
    15    15     1    1
    16    16     6    1
    17    17    16    1
    18    18    16    1
    19    19    16    1
    20    20     6    1
    21    21    20    1
    22    22    21    1
    23    23    21    1
    24    24    21    1
    25    25    20    1
    26    26    25    1
    27    27    25    1
    28    28    25    1
    29    29    20    1
    30    30    29    1
    31    31    29    1
    32    32    29    1
    33    33     6    1
    34    34    33    1
    35    35    34    1
    36    36    34    1
    37    37    34    1
    38    38    33    1
    39    39    38    1
    40    40    38    1
    41    41    38    1
    42    42    33    1
    43    43    42    1
    44    44    42    1
    45    45    42    1
    46    46     7    1
    47    47    46    1
    48    48    46    1
    49    49    46    1
    50    50     7    1
    51    51    50    1
    52    52    51    1
    53    53    51    1
    54    54    51    1
    55    55    50    1
    56    56    55    1
    57    57    55    1
    58    58    55    1
    59    59    50    1
    60    60    59    1
    61    61    59    1
    62    62    59    1
    63    63     7    1
    64    64    63    1
    65    65    64    1
    66    66    64    1
    67    67    64    1
    68    68    63    1
    69    69    68    1
    70    70    68    1
    71    71    68    1
    72    72    63    1
    73    73    72    1
    74    74    72    1
    75    75    72    1
@<TRIPOS>SUBSTRUCTURE
     1 RES1        1 GROUP             0 ****  ****    0  
@<TRIPOS>CRYSIN
   14.7740   15.5210   27.9090   90.0000   90.0000   90.0000    61     1
