@<TRIPOS>MOLECULE
JAHGEF
    75    75     1     0     0
SMALL
NO_CHARGES
****
Generated from the CSD

@<TRIPOS>ATOM
     1 Fe1      0.4067  -5.8419   6.4517   Fe        1 RES1   0.0000
     2 Cl1      1.8023  -4.5020   9.7403   Cl        1 RES1   0.0000
     3 Cl2      3.1817  -7.5803   8.2029   Cl        1 RES1   0.0000
     4 Si1      1.8563  -4.2811   7.6513   Si        1 RES1   0.0000
     5 Si2      2.7990  -6.1351   6.7354   Si        1 RES1   0.0000
     6 Si3      2.1042  -1.9403   7.2428   Si        1 RES1   0.0000
     7 Si4      4.4439  -6.3391   5.0290   Si        1 RES1   0.0000
     8 O1      -0.0884  -7.1327   9.0493   O.2       1 RES1   0.0000
     9 O2      -2.3391  -4.7512   6.4390   O.2       1 RES1   0.0000
    10 O3       0.0166  -8.4558   5.1504   O.2       1 RES1   0.0000
    11 O4       1.0111  -4.3646   3.9855   O.2       1 RES1   0.0000
    12 C1       0.1569  -6.6117   8.0719   C.1       1 RES1   0.0000
    13 C2      -1.2725  -5.1512   6.4690   C.1       1 RES1   0.0000
    14 C3       0.1634  -7.4328   5.6265   C.1       1 RES1   0.0000
    15 C4       0.8100  -4.9183   4.9582   C.1       1 RES1   0.0000
    16 C5       2.3698  -1.6592   5.4019   C.3       1 RES1   0.0000
    17 H1       2.5242  -0.7487   5.2283   H         1 RES1   0.0000
    18 H2       3.1122  -2.1789   5.1009   H         1 RES1   0.0000
    19 H3       1.5896  -1.9476   4.9207   H         1 RES1   0.0000
    20 C6       3.6962  -1.3575   8.1411   C.3       1 RES1   0.0000
    21 C7       4.7909  -2.4251   7.9989   C.3       1 RES1   0.0000
    22 H4       4.4987  -3.2472   8.4020   H         1 RES1   0.0000
    23 H5       4.9817  -2.5845   7.0863   H         1 RES1   0.0000
    24 H6       5.5872  -2.1432   8.4439   H         1 RES1   0.0000
    25 C8       4.2236  -0.0692   7.4948   C.3       1 RES1   0.0000
    26 H7       5.0437   0.1933   7.9107   H         1 RES1   0.0000
    27 H8       4.3881  -0.2157   6.5658   H         1 RES1   0.0000
    28 H9       3.5899   0.6302   7.5922   H         1 RES1   0.0000
    29 C9       3.4673  -1.0880   9.6320   C.3       1 RES1   0.0000
    30 H10      4.2874  -0.8135  10.0344   H         1 RES1   0.0000
    31 H11      2.8297  -0.3799   9.7286   H         1 RES1   0.0000
    32 H12      3.1452  -1.8627  10.0580   H         1 RES1   0.0000
    33 C10      0.4954  -1.0452   7.7818   C.3       1 RES1   0.0000
    34 C11      0.7084   0.4766   7.8075   C.3       1 RES1   0.0000
    35 H13      1.3551   0.7151   8.4639   H         1 RES1   0.0000
    36 H14      1.0216   0.7677   6.9498   H         1 RES1   0.0000
    37 H15     -0.1100   0.9330   7.9998   H         1 RES1   0.0000
    38 C12     -0.0207  -1.4940   9.1474   C.3       1 RES1   0.0000
    39 H16     -0.8335  -1.0559   9.3519   H         1 RES1   0.0000
    40 H17     -0.1488  -2.4326   9.1427   H         1 RES1   0.0000
    41 H18      0.6319  -1.2738   9.8142   H         1 RES1   0.0000
    42 C13     -0.5864  -1.3386   6.7354   C.3       1 RES1   0.0000
    43 H19     -1.3817  -0.8827   6.9171   H         1 RES1   0.0000
    44 H20     -0.2528  -1.0470   5.8652   H         1 RES1   0.0000
    45 H21     -0.7420  -2.2750   6.6768   H         1 RES1   0.0000
    46 C14      4.4923  -4.6723   4.1679   C.3       1 RES1   0.0000
    47 H22      4.6354  -3.9846   4.8061   H         1 RES1   0.0000
    48 H23      5.1947  -4.6618   3.5268   H         1 RES1   0.0000
    49 H24      3.6621  -4.5176   3.7233   H         1 RES1   0.0000
    50 C15      6.1401  -6.5896   5.8965   C.3       1 RES1   0.0000
    51 C16      7.2777  -6.2250   4.9262   C.3       1 RES1   0.0000
    52 H25      8.1211  -6.3323   5.3520   H         1 RES1   0.0000
    53 H26      7.2422  -6.7893   4.1582   H         1 RES1   0.0000
    54 H27      7.1834  -5.3177   4.6478   H         1 RES1   0.0000
    55 C17      6.2480  -5.6599   7.1116   C.3       1 RES1   0.0000
    56 H28      7.0972  -5.7703   7.5340   H         1 RES1   0.0000
    57 H29      6.1551  -4.7534   6.8370   H         1 RES1   0.0000
    58 H30      5.5626  -5.8652   7.7414   H         1 RES1   0.0000
    59 C18      6.3616  -8.0330   6.3760   C.3       1 RES1   0.0000
    60 H31      5.6861  -8.2643   7.0190   H         1 RES1   0.0000
    61 H32      6.2987  -8.6341   5.6432   H         1 RES1   0.0000
    62 H33      7.2117  -8.1190   6.7860   H         1 RES1   0.0000
    63 C19      3.9515  -7.7019   3.7741   C.3       1 RES1   0.0000
    64 C20      2.7698  -7.2078   2.9284   C.3       1 RES1   0.0000
    65 H34      3.0050  -6.4005   2.4858   H         1 RES1   0.0000
    66 H35      2.5270  -7.8631   2.2948   H         1 RES1   0.0000
    67 H36      2.0221  -7.0329   3.5049   H         1 RES1   0.0000
    68 C21      3.5337  -9.0035   4.4729   C.3       1 RES1   0.0000
    69 H37      2.7767  -8.8230   5.0445   H         1 RES1   0.0000
    70 H38      3.2859  -9.6521   3.8361   H         1 RES1   0.0000
    71 H39      4.2439  -9.3236   5.0099   H         1 RES1   0.0000
    72 C22      5.1173  -8.0118   2.8125   C.3       1 RES1   0.0000
    73 H40      5.8685  -8.3224   3.3102   H         1 RES1   0.0000
    74 H41      4.8542  -8.6777   2.1910   H         1 RES1   0.0000
    75 H42      5.3646  -7.2206   2.3403   H         1 RES1   0.0000
@<TRIPOS>BOND
     1     1     4    1
     2     2     4    1
     3     3     5    1
     4     4     5    1
     5     5     1    1
     6     6     4    1
     7     7     5    1
     8     8    12    3
     9     9    13    3
    10    10    14    3
    11    11    15    3
    12    12     1    1
    13    13     1    1
    14    14     1    1
    15    15     1    1
    16    16     6    1
    17    17    16    1
    18    18    16    1
    19    19    16    1
    20    20     6    1
    21    21    20    1
    22    22    21    1
    23    23    21    1
    24    24    21    1
    25    25    20    1
    26    26    25    1
    27    27    25    1
    28    28    25    1
    29    29    20    1
    30    30    29    1
    31    31    29    1
    32    32    29    1
    33    33     6    1
    34    34    33    1
    35    35    34    1
    36    36    34    1
    37    37    34    1
    38    38    33    1
    39    39    38    1
    40    40    38    1
    41    41    38    1
    42    42    33    1
    43    43    42    1
    44    44    42    1
    45    45    42    1
    46    46     7    1
    47    47    46    1
    48    48    46    1
    49    49    46    1
    50    50     7    1
    51    51    50    1
    52    52    51    1
    53    53    51    1
    54    54    51    1
    55    55    50    1
    56    56    55    1
    57    57    55    1
    58    58    55    1
    59    59    50    1
    60    60    59    1
    61    61    59    1
    62    62    59    1
    63    63     7    1
    64    64    63    1
    65    65    64    1
    66    66    64    1
    67    67    64    1
    68    68    63    1
    69    69    68    1
    70    70    68    1
    71    71    68    1
    72    72    63    1
    73    73    72    1
    74    74    72    1
    75    75    72    1
@<TRIPOS>SUBSTRUCTURE
     1 RES1        1 GROUP             0 ****  ****    0  
@<TRIPOS>CRYSIN
   15.3760   11.1740   18.5100   90.0000  100.5350   90.0000    14     1
