@<TRIPOS>MOLECULE
JANSAS09
   107   110     3     0     0
SMALL
USER_CHARGES
****
Generated from the CSD

@<TRIPOS>ATOM
     1 Fe1      7.0109   4.5490   4.0118   Fe        1 RES1   2.0000
     2 N1       3.1482   5.0041   2.6888   N.pl3     1 RES1   0.0000
     3 N2       7.4153   4.7185   2.0740   N.2       1 RES1   0.0000
     4 N3       7.4688   0.4799   4.0876   N.2       1 RES1   0.0000
     5 N4       6.5191   4.9399   8.0605   N.2       1 RES1   0.0000
     6 N5       5.0643   4.6809   3.6039   N.2       1 RES1   0.0000
     7 N6       7.8247   1.7078   4.3444   N.2       1 RES1   0.0000
     8 N7       2.9182   4.4536   3.9014   N.2       1 RES1   0.0000
     9 N8      10.8729   4.0941   5.3407   N.pl3     1 RES1   0.0000
    10 N9       7.1490   3.7495   1.1497   N.2       1 RES1   0.0000
    11 N10      6.3170   0.5428   3.3913   N.pl3     1 RES1   0.0000
    12 N11      6.8952   2.5695   3.8311   N.2       1 RES1   0.0000
    13 N12     11.0975   4.6382   4.1316   N.2       1 RES1   0.0000
    14 N13      6.0102   3.7019   7.9062   N.pl3     1 RES1   0.0000
    15 N14      8.0088   5.3976   0.1214   N.pl3     1 RES1   0.0000
    16 N15      6.6042   4.3769   5.9584   N.2       1 RES1   0.0000
    17 C1       8.4161   6.2092  -1.0484   C.3       1 RES1   0.0000
    18 H1       8.7301   7.0949  -0.7385   H         1 RES1   0.0000
    19 H2       7.6310   6.3529  -1.6344   H         1 RES1   0.0000
    20 N16      7.7077   8.5456   4.6248   N.pl3     1 RES1   0.0000
    21 C2       6.0655   3.3703   6.6256   C.2       1 RES1   0.0000
    22 H3       5.7695   2.5490   6.2503   H         1 RES1   0.0000
    23 N17      8.9520   4.4225   4.4267   N.2       1 RES1   0.0000
    24 N18      7.1217   6.5269   4.1938   N.2       1 RES1   0.0000
    25 C3       4.4579   5.1338   2.5152   C.2       1 RES1   0.0000
    26 H4       4.8862   5.4895   1.7452   H         1 RES1   0.0000
    27 C4       5.9816   1.8180   3.2383   C.2       1 RES1   0.0000
    28 H5       5.2142   2.1372   2.7791   H         1 RES1   0.0000
    29 N19      6.5548   8.6127   3.9351   N.2       1 RES1   0.0000
    30 C5      11.9738   3.8405   6.2819   C.3       1 RES1   0.0000
    31 H6      11.6028   3.4709   7.1221   H         1 RES1   0.0000
    32 H7      12.4175   4.6984   6.4991   H         1 RES1   0.0000
    33 N20      4.0764   4.2695   4.4534   N.2       1 RES1   0.0000
    34 N21      7.5040   4.1547  -0.0295   N.2       1 RES1   0.0000
    35 C6       8.4562   9.7679   5.0005   C.3       1 RES1   0.0000
    36 H8       8.7185  10.2548   4.1792   H         1 RES1   0.0000
    37 H9       9.2835   9.5104   5.4796   H         1 RES1   0.0000
    38 N22      9.9472   4.8305   3.5785   N.2       1 RES1   0.0000
    39 N23      6.8683   5.3528   6.8853   N.2       1 RES1   0.0000
    40 C7       7.9550   5.7238   1.3921   C.2       1 RES1   0.0000
    41 H10      8.2532   6.5453   1.7645   H         1 RES1   0.0000
    42 C8       2.0455   5.2554   1.7351   C.3       1 RES1   0.0000
    43 H11      1.6020   4.3973   1.5140   H         1 RES1   0.0000
    44 H12      2.4167   5.6305   0.8975   H         1 RES1   0.0000
    45 C9       9.5731   3.9630   5.5048   C.2       1 RES1   0.0000
    46 H13      9.1486   3.5972   6.2728   H         1 RES1   0.0000
    47 C10      8.0444   7.2843   4.7745   C.2       1 RES1   0.0000
    48 H14      8.8202   6.9668   5.2227   H         1 RES1   0.0000
    49 C11      9.5169   5.5383  -1.8418   C.3       1 RES1   0.0000
    50 H15      9.7538   6.1154  -2.6106   H         1 RES1   0.0000
    51 H16      9.1743   4.6826  -2.2044   H         1 RES1   0.0000
    52 C12      5.5784  -0.6793   3.0275   C.3       1 RES1   0.0000
    53 H17      4.7446  -0.4264   2.5560   H         1 RES1   0.0000
    54 H18      5.3252  -1.1631   3.8532   H         1 RES1   0.0000
    55 N24      6.2028   7.4019   3.6781   N.2       1 RES1   0.0000
    56 C13     10.7723   5.2589  -1.0340   C.3       1 RES1   0.0000
    57 H19     11.0859   6.0904  -0.6197   H         1 RES1   0.0000
    58 H20     11.4686   4.9059  -1.6248   H         1 RES1   0.0000
    59 H21     10.5724   4.6018  -0.3356   H         1 RES1   0.0000
    60 C14      1.0258   6.2120   2.3020   C.3       1 RES1   0.0000
    61 H22      0.6189   5.8047   3.1083   H         1 RES1   0.0000
    62 H23      0.3061   6.3447   1.6360   H         1 RES1   0.0000
    63 C15      7.6356  10.6790   5.8796   C.3       1 RES1   0.0000
    64 H24      6.8399  10.9791   5.3721   H         1 RES1   0.0000
    65 H25      8.1732  11.4813   6.0978   H         1 RES1   0.0000
    66 C16      5.6019   2.8935   9.0721   C.3       1 RES1   0.0000
    67 H26      6.3872   2.7439   9.6556   H         1 RES1   0.0000
    68 H27      5.2821   2.0099   8.7597   H         1 RES1   0.0000
    69 C17      4.5122   3.5586   9.8718   C.3       1 RES1   0.0000
    70 H28      4.8561   4.4136  10.2336   H         1 RES1   0.0000
    71 H29      4.2785   2.9792  10.6398   H         1 RES1   0.0000
    72 C18     12.4137   1.5306   5.3491   C.3       1 RES1   0.0000
    73 H30     11.9474   1.1478   6.1218   H         1 RES1   0.0000
    74 H31     13.1342   0.9267   5.0702   H         1 RES1   0.0000
    75 H32     11.7794   1.6473   4.6110   H         1 RES1   0.0000
    76 C19      6.3903  -1.5991   2.1414   C.3       1 RES1   0.0000
    77 H33      5.8486  -2.3989   1.9250   H         1 RES1   0.0000
    78 H34      7.1905  -1.9014   2.6395   H         1 RES1   0.0000
    79 C20      6.8329  -0.9357   0.8464   C.3       1 RES1   0.0000
    80 H35      6.0484  -0.5891   0.3725   H         1 RES1   0.0000
    81 H36      7.2913  -1.5939   0.2826   H         1 RES1   0.0000
    82 H37      7.4444  -0.1966   1.0500   H         1 RES1   0.0000
    83 C21      7.1743  10.0307   7.1751   C.3       1 RES1   0.0000
    84 H38      6.5646   9.2901   6.9712   H         1 RES1   0.0000
    85 H39      6.7083  10.6955   7.7257   H         1 RES1   0.0000
    86 H40      7.9512   9.6893   7.6631   H         1 RES1   0.0000
    87 C22      1.6067   7.5745   2.6767   C.3       1 RES1   0.0000
    88 H41      2.2595   7.4642   3.3989   H         1 RES1   0.0000
    89 H42      0.8846   8.1668   2.9766   H         1 RES1   0.0000
    90 H43      2.0475   7.9678   1.8945   H         1 RES1   0.0000
    91 C23      3.2505   3.8385   9.0646   C.3       1 RES1   0.0000
    92 H44      3.4431   4.5143   8.3824   H         1 RES1   0.0000
    93 H45      2.5476   4.1686   9.6620   H         1 RES1   0.0000
    94 H46      2.9506   3.0132   8.6313   H         1 RES1   0.0000
    95 C24     13.0007   2.8773   5.7282   C.3       1 RES1   0.0000
    96 H47     13.7098   2.7399   6.4044   H         1 RES1   0.0000
    97 H48     13.4220   3.2809   4.9273   H         1 RES1   0.0000
    98 B1      11.3538   7.8703   6.9345   B         2 RES2  -1.0000
    99 F1      10.6924   6.8012   6.3607   F         2 RES2   0.0000
   100 F2      11.9593   8.6263   5.9496   F         2 RES2   0.0000
   101 F3      12.3246   7.3915   7.8158   F         2 RES2   0.0000
   102 F4      10.4510   8.6494   7.6304   F         2 RES2   0.0000
   103 B2       2.6627   1.2372   1.0805   B         3 RES3  -1.0000
   104 F5       1.7016   1.7003   0.2114   F         3 RES3   0.0000
   105 F6       3.5717   0.4444   0.3935   F         3 RES3   0.0000
   106 F7       2.0574   0.4746   2.0771   F         3 RES3   0.0000
   107 F8       3.3324   2.3059   1.6571   F         3 RES3   0.0000
@<TRIPOS>BOND
     1     1     3    1
     2     2     8    1
     3     3    10    1
     4     4     7    2
     5     5    14    1
     6     6     1    1
     7     7    12    1
     8     8    33    2
     9     9    13    1
    10    10    34    2
    11    11     4    1
    12    12     1    1
    13    13    38    2
    14    14    21    1
    15    15    17    1
    16    16     1    1
    17    17    18    1
    18    19    17    1
    19    20    29    1
    20    21    16    2
    21    22    21    1
    22    23     1    1
    23    24     1    1
    24    25     2    1
    25    26    25    1
    26    27    11    1
    27    28    27    1
    28    29    55    2
    29    30     9    1
    30    31    30    1
    31    32    30    1
    32    33     6    1
    33    34    15    1
    34    35    20    1
    35    36    35    1
    36    37    35    1
    37    38    23    1
    38    39     5    2
    39    40     3    2
    40    41    40    1
    41    42     2    1
    42    43    42    1
    43    44    42    1
    44    45     9    1
    45    46    45    1
    46    47    20    1
    47    48    47    1
    48    49    17    1
    49    50    49    1
    50    51    49    1
    51    52    11    1
    52    53    52    1
    53    54    52    1
    54    55    24    1
    55    56    49    1
    56    57    56    1
    57    58    56    1
    58    59    56    1
    59    60    42    1
    60    61    60    1
    61    62    60    1
    62    63    35    1
    63    64    63    1
    64    65    63    1
    65    66    14    1
    66    67    66    1
    67    68    66    1
    68    69    66    1
    69    70    69    1
    70    71    69    1
    71    72    73    1
    72    74    72    1
    73    75    72    1
    74    76    52    1
    75    77    76    1
    76    78    76    1
    77    79    76    1
    78    80    79    1
    79    81    79    1
    80    82    79    1
    81    83    63    1
    82    84    83    1
    83    85    83    1
    84    86    83    1
    85    87    60    1
    86    88    87    1
    87    89    87    1
    88    90    87    1
    89    91    69    1
    90    92    91    1
    91    93    91    1
    92    94    91    1
    93    95    30    1
    94    96    95    1
    95    97    95    1
    96     6    25    2
    97    12    27    2
    98    15    40    1
    99    16    39    1
   100    23    45    2
   101    24    47    2
   102    72    95    1
   103    98    99    1
   104   100    98    1
   105   101    98    1
   106   102    98    1
   107   103   104    1
   108   105   103    1
   109   106   103    1
   110   107   103    1
@<TRIPOS>SUBSTRUCTURE
     1 RES1        1 GROUP             0 ****  ****    0  
     2 RES2       98 GROUP             0 ****  ****    0  
     3 RES3      103 GROUP             0 ****  ****    0  
