@<TRIPOS>MOLECULE
JANSAS08
   107   110     3     0     0
SMALL
USER_CHARGES
****
Generated from the CSD

@<TRIPOS>ATOM
     1 Fe1      7.1422   4.3173   4.0289   Fe        1 RES1   2.0000
     2 N1       3.2443   5.0539   2.8617   N.pl3     1 RES1   0.0000
     3 N2       7.4917   4.4908   2.0818   N.2       1 RES1   0.0000
     4 N3       7.4166   0.2091   4.1282   N.2       1 RES1   0.0000
     5 N4       6.5555   4.7973   8.0630   N.2       1 RES1   0.0000
     6 N5       5.1756   4.5377   3.6738   N.2       1 RES1   0.0000
     7 N6       7.8125   1.4203   4.3892   N.2       1 RES1   0.0000
     8 N7       3.0478   4.4936   4.0718   N.2       1 RES1   0.0000
     9 N8      11.0218   3.6911   5.3028   N.pl3     1 RES1   0.0000
    10 N9       7.1697   3.5233   1.1408   N.2       1 RES1   0.0000
    11 N10      6.2794   0.3402   3.3918   N.pl3     1 RES1   0.0000
    12 N11      6.9426   2.3499   3.8430   N.2       1 RES1   0.0000
    13 N12     11.2473   4.1471   4.0557   N.2       1 RES1   0.0000
    14 N13      6.1410   3.5190   7.9277   N.pl3     1 RES1   0.0000
    15 N14      7.9887   5.1901   0.1031   N.pl3     1 RES1   0.0000
    16 N15      6.7651   4.1500   5.9683   N.2       1 RES1   0.0000
    17 C1       8.3875   6.0081  -1.0538   C.3       1 RES1   0.0000
    18 H1       8.4879   6.9491  -0.7654   H         1 RES1   0.0000
    19 H2       7.6717   5.9739  -1.7354   H         1 RES1   0.0000
    20 N16      7.9628   8.3201   4.5987   N.pl3     1 RES1   0.0000
    21 C2       6.2468   3.1510   6.6644   C.2       1 RES1   0.0000
    22 H3       5.9923   2.3058   6.3131   H         1 RES1   0.0000
    23 N17      9.1180   4.0973   4.3989   N.2       1 RES1   0.0000
    24 N18      7.3185   6.2886   4.2007   N.2       1 RES1   0.0000
    25 C3       4.5382   5.0883   2.6345   C.2       1 RES1   0.0000
    26 H4       4.9518   5.4452   1.8578   H         1 RES1   0.0000
    27 C4       5.9884   1.6097   3.2371   C.2       1 RES1   0.0000
    28 H5       5.2335   1.9523   2.7747   H         1 RES1   0.0000
    29 N19      6.8259   8.4031   3.8446   N.2       1 RES1   0.0000
    30 C5      12.1091   3.2839   6.2132   C.3       1 RES1   0.0000
    31 H6      11.8329   3.4620   7.1478   H         1 RES1   0.0000
    32 H7      12.9111   3.8300   6.0247   H         1 RES1   0.0000
    33 N20      4.2124   4.1769   4.5536   N.2       1 RES1   0.0000
    34 N21      7.4840   3.9510  -0.0387   N.2       1 RES1   0.0000
    35 C6       8.7775   9.5489   4.9065   C.3       1 RES1   0.0000
    36 H8       9.5641   9.2862   5.4479   H         1 RES1   0.0000
    37 H9       9.1088   9.9369   4.0589   H         1 RES1   0.0000
    38 N22     10.0933   4.4110   3.5111   N.2       1 RES1   0.0000
    39 N23      6.9519   5.1771   6.8835   N.2       1 RES1   0.0000
    40 C7       8.0139   5.5024   1.3841   C.2       1 RES1   0.0000
    41 H10      8.3490   6.3125   1.7515   H         1 RES1   0.0000
    42 C8       2.1196   5.5305   2.0222   C.3       1 RES1   0.0000
    43 H11      1.5068   4.7745   1.8417   H         1 RES1   0.0000
    44 H12      2.4748   5.8478   1.1537   H         1 RES1   0.0000
    45 C9       9.7276   3.6426   5.5010   C.2       1 RES1   0.0000
    46 H13      9.2963   3.3365   6.2906   H         1 RES1   0.0000
    47 C10      8.2746   7.0519   4.7824   C.2       1 RES1   0.0000
    48 H14      9.0391   6.7283   5.2432   H         1 RES1   0.0000
    49 C11      9.6775   5.5415  -1.6693   C.3       1 RES1   0.0000
    50 H15      9.9138   6.1439  -2.4186   H         1 RES1   0.0000
    51 H16      9.5463   4.6333  -2.0431   H         1 RES1   0.0000
    52 C12      5.5143  -0.8815   2.9503   C.3       1 RES1   0.0000
    53 H17      5.3182  -1.4462   3.7399   H         1 RES1   0.0000
    54 H18      4.6516  -0.6007   2.5555   H         1 RES1   0.0000
    55 N24      6.4458   7.1844   3.6367   N.2       1 RES1   0.0000
    56 C13     10.8506   5.5069  -0.6590   C.3       1 RES1   0.0000
    57 H19     11.6633   5.2021  -1.1134   H         1 RES1   0.0000
    58 H20     10.6336   4.8932   0.0725   H         1 RES1   0.0000
    59 H21     10.9954   6.4075  -0.2981   H         1 RES1   0.0000
    60 C14      1.3425   6.6567   2.6861   C.3       1 RES1   0.0000
    61 H22      0.9346   6.3203   3.5239   H         1 RES1   0.0000
    62 H23      0.6072   6.9404   2.0850   H         1 RES1   0.0000
    63 C15      8.0059  10.5837   5.6461   C.3       1 RES1   0.0000
    64 H24      8.6431  11.2333   6.0360   H         1 RES1   0.0000
    65 H25      7.5291  10.1458   6.3953   H         1 RES1   0.0000
    66 C16      5.6172   2.7527   9.0749   C.3       1 RES1   0.0000
    67 H26      6.2040   2.9010   9.8580   H         1 RES1   0.0000
    68 H27      5.6422   1.7868   8.8558   H         1 RES1   0.0000
    69 C17      4.1812   3.1463   9.4439   C.3       1 RES1   0.0000
    70 H28      4.1770   4.0885   9.7436   H         1 RES1   0.0000
    71 H29      3.8830   2.5866  10.2045   H         1 RES1   0.0000
    72 C18     12.4686   1.7992   6.0730   C.3       1 RES1   0.0000
    73 H30     12.8507   1.6359   5.1739   H         1 RES1   0.0000
    74 H31     11.6488   1.2525   6.1617   H         1 RES1   0.0000
    75 C19      6.2683  -1.6717   1.9626   C.3       1 RES1   0.0000
    76 H32      5.7168  -2.4444   1.6806   H         1 RES1   0.0000
    77 H33      7.0861  -2.0271   2.3928   H         1 RES1   0.0000
    78 C20      6.6684  -0.8761   0.7267   C.3       1 RES1   0.0000
    79 H34      7.1562  -1.4581   0.1063   H         1 RES1   0.0000
    80 H35      7.2420  -0.1275   0.9910   H         1 RES1   0.0000
    81 H36      5.8642  -0.5314   0.2852   H         1 RES1   0.0000
    82 C21      6.9771  11.3564   4.7969   C.3       1 RES1   0.0000
    83 H37      6.5235  12.0200   5.3560   H         1 RES1   0.0000
    84 H38      6.3170  10.7302   4.4327   H         1 RES1   0.0000
    85 H39      7.4379  11.8100   4.0605   H         1 RES1   0.0000
    86 C22      2.2242   7.8743   3.0099   C.3       1 RES1   0.0000
    87 H40      1.6763   8.5732   3.4289   H         1 RES1   0.0000
    88 H41      2.6185   8.2214   2.1833   H         1 RES1   0.0000
    89 H42      2.9370   7.6064   3.6255   H         1 RES1   0.0000
    90 C23      3.1803   2.9874   8.2902   C.3       1 RES1   0.0000
    91 H43      2.2880   3.2561   8.5931   H         1 RES1   0.0000
    92 H44      3.1584   2.0512   8.0018   H         1 RES1   0.0000
    93 H45      3.4541   3.5545   7.5393   H         1 RES1   0.0000
    94 C24     13.4877   1.3737   7.1494   C.3       1 RES1   0.0000
    95 H46     13.7005   0.4238   7.0398   H         1 RES1   0.0000
    96 H47     13.1049   1.5233   8.0389   H         1 RES1   0.0000
    97 H48     14.3053   1.9050   7.0511   H         1 RES1   0.0000
    98 B1      11.9268   7.2681   6.7514   B         2 RES2  -1.0000
    99 F1      10.6031   6.8102   6.8175   F         2 RES2   0.0000
   100 F2      11.9617   8.4505   5.9909   F         2 RES2   0.0000
   101 F3      12.4117   7.5220   8.0389   F         2 RES2   0.0000
   102 F4      12.7506   6.3268   6.1697   F         2 RES2   0.0000
   103 B2       2.6111   1.2851   1.0973   B         3 RES3  -1.0000
   104 F5       1.8666   1.3037  -0.0709   F         3 RES3   0.0000
   105 F6       3.9253   1.1635   0.8121   F         3 RES3   0.0000
   106 F7       2.1900   0.2339   1.9078   F         3 RES3   0.0000
   107 F8       2.3675   2.4360   1.7692   F         3 RES3   0.0000
@<TRIPOS>BOND
     1     1     3    1
     2     2     8    1
     3     3    10    1
     4     4     7    2
     5     5    14    1
     6     6     1    1
     7     7    12    1
     8     8    33    2
     9     9    13    1
    10    10    34    2
    11    11     4    1
    12    12     1    1
    13    13    38    2
    14    14    21    1
    15    15    17    1
    16    16     1    1
    17    17    18    1
    18    19    17    1
    19    20    29    1
    20    21    16    2
    21    22    21    1
    22    23     1    1
    23    24     1    1
    24    25     2    1
    25    26    25    1
    26    27    11    1
    27    28    27    1
    28    29    55    2
    29    30     9    1
    30    31    30    1
    31    32    30    1
    32    33     6    1
    33    34    15    1
    34    35    20    1
    35    36    35    1
    36    37    35    1
    37    38    23    1
    38    39     5    2
    39    40     3    2
    40    41    40    1
    41    42     2    1
    42    43    42    1
    43    44    42    1
    44    45     9    1
    45    46    45    1
    46    47    20    1
    47    48    47    1
    48    49    17    1
    49    50    49    1
    50    51    49    1
    51    52    11    1
    52    53    52    1
    53    54    52    1
    54    55    24    1
    55    56    49    1
    56    57    56    1
    57    58    56    1
    58    59    56    1
    59    60    42    1
    60    61    60    1
    61    62    60    1
    62    63    35    1
    63    64    63    1
    64    65    63    1
    65    66    14    1
    66    67    66    1
    67    68    66    1
    68    69    66    1
    69    70    69    1
    70    71    69    1
    71    72    30    1
    72    73    72    1
    73    74    72    1
    74    75    52    1
    75    76    75    1
    76    77    75    1
    77    78    75    1
    78    79    78    1
    79    80    78    1
    80    81    78    1
    81    82    63    1
    82    83    82    1
    83    84    82    1
    84    85    82    1
    85    86    60    1
    86    87    86    1
    87    88    86    1
    88    89    86    1
    89    90    69    1
    90    91    90    1
    91    92    90    1
    92    93    90    1
    93    94    72    1
    94    95    94    1
    95    96    94    1
    96    97    94    1
    97     6    25    2
    98    12    27    2
    99    15    40    1
   100    16    39    1
   101    23    45    2
   102    24    47    2
   103    98    99    1
   104   100    98    1
   105   101    98    1
   106   102    98    1
   107   103   104    1
   108   105   103    1
   109   106   103    1
   110   107   103    1
@<TRIPOS>SUBSTRUCTURE
     1 RES1        1 GROUP             0 ****  ****    0  
     2 RES2       98 GROUP             0 ****  ****    0  
     3 RES3      103 GROUP             0 ****  ****    0  
