@<TRIPOS>MOLECULE
JANSAS
    54    58     2     0     0
SMALL
USER_CHARGES
****
Generated from the CSD

@<TRIPOS>ATOM
     1 Fe1      0.0000   0.0000   0.0000   Fe        1 RES1   2.0000
     2 N1       0.4531   1.7144   1.2184   N.2       1 RES1   0.0000
     3 N2      -0.4308   2.2893   2.0922   N.2       1 RES1   0.0000
     4 N3       0.1255   3.3074   2.6727   N.2       1 RES1   0.0000
     5 N4       1.3641   3.4090   2.1815   N.pl3     1 RES1   0.0000
     6 C1       1.5738   2.4361   1.3045   C.2       1 RES1   0.0000
     7 C2       2.2762   4.5127   2.5675   C.3       1 RES1   0.0000
     8 C3       2.5587   4.5165   4.0378   C.3       1 RES1   0.0000
     9 C4       3.1579   3.2152   4.5481   C.3       1 RES1   0.0000
    10 N1C     -1.7112  -0.4648   1.2184   N.2       1 RES1   0.0000
    11 N2C     -1.7672  -1.5177   2.0922   N.2       1 RES1   0.0000
    12 N3C     -2.9270  -1.5450   2.6727   N.2       1 RES1   0.0000
    13 N4C     -3.6343  -0.5232   2.1815   N.pl3     1 RES1   0.0000
    14 C1C     -2.8966   0.1449   1.3045   C.2       1 RES1   0.0000
    15 C2C     -5.0462  -0.2851   2.5675   C.3       1 RES1   0.0000
    16 C3C     -5.1908  -0.0423   4.0378   C.3       1 RES1   0.0000
    17 C4C     -4.3634   1.1272   4.5481   C.3       1 RES1   0.0000
    18 N1D      1.2582  -1.2496   1.2184   N.2       1 RES1   0.0000
    19 N2D      2.1980  -0.7716   2.0922   N.2       1 RES1   0.0000
    20 N3D      2.8015  -1.7624   2.6727   N.2       1 RES1   0.0000
    21 N4D      2.2702  -2.8859   2.1815   N.pl3     1 RES1   0.0000
    22 C1D      1.3228  -2.5810   1.3045   C.2       1 RES1   0.0000
    23 C2D      2.7700  -4.2276   2.5675   C.3       1 RES1   0.0000
    24 C3D      2.6320  -4.4742   4.0378   C.3       1 RES1   0.0000
    25 C4D      1.2055  -4.3424   4.5481   C.3       1 RES1   0.0000
    26 N1I     -0.4531  -1.7144  -1.2184   N.2       1 RES1   0.0000
    27 N2I      0.4308  -2.2893  -2.0922   N.2       1 RES1   0.0000
    28 N3I     -0.1255  -3.3074  -2.6727   N.2       1 RES1   0.0000
    29 N4I     -1.3641  -3.4090  -2.1815   N.pl3     1 RES1   0.0000
    30 C1I     -1.5738  -2.4361  -1.3045   C.2       1 RES1   0.0000
    31 C2I     -2.2762  -4.5127  -2.5675   C.3       1 RES1   0.0000
    32 C3I     -2.5587  -4.5165  -4.0378   C.3       1 RES1   0.0000
    33 C4I     -3.1579  -3.2152  -4.5481   C.3       1 RES1   0.0000
    34 N1L      1.7112   0.4648  -1.2184   N.2       1 RES1   0.0000
    35 N2L      1.7672   1.5177  -2.0922   N.2       1 RES1   0.0000
    36 N3L      2.9270   1.5450  -2.6727   N.2       1 RES1   0.0000
    37 N4L      3.6343   0.5232  -2.1815   N.pl3     1 RES1   0.0000
    38 C1L      2.8966  -0.1449  -1.3045   C.2       1 RES1   0.0000
    39 C2L      5.0462   0.2851  -2.5675   C.3       1 RES1   0.0000
    40 C3L      5.1908   0.0423  -4.0378   C.3       1 RES1   0.0000
    41 C4L      4.3634  -1.1272  -4.5481   C.3       1 RES1   0.0000
    42 N1M     -1.2582   1.2496  -1.2184   N.2       1 RES1   0.0000
    43 N2M     -2.1980   0.7716  -2.0922   N.2       1 RES1   0.0000
    44 N3M     -2.8015   1.7624  -2.6727   N.2       1 RES1   0.0000
    45 N4M     -2.2702   2.8859  -2.1815   N.pl3     1 RES1   0.0000
    46 C1M     -1.3228   2.5810  -1.3045   C.2       1 RES1   0.0000
    47 C2M     -2.7700   4.2276  -2.5675   C.3       1 RES1   0.0000
    48 C3M     -2.6320   4.4742  -4.0378   C.3       1 RES1   0.0000
    49 C4M     -1.2055   4.3424  -4.5481   C.3       1 RES1   0.0000
    50 B1       0.0000   0.0000  10.2061   B         2 RES2  -1.0000
    51 F1       0.0000   0.0000   8.8283   F         2 RES2   0.0000
    52 F2       1.0333   0.7923  10.6366   F         2 RES2   0.0000
    53 F2C     -1.2028   0.4987  10.6366   F         2 RES2   0.0000
    54 F2D      0.1695  -1.2910  10.6366   F         2 RES2   0.0000
@<TRIPOS>BOND
     1     1     2    1
     2     2     3    1
     3     3     4    2
     4     4     5    1
     5     5     6    1
     6     6     2    2
     7     7     5    1
     8     8     7    1
     9     9     8    1
    10    10     1    1
    11    11    10    1
    12    12    11    2
    13    13    12    1
    14    14    10    2
    15    15    13    1
    16    16    15    1
    17    17    16    1
    18    18     1    1
    19    19    18    1
    20    20    19    2
    21    21    20    1
    22    22    18    2
    23    23    21    1
    24    24    23    1
    25    25    24    1
    26    26     1    1
    27    27    26    1
    28    28    27    2
    29    29    28    1
    30    30    26    2
    31    31    29    1
    32    32    31    1
    33    33    32    1
    34    34     1    1
    35    35    34    1
    36    36    35    2
    37    37    36    1
    38    38    34    2
    39    39    37    1
    40    40    39    1
    41    41    40    1
    42    42     1    1
    43    43    42    1
    44    44    43    2
    45    45    44    1
    46    46    42    2
    47    47    45    1
    48    48    47    1
    49    49    48    1
    50    13    14    1
    51    21    22    1
    52    29    30    1
    53    37    38    1
    54    45    46    1
    55    50    51    1
    56    52    50    1
    57    53    50    1
    58    54    50    1
@<TRIPOS>SUBSTRUCTURE
     1 RES1        1 GROUP             0 ****  ****    0  
     2 RES2       50 GROUP             0 ****  ****    0  
@<TRIPOS>CRYSIN
   10.8650   10.8650   31.8940   90.0000   90.0000  120.0000   233     1
