@<TRIPOS>MOLECULE
JAPJIW
    82    88     2     0     0
SMALL
NO_CHARGES
****
Generated from the CSD

@<TRIPOS>ATOM
     1 Fe1      4.4785   0.0000   0.0000   Fe        1 RES1   0.0000
     2 N1       5.1816   0.1913   1.7681   N.2       1 RES1   0.0000
     3 N2       3.2110  -1.0218   0.9768   N.2       1 RES1   0.0000
     4 N3       3.3409   1.6094   0.2810   N.ar      1 RES1   0.0000
     5 N4       1.1510   2.6708   0.1119   N.ar      1 RES1   0.0000
     6 N5       2.9638   3.7943   1.2742   N.ar      1 RES1   0.0000
     7 O1       6.2833   0.9512   2.0082   O.3       1 RES1   0.0000
     8 O2       2.1326  -1.6680   0.3683   O.3       1 RES1   0.0000
     9 H1       2.1550  -1.5353  -0.4393   H         1 RES1   0.0000
    10 C1       4.5277  -0.3205   2.7558   C.2       1 RES1   0.0000
    11 C2       3.3427  -1.0821   2.2647   C.2       1 RES1   0.0000
    12 C3       2.0234   1.6077  -0.1364   C.ar      1 RES1   0.0000
    13 H2       1.7027   0.8684  -0.6003   H         1 RES1   0.0000
    14 C4       1.6364   3.7822   0.8622   C.ar      1 RES1   0.0000
    15 H3       1.0712   4.4921   1.0723   H         1 RES1   0.0000
    16 C5       3.7691   2.6777   0.9713   C.ar      1 RES1   0.0000
    17 H4       4.6513   2.6829   1.2660   H         1 RES1   0.0000
    18 C6       4.8537  -0.1223   4.1773   C.ar      1 RES1   0.0000
    19 C7       4.2805   0.8133   4.9249   C.ar      1 RES1   0.0000
    20 H5       3.6347   1.3630   4.5430   H         1 RES1   0.0000
    21 C8       4.6137   0.9891   6.2428   C.ar      1 RES1   0.0000
    22 H6       4.1847   1.6456   6.7449   H         1 RES1   0.0000
    23 C9       5.5372   0.2378   6.8049   C.ar      1 RES1   0.0000
    24 H7       5.7682   0.3653   7.6971   H         1 RES1   0.0000
    25 C10      6.1265  -0.6910   6.0927   C.ar      1 RES1   0.0000
    26 H8       6.8028  -1.2096   6.4665   H         1 RES1   0.0000
    27 C11      5.7369  -0.9029   4.7585   C.ar      1 RES1   0.0000
    28 H9       6.1086  -1.6077   4.2810   H         1 RES1   0.0000
    29 C12      2.4004  -1.8282   3.1569   C.ar      1 RES1   0.0000
    30 C13      2.9110  -2.7966   4.0027   C.ar      1 RES1   0.0000
    31 H10      3.8291  -2.9379   4.0273   H         1 RES1   0.0000
    32 C14      2.0879  -3.5565   4.8131   C.ar      1 RES1   0.0000
    33 H11      2.4309  -4.2354   5.3451   H         1 RES1   0.0000
    34 C15      0.7434  -3.2704   4.7994   C.ar      1 RES1   0.0000
    35 H12      0.1809  -3.7219   5.3888   H         1 RES1   0.0000
    36 C16      0.2203  -2.3830   3.9836   C.ar      1 RES1   0.0000
    37 H13     -0.7040  -2.2848   3.9536   H         1 RES1   0.0000
    38 C17      1.0417  -1.5542   3.1269   C.ar      1 RES1   0.0000
    39 H14      0.6825  -0.8822   2.5948   H         1 RES1   0.0000
    40 N1D      3.7753  -0.1913  -1.7681   N.2       1 RES1   0.0000
    41 N2D      5.7459   1.0218  -0.9768   N.2       1 RES1   0.0000
    42 N3D      5.6160  -1.6094  -0.2810   N.ar      1 RES1   0.0000
    43 N4D      7.8059  -2.6708  -0.1119   N.ar      1 RES1   0.0000
    44 N5D      5.9931  -3.7943  -1.2742   N.ar      1 RES1   0.0000
    45 O1D      2.6736  -0.9512  -2.0082   O.3       1 RES1   0.0000
    46 O2D      6.8243   1.6680  -0.3683   O.3       1 RES1   0.0000
    47 H1D      6.8019   1.5353   0.4393   H         1 RES1   0.0000
    48 C1D      4.4292   0.3205  -2.7558   C.2       1 RES1   0.0000
    49 C2D      5.6142   1.0821  -2.2647   C.2       1 RES1   0.0000
    50 C3D      6.9335  -1.6077   0.1364   C.ar      1 RES1   0.0000
    51 H2D      7.2542  -0.8684   0.6003   H         1 RES1   0.0000
    52 C4D      7.3205  -3.7822  -0.8622   C.ar      1 RES1   0.0000
    53 H3D      7.8857  -4.4921  -1.0723   H         1 RES1   0.0000
    54 C5D      5.1878  -2.6777  -0.9713   C.ar      1 RES1   0.0000
    55 H4D      4.3056  -2.6829  -1.2660   H         1 RES1   0.0000
    56 C6D      4.1032   0.1223  -4.1773   C.ar      1 RES1   0.0000
    57 C7D      4.6764  -0.8133  -4.9249   C.ar      1 RES1   0.0000
    58 H5D      5.3222  -1.3630  -4.5430   H         1 RES1   0.0000
    59 C8D      4.3432  -0.9891  -6.2428   C.ar      1 RES1   0.0000
    60 H6D      4.7722  -1.6456  -6.7449   H         1 RES1   0.0000
    61 C9D      3.4197  -0.2378  -6.8049   C.ar      1 RES1   0.0000
    62 H7D      3.1887  -0.3653  -7.6971   H         1 RES1   0.0000
    63 C10D     2.8304   0.6910  -6.0927   C.ar      1 RES1   0.0000
    64 H8D      2.1541   1.2096  -6.4665   H         1 RES1   0.0000
    65 C11D     3.2200   0.9029  -4.7585   C.ar      1 RES1   0.0000
    66 H9D      2.8483   1.6077  -4.2810   H         1 RES1   0.0000
    67 C12D     6.5565   1.8282  -3.1569   C.ar      1 RES1   0.0000
    68 C13D     6.0459   2.7966  -4.0027   C.ar      1 RES1   0.0000
    69 H10D     5.1278   2.9379  -4.0273   H         1 RES1   0.0000
    70 C14D     6.8690   3.5565  -4.8131   C.ar      1 RES1   0.0000
    71 H11D     6.5260   4.2354  -5.3451   H         1 RES1   0.0000
    72 C15D     8.2135   3.2704  -4.7994   C.ar      1 RES1   0.0000
    73 H12D     8.7760   3.7219  -5.3888   H         1 RES1   0.0000
    74 C16D     8.7366   2.3830  -3.9836   C.ar      1 RES1   0.0000
    75 H13D     9.6609   2.2848  -3.9536   H         1 RES1   0.0000
    76 C17D     7.9152   1.5542  -3.1269   C.ar      1 RES1   0.0000
    77 H14D     8.2744   0.8822  -2.5948   H         1 RES1   0.0000
    78 C18      7.4333   2.9758   3.8472   C.3       2 RES2   0.0000
    79 H15      6.7526   2.2728   3.7926   H         2 RES2   0.0000
    80 Cl1      7.2649   3.8101   5.4032   Cl        2 RES2   0.0000
    81 Cl2      9.0044   2.2400   3.7203   Cl        2 RES2   0.0000
    82 Cl3      7.1548   4.1387   2.5307   Cl        2 RES2   0.0000
@<TRIPOS>BOND
     1     1     2    1
     2     2     7    1
     3     3     1    1
     4     4     1    1
     5     5    12   ar
     6     6    14   ar
     7     8     3    1
     8     9     8    1
     9    10     2    2
    10    11     3    2
    11    12     4   ar
    12    13    12    1
    13    14     5   ar
    14    15    14    1
    15    16     4   ar
    16    17    16    1
    17    18    10    1
    18    19    18   ar
    19    20    19    1
    20    21    19   ar
    21    22    21    1
    22    23    21   ar
    23    24    23    1
    24    25    23   ar
    25    26    25    1
    26    27    18   ar
    27    28    27    1
    28    29    11    1
    29    30    29   ar
    30    31    30    1
    31    32    30   ar
    32    33    32    1
    33    34    32   ar
    34    35    34    1
    35    36    34   ar
    36    37    36    1
    37    38    29   ar
    38    39    38    1
    39    40     1    1
    40    41     1    1
    41    42     1    1
    42    43    50   ar
    43    44    52   ar
    44    45    40    1
    45    46    41    1
    46    47    46    1
    47    48    40    2
    48    49    41    2
    49    50    42   ar
    50    51    50    1
    51    52    43   ar
    52    53    52    1
    53    54    42   ar
    54    55    54    1
    55    56    48    1
    56    57    56   ar
    57    58    57    1
    58    59    57   ar
    59    60    59    1
    60    61    59   ar
    61    62    61    1
    62    63    61   ar
    63    64    63    1
    64    65    56   ar
    65    66    65    1
    66    67    49    1
    67    68    67   ar
    68    69    68    1
    69    70    68   ar
    70    71    70    1
    71    72    70   ar
    72    73    72    1
    73    74    72   ar
    74    75    74    1
    75    76    67   ar
    76    77    76    1
    77     6    16   ar
    78    10    11    1
    79    25    27   ar
    80    36    38   ar
    81    44    54   ar
    82    48    49    1
    83    63    65   ar
    84    74    76   ar
    85    78    79    1
    86    80    78    1
    87    81    78    1
    88    82    78    1
@<TRIPOS>SUBSTRUCTURE
     1 RES1        1 GROUP             0 ****  ****    0  
     2 RES2       78 GROUP             0 ****  ****    0  
@<TRIPOS>CRYSIN
    8.9569   17.2310   27.2850   90.0000   90.0000   90.0000    61     1
