@<TRIPOS>MOLECULE
JAPTIG01
    85    98     1     0     0
SMALL
NO_CHARGES
****
Generated from the CSD

@<TRIPOS>ATOM
     1 Fe1      4.5855   0.0000   0.0000   Fe        1 RES1   0.0000
     2 N1       5.6217   1.4833   0.6479   N.2       1 RES1   0.0000
     3 N2       4.0674   2.5061   2.2021   N.2       1 RES1   0.0000
     4 N3       3.1178   0.5500   1.1337   N.2       1 RES1   0.0000
     5 N4       1.4888  -1.1549   0.5849   N.2       1 RES1   0.0000
     6 C1       6.9164   1.7879   0.2873   C.2       1 RES1   0.0000
     7 C2       7.3681   2.9722   0.9930   C.ar      1 RES1   0.0000
     8 C3       8.5639   3.6719   0.9606   C.ar      1 RES1   0.0000
     9 H1       9.2780   3.3889   0.4364   H         1 RES1   0.0000
    10 C4       8.6492   4.8059   1.7387   C.ar      1 RES1   0.0000
    11 H2       9.4367   5.3002   1.7377   H         1 RES1   0.0000
    12 C5       7.5863   5.2247   2.5221   C.ar      1 RES1   0.0000
    13 H3       7.6756   6.0015   3.0261   H         1 RES1   0.0000
    14 C6       6.4017   4.5243   2.5743   C.ar      1 RES1   0.0000
    15 H4       5.6950   4.8035   3.1106   H         1 RES1   0.0000
    16 C7       6.3101   3.3806   1.7906   C.ar      1 RES1   0.0000
    17 C8       5.2365   2.4322   1.5647   C.2       1 RES1   0.0000
    18 C9       3.0977   1.6155   2.0000   C.2       1 RES1   0.0000
    19 C10      1.8364   1.6389   2.7254   C.ar      1 RES1   0.0000
    20 C11      1.3552   2.4481   3.7493   C.ar      1 RES1   0.0000
    21 H5       1.8557   3.1594   4.0769   H         1 RES1   0.0000
    22 C12      0.1120   2.1565   4.2599   C.ar      1 RES1   0.0000
    23 H6      -0.2299   2.6722   4.9548   H         1 RES1   0.0000
    24 C13     -0.6418   1.1035   3.7541   C.ar      1 RES1   0.0000
    25 H7      -1.4831   0.9381   4.1147   H         1 RES1   0.0000
    26 C14     -0.1829   0.3004   2.7393   C.ar      1 RES1   0.0000
    27 H8      -0.6956  -0.3984   2.4028   H         1 RES1   0.0000
    28 C15      1.0843   0.5801   2.2365   C.ar      1 RES1   0.0000
    29 C16      1.9069  -0.0866   1.2362   C.2       1 RES1   0.0000
    30 N5       5.3368  -1.1468   1.5036   N.ar      1 RES1   0.0000
    31 C17      5.2878  -0.7462   2.7795   C.ar      1 RES1   0.0000
    32 H9       4.9097   0.0833   2.9645   H         1 RES1   0.0000
    33 C18      5.7636  -1.4902   3.8306   C.ar      1 RES1   0.0000
    34 H10      5.6930  -1.1613   4.6973   H         1 RES1   0.0000
    35 C19      6.3478  -2.7239   3.6133   C.ar      1 RES1   0.0000
    36 C20      6.4093  -3.1360   2.3003   C.ar      1 RES1   0.0000
    37 H11      6.7927  -3.9574   2.0917   H         1 RES1   0.0000
    38 C21      5.9073  -2.3400   1.2947   C.ar      1 RES1   0.0000
    39 H12      5.9675  -2.6491   0.4195   H         1 RES1   0.0000
    40 C22      6.8936  -3.5439   4.7481   C.3       1 RES1   0.0000
    41 H13      7.0698  -4.4363   4.4418   H         1 RES1   0.0000
    42 H14      6.2510  -3.5724   5.4608   H         1 RES1   0.0000
    43 H15      7.7078  -3.1480   5.0661   H         1 RES1   0.0000
    44 N1A      3.5493  -1.4833  -0.6479   N.2       1 RES1   0.0000
    45 N2A      5.1036  -2.5061  -2.2021   N.2       1 RES1   0.0000
    46 N3A      6.0532  -0.5500  -1.1337   N.2       1 RES1   0.0000
    47 N4A      7.6822   1.1549  -0.5849   N.2       1 RES1   0.0000
    48 C1A      2.2546  -1.7879  -0.2873   C.2       1 RES1   0.0000
    49 C2A      1.8029  -2.9722  -0.9930   C.2       1 RES1   0.0000
    50 C3A      0.6071  -3.6719  -0.9606   C.2       1 RES1   0.0000
    51 H1A     -0.1070  -3.3889  -0.4364   H         1 RES1   0.0000
    52 C4A      0.5218  -4.8059  -1.7387   C.2       1 RES1   0.0000
    53 H2A     -0.2657  -5.3002  -1.7377   H         1 RES1   0.0000
    54 C5A      1.5847  -5.2247  -2.5221   C.2       1 RES1   0.0000
    55 H3A      1.4954  -6.0015  -3.0261   H         1 RES1   0.0000
    56 C6A      2.7693  -4.5243  -2.5743   C.2       1 RES1   0.0000
    57 H4A      3.4760  -4.8035  -3.1106   H         1 RES1   0.0000
    58 C7A      2.8609  -3.3806  -1.7906   C.2       1 RES1   0.0000
    59 C8A      3.9345  -2.4322  -1.5647   C.2       1 RES1   0.0000
    60 C9A      6.0733  -1.6155  -2.0000   C.2       1 RES1   0.0000
    61 C10A     7.3346  -1.6389  -2.7254   C.ar      1 RES1   0.0000
    62 C11A     7.8158  -2.4481  -3.7493   C.ar      1 RES1   0.0000
    63 H5A      7.3153  -3.1594  -4.0769   H         1 RES1   0.0000
    64 C12A     9.0590  -2.1565  -4.2599   C.ar      1 RES1   0.0000
    65 H6A      9.4009  -2.6722  -4.9548   H         1 RES1   0.0000
    66 C13A     9.8128  -1.1035  -3.7541   C.ar      1 RES1   0.0000
    67 H7A     10.6541  -0.9381  -4.1147   H         1 RES1   0.0000
    68 C14A     9.3539  -0.3004  -2.7393   C.ar      1 RES1   0.0000
    69 H8A      9.8666   0.3984  -2.4028   H         1 RES1   0.0000
    70 C15A     8.0867  -0.5801  -2.2365   C.ar      1 RES1   0.0000
    71 C16A     7.2641   0.0866  -1.2362   C.2       1 RES1   0.0000
    72 N5A      3.8342   1.1468  -1.5036   N.ar      1 RES1   0.0000
    73 C17A     3.8832   0.7462  -2.7795   C.ar      1 RES1   0.0000
    74 H9A      4.2613  -0.0833  -2.9645   H         1 RES1   0.0000
    75 C18A     3.4074   1.4902  -3.8306   C.ar      1 RES1   0.0000
    76 H10A     3.4780   1.1613  -4.6973   H         1 RES1   0.0000
    77 C19A     2.8232   2.7239  -3.6133   C.ar      1 RES1   0.0000
    78 C20A     2.7617   3.1360  -2.3003   C.ar      1 RES1   0.0000
    79 H11A     2.3783   3.9574  -2.0917   H         1 RES1   0.0000
    80 C21A     3.2637   2.3400  -1.2947   C.ar      1 RES1   0.0000
    81 H12A     3.2035   2.6491  -0.4195   H         1 RES1   0.0000
    82 C22A     2.2774   3.5439  -4.7481   C.3       1 RES1   0.0000
    83 H13A     2.1012   4.4363  -4.4418   H         1 RES1   0.0000
    84 H14A     2.9200   3.5724  -5.4608   H         1 RES1   0.0000
    85 H15A     1.4632   3.1480  -5.0661   H         1 RES1   0.0000
@<TRIPOS>BOND
     1     1     2    1
     2     2     6    1
     3     3    17    2
     4     4     1    1
     5     5    29    2
     6     6     7    1
     7     7     8   ar
     8     8     9    1
     9    10     8   ar
    10    11    10    1
    11    12    10   ar
    12    13    12    1
    13    14    12   ar
    14    15    14    1
    15    16     7   ar
    16    17     2    1
    17    18     3    1
    18    19    18    1
    19    20    19   ar
    20    21    20    1
    21    22    20   ar
    22    23    22    1
    23    24    22   ar
    24    25    24    1
    25    26    24   ar
    26    27    26    1
    27    28    19   ar
    28    29     4    1
    29    30     1    1
    30    31    30   ar
    31    32    31    1
    32    33    31   ar
    33    34    33    1
    34    35    33   ar
    35    36    35   ar
    36    37    36    1
    37    38    30   ar
    38    39    38    1
    39    40    35    1
    40    41    40    1
    41    42    40    1
    42    43    40    1
    43    44     1    1
    44    45    59    1
    45    46     1    1
    46    47     6    2
    47    48     5    1
    48    49    48    2
    49    50    49    1
    50    51    50    1
    51    52    50    2
    52    53    52    1
    53    54    52    1
    54    55    54    1
    55    56    54    2
    56    57    56    1
    57    58    49    1
    58    59    44    1
    59    60    45    2
    60    61    60    1
    61    62    61   ar
    62    63    62    1
    63    64    62   ar
    64    65    64    1
    65    66    64   ar
    66    67    66    1
    67    68    66   ar
    68    69    68    1
    69    70    61   ar
    70    71    46    2
    71    72     1    1
    72    73    72   ar
    73    74    73    1
    74    75    73   ar
    75    76    75    1
    76    77    75   ar
    77    78    77   ar
    78    79    78    1
    79    80    72   ar
    80    81    80    1
    81    82    77    1
    82    83    82    1
    83    84    82    1
    84    85    82    1
    85     4    18    2
    86    14    16   ar
    87    16    17    1
    88    26    28   ar
    89    28    29    1
    90    36    38   ar
    91    44    48    1
    92    46    60    1
    93    47    71    1
    94    56    58    1
    95    58    59    2
    96    68    70   ar
    97    70    71    1
    98    78    80   ar
@<TRIPOS>SUBSTRUCTURE
     1 RES1        1 GROUP             0 ****  ****    0  
@<TRIPOS>CRYSIN
    9.1710    9.9810   10.9500  112.7100   91.0600  110.4100     2     1
