@<TRIPOS>MOLECULE
JAPTIG
    85    98     1     0     0
SMALL
NO_CHARGES
****
Generated from the CSD

@<TRIPOS>ATOM
     1 Fe1      2.4067   6.7266   5.2771   Fe        1 RES1   0.0000
     2 N1       0.7097   7.5530   5.3586   N.2       1 RES1   0.0000
     3 N2       0.9888   9.0489   7.1730   N.2       1 RES1   0.0000
     4 N3       2.9764   7.7852   6.7526   N.2       1 RES1   0.0000
     5 N4       5.2794   6.8626   7.0852   N.2       1 RES1   0.0000
     6 N5       4.0895   5.8553   5.1485   N.2       1 RES1   0.0000
     7 N6       3.7842   4.3717   3.2894   N.2       1 RES1   0.0000
     8 N7       1.7420   5.6748   3.7457   N.2       1 RES1   0.0000
     9 N8      -0.4115   6.5675   3.4804   N.2       1 RES1   0.0000
    10 C1      -0.3094   7.3936   4.5500   C.2       1 RES1   0.0000
    11 C2      -1.5296   8.3115   4.9384   C.ar      1 RES1   0.0000
    12 C3      -2.8379   8.4249   4.3654   C.ar      1 RES1   0.0000
    13 H1      -3.1058   7.9227   3.6290   H         1 RES1   0.0000
    14 C4      -3.6123   9.2672   4.9384   C.ar      1 RES1   0.0000
    15 H2      -4.4757   9.3716   4.6073   H         1 RES1   0.0000
    16 C5      -3.1948  10.0933   6.1204   C.ar      1 RES1   0.0000
    17 H3      -3.7690  10.7268   6.4854   H         1 RES1   0.0000
    18 C6      -1.9583   9.8935   6.6382   C.ar      1 RES1   0.0000
    19 H4      -1.7005  10.3363   7.4128   H         1 RES1   0.0000
    20 C7      -1.0595   9.0098   5.9931   C.ar      1 RES1   0.0000
    21 C8       0.2659   8.6030   6.1947   C.2       1 RES1   0.0000
    22 C9       2.3101   8.7380   7.4786   C.2       1 RES1   0.0000
    23 C10      3.0461   9.2690   8.5461   C.ar      1 RES1   0.0000
    24 C11      2.7368  10.2193   9.5308   C.ar      1 RES1   0.0000
    25 H5       1.9017  10.6242   9.5881   H         1 RES1   0.0000
    26 C12      3.7397  10.5018  10.3924   C.ar      1 RES1   0.0000
    27 H6       3.5466  11.1228  11.0588   H         1 RES1   0.0000
    28 C13      5.0651   9.9601  10.3967   C.ar      1 RES1   0.0000
    29 H7       5.7020  10.2283  11.0206   H         1 RES1   0.0000
    30 C14      5.3623   8.9630   9.3674   C.ar      1 RES1   0.0000
    31 H8       6.1802   8.5275   9.2974   H         1 RES1   0.0000
    32 C15      4.3089   8.7362   8.5164   C.ar      1 RES1   0.0000
    33 C16      4.2037   7.7409   7.4065   C.2       1 RES1   0.0000
    34 C17      5.1905   6.0905   6.0122   C.2       1 RES1   0.0000
    35 C18      6.2965   5.2608   5.6344   C.2       1 RES1   0.0000
    36 C19      7.5633   5.0772   6.1119   C.2       1 RES1   0.0000
    37 H9       7.8545   5.5236   6.8738   H         1 RES1   0.0000
    38 C20      8.4651   4.1431   5.3861   C.2       1 RES1   0.0000
    39 H10      9.3467   4.0442   5.6620   H         1 RES1   0.0000
    40 C21      8.0193   3.4466   4.3399   C.2       1 RES1   0.0000
    41 H11      8.5945   2.8779   3.8815   H         1 RES1   0.0000
    42 C22      6.7161   3.5654   3.9409   C.2       1 RES1   0.0000
    43 H12      6.3915   3.0201   3.2597   H         1 RES1   0.0000
    44 C23      5.8668   4.4977   4.5458   C.2       1 RES1   0.0000
    45 C24      4.5091   4.8937   4.2635   C.2       1 RES1   0.0000
    46 C25      2.4962   4.7425   3.0793   C.2       1 RES1   0.0000
    47 C26      1.6985   4.2547   1.9694   C.ar      1 RES1   0.0000
    48 C27      2.0351   3.2252   0.9550   C.ar      1 RES1   0.0000
    49 H13      2.8510   2.7789   0.9359   H         1 RES1   0.0000
    50 C28      1.0444   2.9913   0.0509   C.ar      1 RES1   0.0000
    51 H14      1.2102   2.4063  -0.6515   H         1 RES1   0.0000
    52 C29     -0.1982   3.5888   0.1401   C.ar      1 RES1   0.0000
    53 H15     -0.8492   3.3548  -0.4817   H         1 RES1   0.0000
    54 C30     -0.5166   4.5301   1.1248   C.ar      1 RES1   0.0000
    55 H16     -1.3477   4.9441   1.1608   H         1 RES1   0.0000
    56 C31      0.4893   4.8073   2.0416   C.ar      1 RES1   0.0000
    57 C32      0.5935   5.7612   3.1663   C.2       1 RES1   0.0000
    58 N9       3.0542   8.1545   3.9452   N.ar      1 RES1   0.0000
    59 C33      2.7479   9.4831   4.1807   C.ar      1 RES1   0.0000
    60 H17      2.2293   9.6991   4.9214   H         1 RES1   0.0000
    61 C34      3.1806  10.4874   3.3637   C.ar      1 RES1   0.0000
    62 H18      3.0017  11.3747   3.5780   H         1 RES1   0.0000
    63 C35      3.8944  10.1725   2.2007   C.ar      1 RES1   0.0000
    64 C36      4.1764   8.7884   1.9567   C.ar      1 RES1   0.0000
    65 H19      4.6344   8.5257   1.1906   H         1 RES1   0.0000
    66 C37      3.7801   7.9083   2.8246   C.ar      1 RES1   0.0000
    67 H20      4.0157   7.0228   2.6634   H         1 RES1   0.0000
    68 C38      4.1936  11.1804   1.0017   C.3       1 RES1   0.0000
    69 H21      3.3808  11.3621   0.5263   H         1 RES1   0.0000
    70 H22      4.8346  10.7880   0.4053   H         1 RES1   0.0000
    71 H23      4.5465  12.0011   1.3561   H         1 RES1   0.0000
    72 N10      1.7238   5.3184   6.5279   N.ar      1 RES1   0.0000
    73 C39      1.0656   5.5992   7.5720   C.ar      1 RES1   0.0000
    74 H24      0.9069   6.4991   7.7439   H         1 RES1   0.0000
    75 C40      0.5429   4.6525   8.5185   C.ar      1 RES1   0.0000
    76 H25     -0.0010   4.8991   9.2316   H         1 RES1   0.0000
    77 C41      0.9402   3.2684   8.2638   C.ar      1 RES1   0.0000
    78 C42      1.5428   2.9913   7.2091   C.ar      1 RES1   0.0000
    79 H26      1.6742   2.0950   6.9990   H         1 RES1   0.0000
    80 C43      2.0624   4.0100   6.2732   C.ar      1 RES1   0.0000
    81 H27      2.5932   3.7778   5.5453   H         1 RES1   0.0000
    82 C44      0.3660   2.1202   9.1828   C.3       1 RES1   0.0000
    83 H28     -0.2042   1.5496   8.6628   H         1 RES1   0.0000
    84 H29     -0.1385   2.5071   9.9001   H         1 RES1   0.0000
    85 H30      1.0929   1.6054   9.5414   H         1 RES1   0.0000
@<TRIPOS>BOND
     1     1     2    1
     2     2    10    1
     3     3    21    2
     4     4     1    1
     5     5    33    2
     6     6     1    1
     7     7    45    1
     8     8     1    1
     9     9    10    2
    10    10    11    1
    11    11    12   ar
    12    12    13    1
    13    14    12   ar
    14    15    14    1
    15    16    14   ar
    16    17    16    1
    17    18    16   ar
    18    19    18    1
    19    20    11   ar
    20    21     2    1
    21    22     3    1
    22    23    22    1
    23    24    23   ar
    24    25    24    1
    25    26    24   ar
    26    27    26    1
    27    28    26   ar
    28    29    28    1
    29    30    28   ar
    30    31    30    1
    31    32    23   ar
    32    33     4    1
    33    34     5    1
    34    35    34    2
    35    36    35    1
    36    37    36    1
    37    38    36    2
    38    39    38    1
    39    40    38    1
    40    41    40    1
    41    42    40    2
    42    43    42    1
    43    44    35    1
    44    45     6    1
    45    46     7    2
    46    47    46    1
    47    48    47   ar
    48    49    48    1
    49    50    48   ar
    50    51    50    1
    51    52    50   ar
    52    53    52    1
    53    54    52   ar
    54    55    54    1
    55    56    47   ar
    56    57     8    2
    57    58     1    1
    58    59    58   ar
    59    60    59    1
    60    61    59   ar
    61    62    61    1
    62    63    61   ar
    63    64    63   ar
    64    65    64    1
    65    66    58   ar
    66    67    66    1
    67    68    63    1
    68    69    68    1
    69    70    68    1
    70    71    68    1
    71    72     1    1
    72    73    72   ar
    73    74    73    1
    74    75    73   ar
    75    76    75    1
    76    77    75   ar
    77    78    77   ar
    78    79    78    1
    79    80    72   ar
    80    81    80    1
    81    82    77    1
    82    83    82    1
    83    84    82    1
    84    85    82    1
    85     4    22    2
    86     6    34    1
    87     8    46    1
    88     9    57    1
    89    18    20   ar
    90    20    21    1
    91    30    32   ar
    92    32    33    1
    93    42    44    1
    94    44    45    2
    95    54    56   ar
    96    56    57    1
    97    64    66   ar
    98    78    80   ar
@<TRIPOS>SUBSTRUCTURE
     1 RES1        1 GROUP             0 ****  ****    0  
@<TRIPOS>CRYSIN
   10.1100   17.9980   21.2220   90.0000   90.0000   90.0000    19     1
