@<TRIPOS>MOLECULE
JAQWAZ
    79    85     4     0     0
SMALL
USER_CHARGES
****
Generated from the CSD

@<TRIPOS>ATOM
     1 Fe1     10.3270   6.3864   4.0200   Fe        1 RES1   2.0000
     2 N1      11.5187   7.7597   3.2498   N.ar      1 RES1   0.0000
     3 N2      11.6798   6.3992   5.3514   N.ar      1 RES1   0.0000
     4 N3      10.0585   3.7294   7.0559   N.2       1 RES1   0.0000
     5 N4       8.9184   3.3146   6.4433   N.pl3     1 RES1   0.0000
     6 N5       9.6144   4.9679   5.2324   N.2       1 RES1   0.0000
     7 C1      11.3205   8.4172   2.0824   C.ar      1 RES1   0.0000
     8 C2      12.2272   9.3490   1.6193   C.ar      1 RES1   0.0000
     9 C3      13.3466   9.6197   2.3380   C.ar      1 RES1   0.0000
    10 C4      13.5511   8.9621   3.5553   C.ar      1 RES1   0.0000
    11 C5      12.6113   8.0443   3.9830   C.ar      1 RES1   0.0000
    12 C6      12.7146   7.2613   5.2115   C.ar      1 RES1   0.0000
    13 C7      13.7081   7.3159   6.1602   C.ar      1 RES1   0.0000
    14 C8      13.6502   6.4735   7.2569   C.ar      1 RES1   0.0000
    15 C9      12.5969   5.5778   7.3791   C.ar      1 RES1   0.0000
    16 C10     11.6261   5.5557   6.4063   C.ar      1 RES1   0.0000
    17 C11     10.4385   4.7227   6.2969   C.2       1 RES1   0.0000
    18 C12      8.6272   4.0663   5.3546   C.2       1 RES1   0.0000
    19 C13      8.1810   2.1447   6.9353   C.3       1 RES1   0.0000
    20 C14      7.4623   3.8932   4.4718   C.3       1 RES1   0.0000
    21 H1      10.4984   8.2232   1.5437   H         1 RES1   0.0000
    22 H2      12.0619   9.8230   0.7542   H         1 RES1   0.0000
    23 H3      14.0158  10.2831   2.0004   H         1 RES1   0.0000
    24 H4      14.3628   9.1550   4.1052   H         1 RES1   0.0000
    25 H5      14.4661   7.9607   6.0638   H         1 RES1   0.0000
    26 H6      14.3649   6.5072   7.9564   H         1 RES1   0.0000
    27 H7      12.5432   4.9586   8.1638   H         1 RES1   0.0000
    28 H8       8.7449   1.6498   7.5978   H         1 RES1   0.0000
    29 H9       7.3363   2.4479   7.3791   H         1 RES1   0.0000
    30 H10      7.9580   1.5440   6.1699   H         1 RES1   0.0000
    31 H11      7.0513   4.7843   4.2821   H         1 RES1   0.0000
    32 H12      7.7535   3.4703   3.6132   H         1 RES1   0.0000
    33 H13      6.7890   3.3053   4.9221   H         1 RES1   0.0000
    34 N1C      9.1353   7.7597   4.7902   N.ar      1 RES1   0.0000
    35 C1C      9.3335   8.4172   5.9576   C.ar      1 RES1   0.0000
    36 C2C      8.4268   9.3490   6.4207   C.ar      1 RES1   0.0000
    37 C3C      7.3074   9.6197   5.7020   C.ar      1 RES1   0.0000
    38 C4C      7.1029   8.9621   4.4847   C.ar      1 RES1   0.0000
    39 C5C      8.0427   8.0443   4.0570   C.ar      1 RES1   0.0000
    40 C6C      7.9394   7.2613   2.8285   C.ar      1 RES1   0.0000
    41 N2C      8.9742   6.3992   2.6886   N.ar      1 RES1   0.0000
    42 N5C     11.0396   4.9679   2.8076   N.2       1 RES1   0.0000
    43 C11C    10.2155   4.7227   1.7431   C.2       1 RES1   0.0000
    44 N3C     10.5955   3.7294   0.9841   N.2       1 RES1   0.0000
    45 N4C     11.7356   3.3146   1.5967   N.pl3     1 RES1   0.0000
    46 C12C    12.0268   4.0663   2.6854   C.2       1 RES1   0.0000
    47 C14C    13.1917   3.8932   3.5682   C.3       1 RES1   0.0000
    48 H11C    13.6027   4.7843   3.7579   H         1 RES1   0.0000
    49 H12C    12.9005   3.4703   4.4268   H         1 RES1   0.0000
    50 H13C    13.8650   3.3053   3.1179   H         1 RES1   0.0000
    51 C13C    12.4730   2.1447   1.1047   C.3       1 RES1   0.0000
    52 H8C     11.9091   1.6498   0.4422   H         1 RES1   0.0000
    53 H9C     13.3177   2.4479   0.6609   H         1 RES1   0.0000
    54 H10C    12.6960   1.5440   1.8701   H         1 RES1   0.0000
    55 C10C     9.0279   5.5557   1.6337   C.ar      1 RES1   0.0000
    56 C9C      8.0571   5.5778   0.6609   C.ar      1 RES1   0.0000
    57 C8C      7.0038   6.4735   0.7831   C.ar      1 RES1   0.0000
    58 C7C      6.9459   7.3159   1.8798   C.ar      1 RES1   0.0000
    59 H5C      6.1879   7.9607   1.9762   H         1 RES1   0.0000
    60 H6C      6.2891   6.5072   0.0836   H         1 RES1   0.0000
    61 H7C      8.1108   4.9586  -0.1238   H         1 RES1   0.0000
    62 H4C      6.2912   9.1550   3.9348   H         1 RES1   0.0000
    63 H3C      6.6382  10.2831   6.0396   H         1 RES1   0.0000
    64 H2C      8.5921   9.8230   7.2858   H         1 RES1   0.0000
    65 H1C     10.1556   8.2232   6.4963   H         1 RES1   0.0000
    66 C15      8.7263  11.9944   2.4265   C.3       2 RES2   0.0000
    67 F1       9.2571  13.0807   2.9346   F         2 RES2   0.0000
    68 F2       9.0981  10.9941   3.1404   F         2 RES2   0.0000
    69 F3       9.3996  11.8608   1.2735   F         2 RES2   0.0000
    70 S1       6.9542  12.1350   2.1788   S.o2      2 RES2   0.0000
    71 O1       6.6196  10.8489   1.6916   O.3       2 RES2  -1.0000
    72 O2       6.8385  13.2352   1.3330   O.2       2 RES2   0.0000
    73 O3       6.4792  12.3418   3.4958   O.2       2 RES2   0.0000
    74 O4       4.9549   9.3920  -0.1126   O.3       3 RES3   0.0000
    75 H14      5.4547   9.7603   0.5708   H         3 RES3   0.0000
    76 H15      4.3601   8.7309   0.4567   H         3 RES3   0.0000
    77 O5       4.7380  12.0258   5.7968   O.3       4 RES4   0.0000
    78 H16      5.1222  12.8007   6.4416   H         4 RES4   0.0000
    79 H17      5.3494  12.1373   4.9864   H         4 RES4   0.0000
@<TRIPOS>BOND
     1     1     2    1
     2     2     7   ar
     3     3     1    1
     4     4     5    1
     5     5    18    1
     6     6     1    1
     7     7     8   ar
     8     8     9   ar
     9     9    10   ar
    10    10    11   ar
    11    11     2   ar
    12    12     3   ar
    13    13    12   ar
    14    14    13   ar
    15    15    14   ar
    16    16     3   ar
    17    17     4    2
    18    18     6    2
    19    19     5    1
    20    20    18    1
    21    21     7    1
    22    22     8    1
    23    23     9    1
    24    24    10    1
    25    25    13    1
    26    26    14    1
    27    27    15    1
    28    28    19    1
    29    29    19    1
    30    30    19    1
    31    31    20    1
    32    32    20    1
    33    33    20    1
    34    34     1    1
    35    35    34   ar
    36    36    35   ar
    37    37    36   ar
    38    38    37   ar
    39    39    34   ar
    40    40    39    1
    41    41     1    1
    42    42     1    1
    43    43    42    1
    44    44    43    2
    45    45    44    1
    46    46    42    2
    47    47    46    1
    48    48    47    1
    49    49    47    1
    50    50    47    1
    51    51    45    1
    52    52    51    1
    53    53    51    1
    54    54    51    1
    55    55    41   ar
    56    56    55   ar
    57    57    56   ar
    58    58    40   ar
    59    59    58    1
    60    60    57    1
    61    61    56    1
    62    62    38    1
    63    63    37    1
    64    64    36    1
    65    65    35    1
    66     6    17    1
    67    11    12    1
    68    15    16   ar
    69    16    17    1
    70    38    39   ar
    71    40    41   ar
    72    43    55    1
    73    45    46    1
    74    57    58   ar
    75    66    67    1
    76    68    66    1
    77    69    66    1
    78    70    66    1
    79    71    70    1
    80    72    70    2
    81    73    70    2
    82    74    75    1
    83    76    74    1
    84    77    78    1
    85    79    77    1
@<TRIPOS>SUBSTRUCTURE
     1 RES1        1 GROUP             0 ****  ****    0  
     2 RES2       66 GROUP             0 ****  ****    0  
     3 RES3       74 GROUP             0 ****  ****    0  
     4 RES4       77 GROUP             0 ****  ****    0  
@<TRIPOS>CRYSIN
   20.6540   11.6180   16.0800   90.0000   90.0000   90.0000    60     1
