@<TRIPOS>MOLECULE
JASBEL
    74    77     1     0     0
SMALL
NO_CHARGES
****
Generated from the CSD

@<TRIPOS>ATOM
     1 Fe1     -0.1933   0.2268  16.0308   Fe        1 RES1   0.0000
     2 P1       1.9762  -0.0636  15.7298   P.3       1 RES1   0.0000
     3 P2      -2.1942   0.7945  15.2689   P.3       1 RES1   0.0000
     4 P3      -0.7121  -1.7718  16.7162   P.3       1 RES1   0.0000
     5 P4      -0.2814   1.2187  18.0444   P.3       1 RES1   0.0000
     6 O1       0.1568   2.0459  15.1685   O.3       1 RES1   0.0000
     7 C1       2.3381   1.2970  14.5801   C.ar      1 RES1   0.0000
     8 C2       3.5034   1.4749  13.8352   C.ar      1 RES1   0.0000
     9 H1       4.1757   0.8337  13.8777   H         1 RES1   0.0000
    10 C3       3.6731   2.5810  13.0393   C.ar      1 RES1   0.0000
    11 H2       4.4528   2.6871  12.5444   H         1 RES1   0.0000
    12 C4       2.6764   3.5387  12.9814   C.ar      1 RES1   0.0000
    13 H3       2.8064   4.2990  12.4644   H         1 RES1   0.0000
    14 C5       1.4875   3.3886  13.6770   C.ar      1 RES1   0.0000
    15 H4       0.8227   4.0347  13.6073   H         1 RES1   0.0000
    16 C6       1.2802   2.2319  14.5087   C.ar      1 RES1   0.0000
    17 C7       2.6700  -1.5091  14.8046   C.ar      1 RES1   0.0000
    18 C8       1.9106  -2.1422  13.8505   C.ar      1 RES1   0.0000
    19 H5       1.0246  -1.8844  13.7315   H         1 RES1   0.0000
    20 C9       2.4315  -3.1537  13.0631   C.ar      1 RES1   0.0000
    21 H6       1.8935  -3.5762  12.4338   H         1 RES1   0.0000
    22 C10      3.7418  -3.5338  13.2093   C.ar      1 RES1   0.0000
    23 H7       4.0962  -4.2093  12.6770   H         1 RES1   0.0000
    24 C11      4.5011  -2.9302  14.1209   C.ar      1 RES1   0.0000
    25 H8       5.3872  -3.1928  14.2247   H         1 RES1   0.0000
    26 C12      4.0039  -1.9350  14.9049   C.ar      1 RES1   0.0000
    27 H9       4.5634  -1.5255  15.5257   H         1 RES1   0.0000
    28 C13      3.2521   0.1713  17.0478   C.ar      1 RES1   0.0000
    29 C14      3.5775  -0.8402  17.9475   C.ar      1 RES1   0.0000
    30 H10      3.2360  -1.6968  17.8318   H         1 RES1   0.0000
    31 C15      4.4184  -0.5563  19.0206   C.ar      1 RES1   0.0000
    32 H11      4.6203  -1.2302  19.6295   H         1 RES1   0.0000
    33 C16      4.9608   0.6999  19.2383   C.ar      1 RES1   0.0000
    34 H12      5.5429   0.8647  19.9067   H         1 RES1   0.0000
    35 C17      4.6397   1.6804  18.3455   C.ar      1 RES1   0.0000
    36 H13      4.9855   2.5011  18.4730   H         1 RES1   0.0000
    37 C18      3.7912   1.4341  17.2655   C.ar      1 RES1   0.0000
    38 H14      3.5829   2.1258  16.6805   H         1 RES1   0.0000
    39 C19     -2.7688   2.4913  15.5461   C.3       1 RES1   0.0000
    40 H15     -2.7613   2.6822  16.4866   H         1 RES1   0.0000
    41 H16     -3.6623   2.5859  15.2077   H         1 RES1   0.0000
    42 H17     -2.1877   3.1047  15.0903   H         1 RES1   0.0000
    43 C20     -3.7558  -0.0848  15.6311   C.3       1 RES1   0.0000
    44 H18     -3.6215  -1.0295  15.5257   H         1 RES1   0.0000
    45 H19     -4.4378   0.2105  15.0240   H         1 RES1   0.0000
    46 H20     -4.0264   0.1012  16.5325   H         1 RES1   0.0000
    47 C21     -2.3091   0.6999  13.4559   C.3       1 RES1   0.0000
    48 H21     -2.0277  -0.1697  13.1617   H         1 RES1   0.0000
    49 H22     -1.7442   1.3688  13.0631   H         1 RES1   0.0000
    50 H23     -3.2177   0.8500  13.1838   H         1 RES1   0.0000
    51 C22     -1.9579  -2.0459  18.0291   C.3       1 RES1   0.0000
    52 H24     -2.7398  -1.5222  17.8403   H         1 RES1   0.0000
    53 H25     -1.5927  -1.7816  18.8761   H         1 RES1   0.0000
    54 H26     -2.1931  -2.9759  18.0563   H         1 RES1   0.0000
    55 C23      0.5961  -2.8780  17.3744   C.3       1 RES1   0.0000
    56 H27      1.3565  -2.8584  16.7893   H         1 RES1   0.0000
    57 H28      0.2588  -3.7753  17.4305   H         1 RES1   0.0000
    58 H29      0.8581  -2.5794  18.2485   H         1 RES1   0.0000
    59 C24     -1.4188  -2.9073  15.4560   C.3       1 RES1   0.0000
    60 H30     -0.8732  -2.8894  14.6668   H         1 RES1   0.0000
    61 H31     -2.3102  -2.6251  15.2366   H         1 RES1   0.0000
    62 H32     -1.4435  -3.7998  15.8080   H         1 RES1   0.0000
    63 C25     -1.9053   1.4471  18.8982   C.3       1 RES1   0.0000
    64 H33     -2.5400   1.8224  18.2825   H         1 RES1   0.0000
    65 H34     -1.7947   2.0410  19.6431   H         1 RES1   0.0000
    66 H35     -2.2253   0.5988  19.2094   H         1 RES1   0.0000
    67 C26      0.3491   2.9334  18.0801   C.3       1 RES1   0.0000
    68 H36     -0.0580   3.4392  17.3727   H         1 RES1   0.0000
    69 H37      1.3017   2.9269  17.9611   H         1 RES1   0.0000
    70 H38      0.1353   3.3364  18.9254   H         1 RES1   0.0000
    71 C27      0.6369   0.5172  19.4526   C.3       1 RES1   0.0000
    72 H39      0.4017  -0.4079  19.5598   H         1 RES1   0.0000
    73 H40      0.4135   0.9985  20.2519   H         1 RES1   0.0000
    74 H41      1.5799   0.5906  19.2876   H         1 RES1   0.0000
@<TRIPOS>BOND
     1     1     2    1
     2     2     7    1
     3     3     1    1
     4     4     1    1
     5     5     1    1
     6     6     1    1
     7     7     8   ar
     8     8     9    1
     9    10     8   ar
    10    11    10    1
    11    12    10   ar
    12    13    12    1
    13    14    12   ar
    14    15    14    1
    15    16     6    1
    16    17     2    1
    17    18    17   ar
    18    19    18    1
    19    20    18   ar
    20    21    20    1
    21    22    20   ar
    22    23    22    1
    23    24    22   ar
    24    25    24    1
    25    26    17   ar
    26    27    26    1
    27    28     2    1
    28    29    28   ar
    29    30    29    1
    30    31    29   ar
    31    32    31    1
    32    33    31   ar
    33    34    33    1
    34    35    33   ar
    35    36    35    1
    36    37    28   ar
    37    38    37    1
    38    39     3    1
    39    40    39    1
    40    41    39    1
    41    42    39    1
    42    43     3    1
    43    44    43    1
    44    45    43    1
    45    46    43    1
    46    47     3    1
    47    48    47    1
    48    49    47    1
    49    50    47    1
    50    51     4    1
    51    52    51    1
    52    53    51    1
    53    54    51    1
    54    55     4    1
    55    56    55    1
    56    57    55    1
    57    58    55    1
    58    59     4    1
    59    60    59    1
    60    61    59    1
    61    62    59    1
    62    63     5    1
    63    64    63    1
    64    65    63    1
    65    66    63    1
    66    67     5    1
    67    68    67    1
    68    69    67    1
    69    70    67    1
    70    71     5    1
    71    72    71    1
    72    73    71    1
    73    74    71    1
    74     7    16   ar
    75    14    16   ar
    76    24    26   ar
    77    35    37   ar
@<TRIPOS>SUBSTRUCTURE
     1 RES1        1 GROUP             0 ****  ****    0  
@<TRIPOS>CRYSIN
   10.7400   16.3150   17.0070   90.0000   90.0000   90.0000    19     1
