@<TRIPOS>MOLECULE
JASBIP
    98   101     1     0     0
SMALL
NO_CHARGES
****
Generated from the CSD

@<TRIPOS>ATOM
     1 Fe1      1.5827   2.9871   5.1990   Fe        1 RES1   0.0000
     2 P1       2.6981   0.9014   4.8050   P.3       1 RES1   0.0000
     3 P2       0.4797   3.4965   3.3018   P.3       1 RES1   0.0000
     4 P3      -0.1745   2.5637   6.4273   P.3       1 RES1   0.0000
     5 P4       1.9153   5.0351   6.0062   P.3       1 RES1   0.0000
     6 O1       3.4134   3.4503   4.3203   O.3       1 RES1   0.0000
     7 C1       4.3338   2.4714   4.0804   C.ar      1 RES1   0.0000
     8 C2       5.6204   2.7313   3.6212   C.ar      1 RES1   0.0000
     9 C3       6.4945   1.6832   3.3781   C.ar      1 RES1   0.0000
    10 H1       7.3564   1.8530   3.0714   H         1 RES1   0.0000
    11 C4       6.0834   0.3689   3.5926   C.ar      1 RES1   0.0000
    12 C5       4.7970   0.1111   4.0502   C.ar      1 RES1   0.0000
    13 H2       4.5219  -0.7672   4.1948   H         1 RES1   0.0000
    14 C6       3.9215   1.1613   4.2949   C.ar      1 RES1   0.0000
    15 C7       6.1299   4.1693   3.3479   C.3       1 RES1   0.0000
    16 C8       6.0776   5.0036   4.6826   C.3       1 RES1   0.0000
    17 H3       5.1841   4.9911   5.0338   H         1 RES1   0.0000
    18 H4       6.3384   5.9113   4.5046   H         1 RES1   0.0000
    19 H5       6.6786   4.6200   5.3245   H         1 RES1   0.0000
    20 C9       7.5720   4.2616   2.8251   C.3       1 RES1   0.0000
    21 H6       7.8043   5.1839   2.6869   H         1 RES1   0.0000
    22 H7       7.6419   3.7857   1.9941   H         1 RES1   0.0000
    23 H8       8.1707   3.8738   3.4671   H         1 RES1   0.0000
    24 C10      5.1341   4.8695   2.8251   C.3       1 RES1   0.0000
    25 H9       4.3020   4.8548   2.5757   H         1 RES1   0.0000
    26 H10      5.2823   4.3999   1.4412   H         1 RES1   0.0000
    27 H11      5.4990   5.7771   2.1562   H         1 RES1   0.0000
    28 C11      7.0656  -0.8217   3.2907   C.3       1 RES1   0.0000
    29 C12      8.3309  -0.6163   4.1011   C.3       1 RES1   0.0000
    30 H12      8.6954   0.2515   3.9104   H         1 RES1   0.0000
    31 H13      8.9724  -1.2913   3.8675   H         1 RES1   0.0000
    32 H14      8.1261  -0.6792   5.0354   H         1 RES1   0.0000
    33 C13      7.4330  -0.7966   1.8575   C.3       1 RES1   0.0000
    34 H15      7.7859   0.0671   1.6318   H         1 RES1   0.0000
    35 H16      6.6530  -0.9747   1.3252   H         1 RES1   0.0000
    36 H17      8.0957  -1.4694   1.6843   H         1 RES1   0.0000
    37 C14      6.5545  -2.1318   3.5989   C.3       1 RES1   0.0000
    38 H18      6.3229  -2.1759   4.5285   H         1 RES1   0.0000
    39 H19      7.2259  -2.7900   3.4067   H         1 RES1   0.0000
    40 H20      5.7747  -2.3058   3.0651   H         1 RES1   0.0000
    41 C15      1.5387  -0.1509   3.3924   C.ar      1 RES1   0.0000
    42 C16      2.1695  -0.0503   2.1578   C.ar      1 RES1   0.0000
    43 H21      2.9600   0.4339   2.0767   H         1 RES1   0.0000
    44 C17      1.6206  -0.6750   1.0439   C.ar      1 RES1   0.0000
    45 H22      2.0431  -0.6079   0.2177   H         1 RES1   0.0000
    46 C18      0.4409  -1.4003   1.1647   C.ar      1 RES1   0.0000
    47 H23      0.0729  -1.8174   0.4195   H         1 RES1   0.0000
    48 C19     -0.1899  -1.5009   2.3993   C.ar      1 RES1   0.0000
    49 H24     -0.9805  -1.9851   2.4803   H         1 RES1   0.0000
    50 C20      0.3590  -0.8762   3.5131   C.ar      1 RES1   0.0000
    51 H25     -0.0636  -0.9433   4.3394   H         1 RES1   0.0000
    52 C21      2.4199  -0.3794   6.1762   C.ar      1 RES1   0.0000
    53 C22      2.8929   0.0797   7.3997   C.ar      1 RES1   0.0000
    54 H26      3.0266   0.9915   7.5348   H         1 RES1   0.0000
    55 C23      3.1666  -0.8217   8.4214   C.ar      1 RES1   0.0000
    56 H27      3.4832  -0.5136   9.2397   H         1 RES1   0.0000
    57 C24      2.9661  -2.1821   8.2196   C.ar      1 RES1   0.0000
    58 H28      3.1500  -2.7838   8.9044   H         1 RES1   0.0000
    59 C25      2.4931  -2.6412   6.9961   C.ar      1 RES1   0.0000
    60 H29      2.3594  -3.5510   6.8610   H         1 RES1   0.0000
    61 C26      2.2194  -1.7398   5.9744   C.ar      1 RES1   0.0000
    62 H30      1.9029  -2.0480   5.1561   H         1 RES1   0.0000
    63 C27     -0.4482   5.1063   3.1588   C.3       1 RES1   0.0000
    64 H31     -1.0675   5.1860   3.8881   H         1 RES1   0.0000
    65 H32     -0.9294   5.1273   2.3278   H         1 RES1   0.0000
    66 H33      0.1732   5.8379   3.1858   H         1 RES1   0.0000
    67 C28     -0.8243   2.3834   2.6742   C.3       1 RES1   0.0000
    68 H34     -1.4528   2.1989   3.3765   H         1 RES1   0.0000
    69 H35     -0.4272   1.5617   2.3755   H         1 RES1   0.0000
    70 H36     -1.2777   2.8026   1.9401   H         1 RES1   0.0000
    71 C29      1.5231   3.6579   1.8177   C.3       1 RES1   0.0000
    72 H37      2.2653   4.2364   2.0100   H         1 RES1   0.0000
    73 H38      1.0048   4.0331   1.1011   H         1 RES1   0.0000
    74 H39      1.8473   2.7942   1.5588   H         1 RES1   0.0000
    75 C30      3.2458   5.0770   7.2805   C.3       1 RES1   0.0000
    76 H40      3.9888   4.5467   6.9834   H         1 RES1   0.0000
    77 H41      2.9095   4.7206   8.1068   H         1 RES1   0.0000
    78 H42      3.5337   5.9826   7.4172   H         1 RES1   0.0000
    79 C31      2.5116   6.3200   4.7938   C.3       1 RES1   0.0000
    80 H43      3.2020   5.9448   4.2425   H         1 RES1   0.0000
    81 H44      2.8611   7.0768   5.2721   H         1 RES1   0.0000
    82 H45      1.7802   6.6030   4.2409   H         1 RES1   0.0000
    83 C32      0.0919   2.5825   8.2450   C.3       1 RES1   0.0000
    84 H46      0.8911   2.0962   8.4579   H         1 RES1   0.0000
    85 H47     -0.6586   2.1738   8.6836   H         1 RES1   0.0000
    86 H48      0.1823   3.4902   8.5453   H         1 RES1   0.0000
    87 C33     -1.7421   3.5761   6.2922   C.3       1 RES1   0.0000
    88 H49     -1.9966   3.6495   5.3690   H         1 RES1   0.0000
    89 H50     -1.5887   4.4523   6.6529   H         1 RES1   0.0000
    90 H51     -2.4454   3.1443   6.7848   H         1 RES1   0.0000
    91 C34     -1.0047   0.9077   6.3129   C.3       1 RES1   0.0000
    92 H52     -1.2319   0.7253   5.3992   H         1 RES1   0.0000
    93 H53     -1.8037   0.9118   6.8452   H         1 RES1   0.0000
    94 H54     -0.4100   0.2285   6.6370   H         1 RES1   0.0000
    95 C35      0.6448   6.0957   6.8388   C.3       1 RES1   0.0000
    96 H55     -0.1296   6.1670   6.2763   H         1 RES1   0.0000
    97 H56      1.0102   6.9699   6.9945   H         1 RES1   0.0000
    98 H57      0.3967   5.6975   7.6762   H         1 RES1   0.0000
@<TRIPOS>BOND
     1     1     2    1
     2     2    14    1
     3     3     1    1
     4     4     1    1
     5     5     1    1
     6     6     1    1
     7     7     6    1
     8     8     7   ar
     9     9     8   ar
    10    10     9    1
    11    11     9   ar
    12    12    11   ar
    13    13    12    1
    14    14     7   ar
    15    15     8    1
    16    16    15    1
    17    17    16    1
    18    18    16    1
    19    19    16    1
    20    20    15    1
    21    21    20    1
    22    22    20    1
    23    23    20    1
    24    24    15    1
    25    25    24    1
    26    26    24    1
    27    27    24    1
    28    28    11    1
    29    29    28    1
    30    30    29    1
    31    31    29    1
    32    32    29    1
    33    33    28    1
    34    34    33    1
    35    35    33    1
    36    36    33    1
    37    37    28    1
    38    38    37    1
    39    39    37    1
    40    40    37    1
    41    41     2    1
    42    42    41   ar
    43    43    42    1
    44    44    42   ar
    45    45    44    1
    46    46    44   ar
    47    47    46    1
    48    48    46   ar
    49    49    48    1
    50    50    41   ar
    51    51    50    1
    52    52     2    1
    53    53    52   ar
    54    54    53    1
    55    55    53   ar
    56    56    55    1
    57    57    55   ar
    58    58    57    1
    59    59    57   ar
    60    60    59    1
    61    61    52   ar
    62    62    61    1
    63    63     3    1
    64    64    63    1
    65    65    63    1
    66    66    63    1
    67    67     3    1
    68    68    67    1
    69    69    67    1
    70    70    67    1
    71    71     3    1
    72    72    71    1
    73    73    71    1
    74    74    71    1
    75    75     5    1
    76    76    75    1
    77    77    75    1
    78    78    75    1
    79    79     5    1
    80    80    79    1
    81    81    79    1
    82    82    79    1
    83    83     4    1
    84    84    83    1
    85    85    83    1
    86    86    83    1
    87    87     4    1
    88    88    87    1
    89    89    87    1
    90    90    87    1
    91    91     4    1
    92    92    91    1
    93    93    91    1
    94    94    91    1
    95    95     5    1
    96    96    95    1
    97    97    95    1
    98    98    95    1
    99    12    14   ar
   100    48    50   ar
   101    59    61   ar
@<TRIPOS>SUBSTRUCTURE
     1 RES1        1 GROUP             0 ****  ****    0  
@<TRIPOS>CRYSIN
   11.9800   20.9620   16.0580   90.0000   98.3100   90.0000    14     1
