@<TRIPOS>MOLECULE
JAVVEK01
   123   131     6     0     0
SMALL
USER_CHARGES
****
Generated from the CSD

@<TRIPOS>ATOM
     1 Fe1      7.5872  16.5284  14.8089   Fe        1 RES1   2.0000
     2 O1       9.7726  16.8832  18.1949   O.3       1 RES1   0.0000
     3 O2       3.5475  16.3192  14.8843   O.3       1 RES1   0.0000
     4 O3       8.2528  19.9405  12.7553   O.3       1 RES1   0.0000
     5 O4       8.6735  12.9048  13.3655   O.3       1 RES1   0.0000
     6 N1       9.1317  16.6455  16.0420   N.2       1 RES1   0.0000
     7 N2       6.6903  16.5888  16.4853   N.ar      1 RES1   0.0000
     8 N3       5.6982  16.4437  14.2097   N.2       1 RES1   0.0000
     9 N4       7.6987  18.4553  14.3498   N.2       1 RES1   0.0000
    10 N5       8.4458  16.4316  13.1119   N.ar      1 RES1   0.0000
    11 N6       7.8277  14.5757  14.6316   N.2       1 RES1   0.0000
    12 C1      11.2742  15.8223  15.0483   C.ar      1 RES1   0.0000
    13 C2      11.1605  14.4613  15.2780   C.ar      1 RES1   0.0000
    14 H1      10.6647  14.1465  16.0236   H         1 RES1   0.0000
    15 C3      11.7659  13.5576  14.4266   C.ar      1 RES1   0.0000
    16 H2      11.6688  12.6238  14.5730   H         1 RES1   0.0000
    17 C4      12.5220  14.0257  13.3522   C.ar      1 RES1   0.0000
    18 H3      12.9497  13.4067  12.7711   H         1 RES1   0.0000
    19 C5      12.6501  15.3694  13.1247   C.ar      1 RES1   0.0000
    20 H4      13.1646  15.6821  12.3905   H         1 RES1   0.0000
    21 C6      12.0324  16.2644  13.9687   C.ar      1 RES1   0.0000
    22 H5      12.1254  17.1983  13.8117   H         1 RES1   0.0000
    23 C7      10.6089  16.8274  15.9542   C.3       1 RES1   0.0000
    24 H6      10.8010  17.7483  15.6136   H         1 RES1   0.0000
    25 C8      11.0304  16.7476  17.4406   C.3       1 RES1   0.0000
    26 H7      11.4642  15.8784  17.6363   H         1 RES1   0.0000
    27 H8      11.6584  17.4766  17.6678   H         1 RES1   0.0000
    28 C9       8.8175  16.7204  17.2878   C.2       1 RES1   0.0000
    29 C10      7.3944  16.6697  17.6347   C.ar      1 RES1   0.0000
    30 C11      6.7785  16.7152  18.8654   C.ar      1 RES1   0.0000
    31 H9       7.2909  16.7756  19.6635   H         1 RES1   0.0000
    32 C12      5.3902  16.6742  18.9121   C.ar      1 RES1   0.0000
    33 H10      4.9398  16.7109  19.7490   H         1 RES1   0.0000
    34 C13      4.6547  16.5750  17.7316   C.ar      1 RES1   0.0000
    35 H11      3.7064  16.5362  17.7534   H         1 RES1   0.0000
    36 C14      5.3338  16.5375  16.5351   C.ar      1 RES1   0.0000
    37 C15      4.8396  16.4456  15.1656   C.2       1 RES1   0.0000
    38 C16      3.4895  16.1350  13.4250   C.3       1 RES1   0.0000
    39 H12      2.8903  16.8058  13.0121   H         1 RES1   0.0000
    40 H13      3.1630  15.2292  13.1991   H         1 RES1   0.0000
    41 C17      4.9522  16.3313  12.9331   C.3       1 RES1   0.0000
    42 H14      5.2497  15.5117  12.4445   H         1 RES1   0.0000
    43 C18      5.1753  17.5477  12.0630   C.ar      1 RES1   0.0000
    44 C19      5.8158  17.4054  10.8424   C.ar      1 RES1   0.0000
    45 H15      6.0823  16.5427  10.5480   H         1 RES1   0.0000
    46 C20      6.0720  18.5161  10.0480   C.ar      1 RES1   0.0000
    47 H16      6.5244  18.4126   9.2191   H         1 RES1   0.0000
    48 C21      5.6712  19.7628  10.4601   C.ar      1 RES1   0.0000
    49 H17      5.8426  20.5241   9.9173   H         1 RES1   0.0000
    50 C22      5.0121  19.9030  11.6787   C.ar      1 RES1   0.0000
    51 H18      4.7311  20.7614  11.9670   H         1 RES1   0.0000
    52 C23      4.7683  18.8051  12.4603   C.ar      1 RES1   0.0000
    53 H19      4.3138  18.9108  13.2869   H         1 RES1   0.0000
    54 C24      7.8839  19.9789  16.2993   C.ar      1 RES1   0.0000
    55 C25      9.2660  20.1229  16.4448   C.ar      1 RES1   0.0000
    56 H20      9.8197  20.1273  15.6745   H         1 RES1   0.0000
    57 C26      9.8321  20.2610  17.6881   C.ar      1 RES1   0.0000
    58 H21     10.7721  20.3623  17.7737   H         1 RES1   0.0000
    59 C27      9.0326  20.2545  18.8075   C.ar      1 RES1   0.0000
    60 H22      9.4251  20.3408  19.6680   H         1 RES1   0.0000
    61 C28      7.6628  20.1208  18.6882   C.ar      1 RES1   0.0000
    62 H23      7.1153  20.1251  19.4630   H         1 RES1   0.0000
    63 C29      7.0926  19.9784  17.4291   C.ar      1 RES1   0.0000
    64 H24      6.1505  19.8792  17.3457   H         1 RES1   0.0000
    65 C30      7.2682  19.7561  14.9395   C.3       1 RES1   0.0000
    66 H25      6.2703  19.7735  15.0190   H         1 RES1   0.0000
    67 C31      7.7186  20.7657  13.8455   C.3       1 RES1   0.0000
    68 H26      6.9521  21.3070  13.5302   H         1 RES1   0.0000
    69 H27      8.4169  21.3739  14.1969   H         1 RES1   0.0000
    70 C32      8.2146  18.6872  13.1934   C.2       1 RES1   0.0000
    71 C33      8.6915  17.5633  12.4148   C.ar      1 RES1   0.0000
    72 C34      9.2722  17.5326  11.1575   C.ar      1 RES1   0.0000
    73 H28      9.4375  18.3350  10.6764   H         1 RES1   0.0000
    74 C35      9.6048  16.3011  10.6183   C.ar      1 RES1   0.0000
    75 H29     10.0036  16.2558   9.7574   H         1 RES1   0.0000
    76 C36      9.3610  15.1278  11.3287   C.ar      1 RES1   0.0000
    77 H30      9.5904  14.2802  10.9669   H         1 RES1   0.0000
    78 C37      8.7743  15.2339  12.5821   C.ar      1 RES1   0.0000
    79 C38      8.4004  14.2066  13.5462   C.2       1 RES1   0.0000
    80 C39      8.2144  12.2528  14.5910   C.3       1 RES1   0.0000
    81 H31      8.9685  11.7977  15.0438   H         1 RES1   0.0000
    82 H32      7.5182  11.5799  14.3838   H         1 RES1   0.0000
    83 C40      7.6380  13.3678  15.4875   C.3       1 RES1   0.0000
    84 H33      8.1958  13.4520  16.3119   H         1 RES1   0.0000
    85 C41      6.1918  13.1975  15.8727   C.ar      1 RES1   0.0000
    86 C42      5.1981  13.1047  14.9109   C.ar      1 RES1   0.0000
    87 H34      5.4253  13.1608  13.9897   H         1 RES1   0.0000
    88 C43      3.8841  12.9343  15.2803   C.ar      1 RES1   0.0000
    89 H35      3.2085  12.8739  14.6158   H         1 RES1   0.0000
    90 C44      3.5411  12.8524  16.6137   C.ar      1 RES1   0.0000
    91 H36      2.6342  12.7251  16.8660   H         1 RES1   0.0000
    92 C45      4.5039  12.9516  17.5710   C.ar      1 RES1   0.0000
    93 H37      4.2642  12.9020  18.4877   H         1 RES1   0.0000
    94 C46      5.8426  13.1241  17.2173   C.ar      1 RES1   0.0000
    95 H38      6.5100  13.1931  17.8886   H         1 RES1   0.0000
    96 Cl1      9.8321  13.0607  19.0769   Cl        2 RES2   0.0000
    97 O5       8.8363  14.0313  18.8413   O.2       2 RES2   0.0000
    98 O6      11.0015  13.7755  19.5148   O.3       2 RES2  -1.0000
    99 O7       9.4044  12.2075  20.0986   O.2       2 RES2   0.0000
   100 O8      10.0718  12.3283  17.8838   O.2       2 RES2   0.0000
   101 Cl2      5.0764  13.2512  10.5809   Cl        3 RES3   0.0000
   102 O9       4.0430  14.2349  10.5300   O.2       3 RES3   0.0000
   103 O10      6.3459  13.9176  10.5216   O.3       3 RES3  -1.0000
   104 O11      4.9646  12.5030  11.7778   O.2       3 RES3   0.0000
   105 O12      4.9336  12.3779   9.4720   O.2       3 RES3   0.0000
   106 N7      11.1709  19.4737  13.6045   N.1       4 RES4   0.0000
   107 C47     11.5241  19.9569  12.6517   C.1       4 RES4   0.0000
   108 C48     11.9663  20.5910  11.4287   C.3       4 RES4   0.0000
   109 H39     11.2618  20.5220  10.7507   H         4 RES4   0.0000
   110 H40     12.7761  20.1445  11.1043   H         4 RES4   0.0000
   111 H41     12.1625  21.5356  11.6044   H         4 RES4   0.0000
   112 N8       9.1937   9.2009  12.4513   N.1       5 RES5   0.0000
   113 C49      8.7784   9.9903  11.7485   C.1       5 RES5   0.0000
   114 C50      8.1628  10.9630  10.8611   C.3       5 RES5   0.0000
   115 H42      7.7310  10.4950  10.1155   H         5 RES5   0.0000
   116 H43      8.8507  11.5669  10.5120   H         5 RES5   0.0000
   117 H44      7.4934  11.4785  11.3543   H         5 RES5   0.0000
   118 N9       3.5349  12.6324   4.5138   N.1       6 RES6   0.0000
   119 C51      3.3531  12.2269   5.5296   C.1       6 RES6   0.0000
   120 C52      3.1197  11.6640   6.8360   C.3       6 RES6   0.0000
   121 H45      2.3036  11.1205   6.8180   H         6 RES6   0.0000
   122 H46      3.0164  12.3865   7.4892   H         6 RES6   0.0000
   123 H47      3.8820  11.1010   7.0883   H         6 RES6   0.0000
@<TRIPOS>BOND
     1     1     6    1
     2     2    25    1
     3     3    37    1
     4     4    67    1
     5     5    79    1
     6     6    23    1
     7     7     1    1
     8     8     1    1
     9     9     1    1
    10    10     1    1
    11    11     1    1
    12    12    13   ar
    13    13    14    1
    14    15    13   ar
    15    16    15    1
    16    17    15   ar
    17    18    17    1
    18    19    17   ar
    19    20    19    1
    20    21    12   ar
    21    22    21    1
    22    23    12    1
    23    24    23    1
    24    25    23    1
    25    26    25    1
    26    27    25    1
    27    28     2    1
    28    29     7   ar
    29    30    29   ar
    30    31    30    1
    31    32    30   ar
    32    33    32    1
    33    34    32   ar
    34    35    34    1
    35    36     7   ar
    36    37     8    2
    37    38     3    1
    38    39    38    1
    39    40    38    1
    40    41     8    1
    41    42    41    1
    42    43    41    1
    43    44    43   ar
    44    45    44    1
    45    46    44   ar
    46    47    46    1
    47    48    46   ar
    48    49    48    1
    49    50    48   ar
    50    51    50    1
    51    52    43   ar
    52    53    52    1
    53    54    55   ar
    54    55    56    1
    55    57    55   ar
    56    58    57    1
    57    59    57   ar
    58    60    59    1
    59    61    59   ar
    60    62    61    1
    61    63    54   ar
    62    64    63    1
    63    65     9    1
    64    66    65    1
    65    67    65    1
    66    68    67    1
    67    69    67    1
    68    70     4    1
    69    71    10   ar
    70    72    71   ar
    71    73    72    1
    72    74    72   ar
    73    75    74    1
    74    76    74   ar
    75    77    76    1
    76    78    10   ar
    77    79    11    2
    78    80     5    1
    79    81    80    1
    80    82    80    1
    81    83    11    1
    82    84    83    1
    83    85    83    1
    84    86    85   ar
    85    87    86    1
    86    88    86   ar
    87    89    88    1
    88    90    88   ar
    89    91    90    1
    90    92    90   ar
    91    93    92    1
    92    94    85   ar
    93    95    94    1
    94     6    28    2
    95     9    70    2
    96    19    21   ar
    97    28    29    1
    98    34    36   ar
    99    36    37    1
   100    38    41    1
   101    50    52   ar
   102    54    65    1
   103    61    63   ar
   104    70    71    1
   105    76    78   ar
   106    78    79    1
   107    80    83    1
   108    92    94   ar
   109    96    97    2
   110    98    96    1
   111    99    96    2
   112   100    96    2
   113   101   102    2
   114   103   101    1
   115   104   101    2
   116   105   101    2
   117   106   107    3
   118   107   108    1
   119   108   109    1
   120   110   108    1
   121   111   108    1
   122   112   113    3
   123   113   114    1
   124   114   115    1
   125   116   114    1
   126   117   114    1
   127   118   119    3
   128   119   120    1
   129   120   121    1
   130   122   120    1
   131   123   120    1
@<TRIPOS>SUBSTRUCTURE
     1 RES1        1 GROUP             0 ****  ****    0  
     2 RES2       96 GROUP             0 ****  ****    0  
     3 RES3      101 GROUP             0 ****  ****    0  
     4 RES4      106 GROUP             0 ****  ****    0  
     5 RES5      112 GROUP             0 ****  ****    0  
     6 RES6      118 GROUP             0 ****  ****    0  
@<TRIPOS>CRYSIN
   20.6600   21.5680   22.5240   90.0000   90.0000   90.0000    61     1
