@<TRIPOS>MOLECULE
JAVVEK
   123   131     6     0     0
SMALL
USER_CHARGES
****
Generated from the CSD

@<TRIPOS>ATOM
     1 Fe1     12.9901  15.7925  14.7875   Fe        1 RES1   2.0000
     2 N1      13.8973  15.7303  16.4681   N.ar      1 RES1   0.0000
     3 C1      15.2426  15.7798  16.5070   C.ar      1 RES1   0.0000
     4 C2      15.9336  15.7445  17.7046   C.ar      1 RES1   0.0000
     5 H1      16.8827  15.7869  17.7208   H         1 RES1   0.0000
     6 C3      15.2030  15.6445  18.8909   C.ar      1 RES1   0.0000
     7 H2      15.6557  15.6063  19.7258   H         1 RES1   0.0000
     8 C4      13.8137  15.6009  18.8498   C.ar      1 RES1   0.0000
     9 H3      13.3048  15.5375  19.6493   H         1 RES1   0.0000
    10 C5      13.1922  15.6534  17.6150   C.ar      1 RES1   0.0000
    11 C6      15.7364  15.8830  15.1361   C.2       1 RES1   0.0000
    12 N2      14.8790  15.8784  14.1823   N.2       1 RES1   0.0000
    13 C7      15.6244  15.9857  12.9059   C.3       1 RES1   0.0000
    14 H4      15.3284  16.8059  12.4147   H         1 RES1   0.0000
    15 C8      17.0834  16.1730  13.3872   C.3       1 RES1   0.0000
    16 H5      17.6773  15.4945  12.9772   H         1 RES1   0.0000
    17 H6      17.4158  17.0747  13.1505   H         1 RES1   0.0000
    18 O1      17.0313  16.0034  14.8477   O.3       1 RES1   0.0000
    19 C9      15.3970  14.7654  12.0351   C.ar      1 RES1   0.0000
    20 C10     14.7434  14.8983  10.8238   C.ar      1 RES1   0.0000
    21 H7      14.4638  15.7589  10.5312   H         1 RES1   0.0000
    22 C11     14.4906  13.7818  10.0285   C.ar      1 RES1   0.0000
    23 H8      14.0438  13.8799   9.1968   H         1 RES1   0.0000
    24 C12     14.8945  12.5347  10.4590   C.ar      1 RES1   0.0000
    25 H9      14.7232  11.7687   9.9236   H         1 RES1   0.0000
    26 C13     15.5493  12.3997  11.6712   C.ar      1 RES1   0.0000
    27 H10     15.8266  11.5386  11.9624   H         1 RES1   0.0000
    28 C14     15.8027  13.5019  12.4581   C.ar      1 RES1   0.0000
    29 H11     16.2527  13.4005  13.2878   H         1 RES1   0.0000
    30 C15     11.7728  15.6037  17.2757   C.2       1 RES1   0.0000
    31 N3      11.4438  15.6738  16.0324   N.2       1 RES1   0.0000
    32 C16      9.9789  15.4934  15.9440   C.3       1 RES1   0.0000
    33 H12      9.7866  14.5722  15.6033   H         1 RES1   0.0000
    34 C17      9.5528  15.5783  17.4334   C.3       1 RES1   0.0000
    35 H13      9.1176  16.4469  17.6263   H         1 RES1   0.0000
    36 H14      8.9261  14.8473  17.6623   H         1 RES1   0.0000
    37 O2      10.8153  15.4446  18.1839   O.3       1 RES1   0.0000
    38 C18      9.3072  16.5013  15.0369   C.ar      1 RES1   0.0000
    39 C19      9.4249  17.8622  15.2721   C.ar      1 RES1   0.0000
    40 H15      9.9266  18.1754  16.0151   H         1 RES1   0.0000
    41 C20      8.8102  18.7658  14.4188   C.ar      1 RES1   0.0000
    42 H16      8.8973  19.6997  14.5704   H         1 RES1   0.0000
    43 C21      8.0607  18.3001  13.3339   C.ar      1 RES1   0.0000
    44 H17      7.6354  18.9193  12.7522   H         1 RES1   0.0000
    45 C22      7.9368  16.9611  13.1048   C.ar      1 RES1   0.0000
    46 H18      7.4254  16.6490  12.3674   H         1 RES1   0.0000
    47 C23      8.5570  16.0580  13.9496   C.ar      1 RES1   0.0000
    48 H19      8.4712  15.1268  13.7873   H         1 RES1   0.0000
    49 N4      12.1306  15.8870  13.0880   N.ar      1 RES1   0.0000
    50 C24     11.8872  14.7594  12.3931   C.ar      1 RES1   0.0000
    51 C25     11.3022  14.7861  11.1352   C.ar      1 RES1   0.0000
    52 H20     11.1391  13.9831  10.6550   H         1 RES1   0.0000
    53 C26     10.9596  16.0223  10.5974   C.ar      1 RES1   0.0000
    54 H21     10.5566  16.0685   9.7391   H         1 RES1   0.0000
    55 C27     11.2044  17.1948  11.3125   C.ar      1 RES1   0.0000
    56 H22     10.9703  18.0443  10.9565   H         1 RES1   0.0000
    57 C28     11.7997  17.0837  12.5605   C.ar      1 RES1   0.0000
    58 C29     12.3698  13.6273  13.1782   C.2       1 RES1   0.0000
    59 N5      12.8844  13.8635  14.3312   N.2       1 RES1   0.0000
    60 C30     13.3157  12.5669  14.9158   C.3       1 RES1   0.0000
    61 H23     14.3115  12.5491  14.9935   H         1 RES1   0.0000
    62 C31     12.8599  11.5520  13.8265   C.3       1 RES1   0.0000
    63 H24     13.6259  11.0097  13.5106   H         1 RES1   0.0000
    64 H25     12.1643  10.9452  14.1834   H         1 RES1   0.0000
    65 O3      12.3220  12.3775  12.7356   O.3       1 RES1   0.0000
    66 C32     12.6985  12.3573  16.2806   C.ar      1 RES1   0.0000
    67 C33     11.3199  12.2165  16.4195   C.ar      1 RES1   0.0000
    68 H26     10.7645  12.2008  15.6483   H         1 RES1   0.0000
    69 C34     10.7546  12.0987  17.6796   C.ar      1 RES1   0.0000
    70 H27      9.8134  12.0159  17.7703   H         1 RES1   0.0000
    71 C35     11.5511  12.1002  18.7962   C.ar      1 RES1   0.0000
    72 H28     11.1577  12.0202  19.6583   H         1 RES1   0.0000
    73 C36     12.9244  12.2174  18.6724   C.ar      1 RES1   0.0000
    74 H29     13.4757  12.2094  19.4467   H         1 RES1   0.0000
    75 C37     13.4952  12.3448  17.4114   C.ar      1 RES1   0.0000
    76 H30     14.4391  12.4244  17.3248   H         1 RES1   0.0000
    77 C38     12.1641  18.1200  13.5270   C.2       1 RES1   0.0000
    78 N6      12.7397  17.7482  14.6136   N.2       1 RES1   0.0000
    79 C39     12.9342  18.9438  15.4764   C.3       1 RES1   0.0000
    80 H31     12.3846  18.8483  16.3054   H         1 RES1   0.0000
    81 C40     12.3368  20.0712  14.5875   C.3       1 RES1   0.0000
    82 H32     11.5756  20.5081  15.0452   H         1 RES1   0.0000
    83 H33     13.0228  20.7553  14.3859   H         1 RES1   0.0000
    84 O4      11.8874  19.4142  13.3539   O.3       1 RES1   0.0000
    85 C41     14.3769  19.1244  15.8531   C.ar      1 RES1   0.0000
    86 C42     14.7543  19.1883  17.1884   C.ar      1 RES1   0.0000
    87 H34     14.0953  19.1128  17.8693   H         1 RES1   0.0000
    88 C43     16.0852  19.3624  17.5356   C.ar      1 RES1   0.0000
    89 H35     16.3330  19.4138  18.4521   H         1 RES1   0.0000
    90 C44     17.0548  19.4609  16.5538   C.ar      1 RES1   0.0000
    91 H36     17.9655  19.5815  16.7914   H         1 RES1   0.0000
    92 C45     16.6869  19.3824  15.2214   C.ar      1 RES1   0.0000
    93 H37     17.3500  19.4374  14.5434   H         1 RES1   0.0000
    94 C46     15.3593  19.2244  14.8699   C.ar      1 RES1   0.0000
    95 H38     15.1143  19.1837  13.9539   H         1 RES1   0.0000
    96 Cl1     15.5392  19.0261  10.5384   Cl        2 RES2   0.0000
    97 O5      15.6860  19.9003   9.4243   O.2       2 RES2   0.0000
    98 O6      16.5675  18.0258  10.4860   O.2       2 RES2   0.0000
    99 O7      15.6596  19.7767  11.7434   O.2       2 RES2   0.0000
   100 O8      14.2569  18.3741  10.4878   O.3       2 RES2  -1.0000
   101 Cl2     10.7721  19.2297  19.0662   Cl        3 RES3   0.0000
   102 O9      11.8024  18.2717  18.8167   O.2       3 RES3   0.0000
   103 O10     11.1871  20.1022  20.1063   O.2       3 RES3   0.0000
   104 O11      9.6051  18.5063  19.4909   O.3       3 RES3  -1.0000
   105 O12     10.5158  19.9715  17.8709   O.2       3 RES3   0.0000
   106 C47     17.4860  20.6425   6.8048   C.3       4 RES4   0.0000
   107 H39     18.3299  21.1423   6.7823   H         4 RES4   0.0000
   108 H40     17.5476  19.9298   7.4754   H         4 RES4   0.0000
   109 H41     16.7530  21.2498   7.0388   H         4 RES4   0.0000
   110 C48     17.2357  20.0641   5.5118   C.1       4 RES4   0.0000
   111 N7      17.0280  19.6288   4.5032   N.1       4 RES4   0.0000
   112 C49      8.0924  21.7206  11.6503   C.3       5 RES5   0.0000
   113 H42      7.4357  22.2366  11.1388   H         5 RES5   0.0000
   114 H43      8.7800  22.3248  12.0006   H         5 RES5   0.0000
   115 H44      7.6457  21.2670  12.3944   H         5 RES5   0.0000
   116 C50      8.7129  20.7323  10.7826   C.1       5 RES5   0.0000
   117 N8       9.1680  19.9478  10.0978   N.1       5 RES5   0.0000
   118 C51      8.6721  11.7414  11.4043   C.3       6 RES6   0.0000
   119 H45      9.3976  11.8031  10.7472   H         6 RES6   0.0000
   120 H46      7.8762  12.1922  11.0533   H         6 RES6   0.0000
   121 H47      8.4650  10.7990  11.5753   H         6 RES6   0.0000
   122 C52      9.0811  12.3749  12.6359   C.1       6 RES6   0.0000
   123 N9       9.4206  12.8656  13.5974   N.1       6 RES6   0.0000
@<TRIPOS>BOND
     1     1     2    1
     2     2     3   ar
     3     3     4   ar
     4     4     5    1
     5     6     4   ar
     6     7     6    1
     7     8     6   ar
     8     9     8    1
     9    10     2   ar
    10    11     3    1
    11    12     1    1
    12    13    12    1
    13    14    13    1
    14    15    13    1
    15    16    15    1
    16    17    15    1
    17    18    11    1
    18    19    13    1
    19    20    19   ar
    20    21    20    1
    21    22    20   ar
    22    23    22    1
    23    24    22   ar
    24    25    24    1
    25    26    24   ar
    26    27    26    1
    27    28    19   ar
    28    29    28    1
    29    30    10    1
    30    31     1    1
    31    32    31    1
    32    33    32    1
    33    34    32    1
    34    35    34    1
    35    36    34    1
    36    37    30    1
    37    38    32    1
    38    39    38   ar
    39    40    39    1
    40    41    39   ar
    41    42    41    1
    42    43    41   ar
    43    44    43    1
    44    45    43   ar
    45    46    45    1
    46    47    38   ar
    47    48    47    1
    48    49     1    1
    49    50    49   ar
    50    51    50   ar
    51    52    51    1
    52    53    51   ar
    53    54    53    1
    54    55    53   ar
    55    56    55    1
    56    57    49   ar
    57    58    50    1
    58    59     1    1
    59    60    59    1
    60    61    60    1
    61    62    60    1
    62    63    62    1
    63    64    62    1
    64    65    58    1
    65    66    60    1
    66    67    66   ar
    67    68    67    1
    68    69    67   ar
    69    70    69    1
    70    71    69   ar
    71    72    71    1
    72    73    71   ar
    73    74    73    1
    74    75    66   ar
    75    76    75    1
    76    77    57    1
    77    78     1    1
    78    79    78    1
    79    80    79    1
    80    81    79    1
    81    82    81    1
    82    83    81    1
    83    84    77    1
    84    85    79    1
    85    86    85   ar
    86    87    86    1
    87    88    86   ar
    88    89    88    1
    89    90    88   ar
    90    91    90    1
    91    92    90   ar
    92    93    92    1
    93    94    85   ar
    94    95    94    1
    95     8    10   ar
    96    11    12    2
    97    15    18    1
    98    26    28   ar
    99    30    31    2
   100    34    37    1
   101    45    47   ar
   102    55    57   ar
   103    58    59    2
   104    62    65    1
   105    73    75   ar
   106    77    78    2
   107    81    84    1
   108    92    94   ar
   109    96    97    2
   110    98    96    2
   111    99    96    2
   112   100    96    1
   113   101   102    2
   114   103   101    2
   115   104   101    1
   116   105   101    2
   117   106   107    1
   118   108   106    1
   119   109   106    1
   120   110   106    1
   121   111   110    3
   122   112   113    1
   123   114   112    1
   124   115   112    1
   125   116   112    1
   126   117   116    3
   127   118   119    1
   128   120   118    1
   129   121   118    1
   130   122   118    1
   131   123   122    3
@<TRIPOS>SUBSTRUCTURE
     1 RES1        1 GROUP             0 ****  ****    0  
     2 RES2       96 GROUP             0 ****  ****    0  
     3 RES3      101 GROUP             0 ****  ****    0  
     4 RES4      106 GROUP             0 ****  ****    0  
     5 RES5      112 GROUP             0 ****  ****    0  
     6 RES6      118 GROUP             0 ****  ****    0  
@<TRIPOS>CRYSIN
   20.5861   21.4992   22.5026   90.0000   90.0000   90.0000    61     1
