@<TRIPOS>MOLECULE
JAWFIW
    94    98     4     0     0
SMALL
USER_CHARGES
****
Generated from the CSD

@<TRIPOS>ATOM
     1 Fe1      0.5905   8.6615   9.6146   Fe        1 RES1   1.0000
     2 S1      -1.5918  12.8520  10.1170   S.2       1 RES1   0.0000
     3 O1       2.4114   9.3542   9.7606   O.3       1 RES1   0.0000
     4 O2       0.5648   8.5660  11.5445   O.3       1 RES1   0.0000
     5 N1       0.9290   8.8089   7.4767   N.2       1 RES1   0.0000
     6 N2      -1.2143   7.6936   8.7344   N.3       1 RES1   0.0000
     7 N3       1.0256   6.6030   9.7498   N.2       1 RES1   0.0000
     8 N4      -0.3804   9.8847  13.7450   N.4       1 RES1   1.0000
     9 N5       1.6959  10.8191  13.3778   N.3       1 RES1   0.0000
    10 N6       3.9201  10.1920  11.7543   N.pl3     1 RES1   0.0000
    11 N7      -0.4393  10.3977   9.6433   N.2       1 RES1   0.0000
    12 C1       6.3360  11.5255   6.2792   C.3       1 RES1   0.0000
    13 C2       5.2824  10.9604   7.2051   C.ar      1 RES1   0.0000
    14 C3       4.1015  10.4374   6.6989   C.ar      1 RES1   0.0000
    15 C4       3.1039   9.8871   7.5338   C.ar      1 RES1   0.0000
    16 C5       3.3035   9.8698   8.9226   C.ar      1 RES1   0.0000
    17 C6       4.4971  10.4225   9.4411   C.ar      1 RES1   0.0000
    18 C7       5.4658  10.9455   8.5553   C.ar      1 RES1   0.0000
    19 C8       1.9192   9.3542   6.8887   C.2       1 RES1   0.0000
    20 C9      -0.1848   8.3380   6.6264   C.3       1 RES1   0.0000
    21 C10     -1.4608   8.3479   7.4443   C.3       1 RES1   0.0000
    22 C11     -1.0491   6.2213   8.6402   C.3       1 RES1   0.0000
    23 C12      0.4127   5.8371   8.6526   C.3       1 RES1   0.0000
    24 C13      1.5528   5.9908  10.7374   C.2       1 RES1   0.0000
    25 C14      1.9055   6.6228  11.9920   C.ar      1 RES1   0.0000
    26 C15      2.6922   5.9139  12.9133   C.ar      1 RES1   0.0000
    27 C16      2.9798   6.4097  14.1771   C.ar      1 RES1   0.0000
    28 C17      3.8790   5.6562  15.1323   C.3       1 RES1   0.0000
    29 C18      2.3891   7.6316  14.5351   C.ar      1 RES1   0.0000
    30 C19      1.6085   8.3578  13.6540   C.ar      1 RES1   0.0000
    31 C20      1.3479   7.8671  12.3562   C.ar      1 RES1   0.0000
    32 C21      1.0833   9.6938  14.0845   C.3       1 RES1   0.0000
    33 C22     -0.5813  11.3322  13.4518   C.3       1 RES1   0.0000
    34 C23      0.7543  11.9394  13.5861   C.3       1 RES1   0.0000
    35 C24      3.0438  11.1636  13.8330   C.3       1 RES1   0.0000
    36 C25      4.1275  10.3110  13.1972   C.3       1 RES1   0.0000
    37 C26      4.7618  10.5316  10.8423   C.2       1 RES1   0.0000
    38 C27     -0.9003  11.4263   9.8115   C.1       1 RES1   0.0000
    39 H1       6.6578  12.1947   6.4335   H         1 RES1   0.0000
    40 H2       5.9910  11.8725   5.5107   H         1 RES1   0.0000
    41 H3       6.8148  11.0620   5.7745   H         1 RES1   0.0000
    42 H4       3.8791  10.5365   5.7622   H         1 RES1   0.0000
    43 H5       1.9872   9.4806   5.9042   H         1 RES1   0.0000
    44 H6      -0.3151   8.8932   5.8147   H         1 RES1   0.0000
    45 H7       0.0256   7.3738   6.1989   H         1 RES1   0.0000
    46 H8      -1.8097   9.3121   7.6510   H         1 RES1   0.0000
    47 H9      -2.2549   8.0307   6.8856   H         1 RES1   0.0000
    48 H10     -1.9617   7.8770   9.3177   H         1 RES1   0.0000
    49 H11     -1.4740   5.8247   9.5491   H         1 RES1   0.0000
    50 H12     -1.5033   5.8718   7.8331   H         1 RES1   0.0000
    51 H13      0.8095   5.9784   7.8424   H         1 RES1   0.0000
    52 H14      0.4822   4.9027   8.7236   H         1 RES1   0.0000
    53 H15      1.8296   4.9498  10.8439   H         1 RES1   0.0000
    54 H16      3.1243   5.0117  12.6216   H         1 RES1   0.0000
    55 H17      4.3739   4.9498  14.7296   H         1 RES1   0.0000
    56 H18      4.8273   6.0156  15.4194   H         1 RES1   0.0000
    57 H19      3.4442   5.5025  16.0305   H         1 RES1   0.0000
    58 H20      2.5484   8.0778  15.4595   H         1 RES1   0.0000
    59 H21      1.1725   9.8599  15.0907   H         1 RES1   0.0000
    60 H22     -0.9951   9.6145  14.4317   H         1 RES1   0.0000
    61 H23     -0.6410   9.4261  12.9302   H         1 RES1   0.0000
    62 H24     -1.2169  11.7139  14.0768   H         1 RES1   0.0000
    63 H25     -0.9241  11.4462  12.5645   H         1 RES1   0.0000
    64 H26      0.9809  12.1848  14.4472   H         1 RES1   0.0000
    65 H27      0.9783  12.6235  12.9827   H         1 RES1   0.0000
    66 H28      3.2474  10.9331  14.9487   H         1 RES1   0.0000
    67 H29      3.2471  12.1005  13.5228   H         1 RES1   0.0000
    68 H30      5.0252  10.7348  13.2975   H         1 RES1   0.0000
    69 H31      4.1111   9.3418  13.5707   H         1 RES1   0.0000
    70 H32      3.0873   9.7855  11.3855   H         1 RES1   0.0000
    71 H33      5.6483  11.0347  11.2189   H         1 RES1   0.0000
    72 H34      6.2830  11.2975   8.9118   H         1 RES1   0.0000
    73 Cl1      2.9869  10.5611   2.6836   Cl        2 RES2   0.0000
    74 O3       2.2768  11.4809   1.8734   O.3       2 RES2  -1.0000
    75 O4       2.1071   9.8053   3.4968   O.2       2 RES2   0.0000
    76 O5       3.9168  11.2429   3.4922   O.2       2 RES2   0.0000
    77 O6       3.6796   9.6888   1.8611   O.2       2 RES2   0.0000
    78 Cl2      7.6526   4.9123   4.5153   Cl        3 RES3   0.0000
    79 O7       7.2548   5.1406   3.2144   O.3       3 RES3  -1.0000
    80 O8       6.5733   5.1976   5.2298   O.2       3 RES3   0.0000
    81 O9       8.7545   5.4926   4.9567   O.2       3 RES3   0.0000
    82 O10      7.9068   3.5419   4.3054   O.2       3 RES3   0.0000
    83 O11      9.3747   9.6517   0.4614   O.2       4 RES4   0.0000
    84 N8       7.8624   9.2105   2.0354   N.am      4 RES4   0.0000
    85 C28      9.0287   9.6442   1.6466   C.2       4 RES4   0.0000
    86 C29      7.6995   9.2278   3.4289   C.3       4 RES4   0.0000
    87 C30      6.9228   8.8387   1.1728   C.3       4 RES4   0.0000
    88 H35      9.6296   9.9615   2.2607   H         4 RES4   0.0000
    89 H36      7.6506  10.1028   3.7376   H         4 RES4   0.0000
    90 H37      8.2203   8.6478   3.8440   H         4 RES4   0.0000
    91 H38      6.7006   8.8709   3.5632   H         4 RES4   0.0000
    92 H39      6.1180   8.5016   1.7145   H         4 RES4   0.0000
    93 H40      7.2007   8.0678   0.6589   H         4 RES4   0.0000
    94 H41      6.6202   9.5228   0.6358   H         4 RES4   0.0000
@<TRIPOS>BOND
     1     1     3    1
     2     2    38    2
     3     3    16    1
     4     4     1    1
     5     5     1    1
     6     6     1    1
     7     7     1    1
     8     8    32    1
     9     9    32    1
    10    10    36    1
    11    11     1    1
    12    12    13    1
    13    13    14   ar
    14    14    15   ar
    15    15    16   ar
    16    16    17   ar
    17    17    18   ar
    18    18    13   ar
    19    19     5    2
    20    20     5    1
    21    21     6    1
    22    22     6    1
    23    23     7    1
    24    24     7    2
    25    25    24    1
    26    26    25   ar
    27    27    26   ar
    28    28    27    1
    29    29    27   ar
    30    30    29   ar
    31    31     4    1
    32    32    30    1
    33    33     8    1
    34    34     9    1
    35    35     9    1
    36    36    35    1
    37    37    10    2
    38    38    11    2
    39    39    12    1
    40    40    12    1
    41    41    12    1
    42    42    14    1
    43    43    19    1
    44    44    20    1
    45    45    20    1
    46    46    21    1
    47    47    21    1
    48    48     6    1
    49    49    22    1
    50    50    22    1
    51    51    23    1
    52    52    23    1
    53    53    24    1
    54    54    26    1
    55    55    28    1
    56    56    28    1
    57    57    28    1
    58    58    29    1
    59    59    32    1
    60    60     8    1
    61    61     8    1
    62    62    33    1
    63    63    33    1
    64    64    34    1
    65    65    34    1
    66    66    35    1
    67    67    35    1
    68    68    36    1
    69    69    36    1
    70    70    10    1
    71    71    37    1
    72    72    18    1
    73    15    19    1
    74    17    37    1
    75    20    21    1
    76    22    23    1
    77    25    31   ar
    78    30    31   ar
    79    33    34    1
    80    73    74    1
    81    75    73    2
    82    76    73    2
    83    77    73    2
    84    78    79    1
    85    80    78    2
    86    81    78    2
    87    82    78    2
    88    83    85    2
    89    84    85   am
    90    85    88    1
    91    86    84    1
    92    87    84    1
    93    89    86    1
    94    90    86    1
    95    91    86    1
    96    92    87    1
    97    93    87    1
    98    94    87    1
@<TRIPOS>SUBSTRUCTURE
     1 RES1        1 GROUP             0 ****  ****    0  
     2 RES2       73 GROUP             0 ****  ****    0  
     3 RES3       78 GROUP             0 ****  ****    0  
     4 RES4       83 GROUP             0 ****  ****    0  
@<TRIPOS>CRYSIN
    9.8920   24.7860   15.5000   90.0000   95.3800   90.0000    14     1
