@<TRIPOS>MOLECULE
JEDFEH
   101   109     4     0     0
SMALL
USER_CHARGES
****
Generated from the CSD

@<TRIPOS>ATOM
     1 Fe1     10.8227  13.3871   4.4714   Fe        1 RES1   2.0000
     2 N1      11.5586  14.7887   3.2938   N.ar      1 RES1   0.0000
     3 N2       9.5088  13.3503   3.1218   N.ar      1 RES1   0.0000
     4 N3       9.6127  12.0304   5.2450   N.ar      1 RES1   0.0000
     5 O1      12.2015  17.7151  -0.6888   O.co2     1 RES1   0.0000
     6 O2       5.3237   9.7640   6.3506   O.co2     1 RES1   0.0000
     7 C1       8.4785  11.8017   4.5272   C.ar      1 RES1   0.0000
     8 C2       8.4698  12.4990   3.2348   C.ar      1 RES1   0.0000
     9 C3      10.8595  14.9743   2.1329   C.ar      1 RES1   0.0000
    10 C4       9.6993  14.0919   2.0046   C.ar      1 RES1   0.0000
    11 O3      13.5403  18.6534   0.8347   O.co2     1 RES1  -1.0000
    12 C5       7.4579  11.0005   4.9901   C.ar      1 RES1   0.0000
    13 H1       6.6873  10.8781   4.4839   H         1 RES1   0.0000
    14 C6      11.2231  15.9338   1.2139   C.ar      1 RES1   0.0000
    15 H2      10.7437  16.0236   0.4221   H         1 RES1   0.0000
    16 C7      12.2957  16.7600   1.4636   C.ar      1 RES1   0.0000
    17 C8       8.8432  13.9601   0.9245   C.ar      1 RES1   0.0000
    18 H3       8.9828  14.4644   0.1556   H         1 RES1   0.0000
    19 C9       9.7697  11.3708   6.4168   C.ar      1 RES1   0.0000
    20 H4      10.5619  11.4763   6.8913   H         1 RES1   0.0000
    21 C10      7.7642  13.0639   0.9885   C.ar      1 RES1   0.0000
    22 C11      8.7924  10.5521   6.9226   C.ar      1 RES1   0.0000
    23 H5       8.9287  10.1137   7.7319   H         1 RES1   0.0000
    24 C12      6.8908  12.8529  -0.1924   C.ar      1 RES1   0.0000
    25 C13      7.5737  12.3486   2.1803   C.ar      1 RES1   0.0000
    26 H6       6.8486  11.7726   2.2661   H         1 RES1   0.0000
    27 C14      7.5986  10.3749   6.2304   C.ar      1 RES1   0.0000
    28 C15      5.2815  11.5538  -1.4022   C.ar      1 RES1   0.0000
    29 H7       4.7155  10.8199  -1.4648   H         1 RES1   0.0000
    30 C16     12.6009  15.5946   3.5347   C.ar      1 RES1   0.0000
    31 H8      13.0857  15.4780   4.3194   H         1 RES1   0.0000
    32 C17     12.7102  17.8129   0.4454   C.2       1 RES1   0.0000
    33 C18      6.0824  13.5735  -2.3412   C.ar      1 RES1   0.0000
    34 H9       6.0791  14.1903  -3.0388   H         1 RES1   0.0000
    35 C19      6.8497  13.7699  -1.2422   C.ar      1 RES1   0.0000
    36 H10      7.3659  14.5420  -1.1858   H         1 RES1   0.0000
    37 C20      6.0813  11.7227  -0.2969   C.ar      1 RES1   0.0000
    38 H11      6.0824  11.0858   0.3810   H         1 RES1   0.0000
    39 C21     12.9829  16.5938   2.6560   C.ar      1 RES1   0.0000
    40 H12     13.6983  17.1507   2.8635   H         1 RES1   0.0000
    41 N4       5.3259  12.4641  -2.3967   N.ar      1 RES1   1.0000
    42 H13      4.8475  12.3292  -3.0996   H         1 RES1   0.0000
    43 C22      6.4655   9.5435   6.8030   C.2       1 RES1   0.0000
    44 O4       6.7620   8.7454   7.7087   O.co2     1 RES1  -1.0000
    45 N1C     10.0868  14.7887   5.6490   N.ar      1 RES1   0.0000
    46 N2C     12.1366  13.3503   5.8210   N.ar      1 RES1   0.0000
    47 N3C     12.0327  12.0304   3.6978   N.ar      1 RES1   0.0000
    48 O1C      9.4439  17.7151   9.6316   O.co2     1 RES1   0.0000
    49 O2C     16.3217   9.7640   2.5922   O.co2     1 RES1   0.0000
    50 C1C     13.1669  11.8017   4.4156   C.ar      1 RES1   0.0000
    51 C2C     13.1756  12.4990   5.7080   C.ar      1 RES1   0.0000
    52 C3C     10.7859  14.9743   6.8099   C.ar      1 RES1   0.0000
    53 C4C     11.9461  14.0919   6.9382   C.ar      1 RES1   0.0000
    54 O3C      8.1051  18.6534   8.1081   O.co2     1 RES1  -1.0000
    55 C5C     14.1875  11.0005   3.9527   C.ar      1 RES1   0.0000
    56 H1C     14.9581  10.8781   4.4589   H         1 RES1   0.0000
    57 C6C     10.4223  15.9338   7.7289   C.ar      1 RES1   0.0000
    58 H2C     10.9017  16.0236   8.5207   H         1 RES1   0.0000
    59 C7C      9.3497  16.7600   7.4792   C.ar      1 RES1   0.0000
    60 C8C     12.8022  13.9601   8.0183   C.ar      1 RES1   0.0000
    61 H3C     12.6626  14.4644   8.7872   H         1 RES1   0.0000
    62 C9C     11.8757  11.3708   2.5260   C.ar      1 RES1   0.0000
    63 H4C     11.0835  11.4763   2.0515   H         1 RES1   0.0000
    64 C10C    13.8812  13.0639   7.9543   C.ar      1 RES1   0.0000
    65 C11C    12.8530  10.5521   2.0202   C.ar      1 RES1   0.0000
    66 H5C     12.7167  10.1137   1.2109   H         1 RES1   0.0000
    67 C12C    14.7546  12.8529   9.1352   C.ar      1 RES1   0.0000
    68 C13C    14.0717  12.3486   6.7625   C.ar      1 RES1   0.0000
    69 H6C     14.7968  11.7726   6.6767   H         1 RES1   0.0000
    70 C14C    14.0468  10.3749   2.7124   C.ar      1 RES1   0.0000
    71 C15C    16.3639  11.5538  10.3450   C.ar      1 RES1   0.0000
    72 H7C     16.9299  10.8199  10.4076   H         1 RES1   0.0000
    73 C16C     9.0445  15.5946   5.4081   C.ar      1 RES1   0.0000
    74 H8C      8.5597  15.4780   4.6234   H         1 RES1   0.0000
    75 C17C     8.9352  17.8129   8.4974   C.2       1 RES1   0.0000
    76 C18C    15.5630  13.5735  11.2840   C.ar      1 RES1   0.0000
    77 H9C     15.5663  14.1903  11.9816   H         1 RES1   0.0000
    78 C19C    14.7957  13.7699  10.1850   C.ar      1 RES1   0.0000
    79 H10C    14.2795  14.5420  10.1286   H         1 RES1   0.0000
    80 C20C    15.5641  11.7227   9.2397   C.ar      1 RES1   0.0000
    81 H11C    15.5630  11.0858   8.5618   H         1 RES1   0.0000
    82 C21C     8.6625  16.5938   6.2868   C.ar      1 RES1   0.0000
    83 H12C     7.9471  17.1507   6.0793   H         1 RES1   0.0000
    84 N4C     16.3195  12.4641  11.3395   N.ar      1 RES1   1.0000
    85 H13C    16.7979  12.3292  12.0424   H         1 RES1   0.0000
    86 C22C    15.1799   9.5435   2.1398   C.2       1 RES1   0.0000
    87 O4C     14.8834   8.7454   1.2341   O.co2     1 RES1  -1.0000
    88 O5       8.0380   8.6269   2.5939   O.3       2 RES2   0.0000
    89 H14      7.6387   8.3524   1.8959   H         2 RES2   0.0000
    90 H15      7.5564   9.2691   2.8760   H         2 RES2   0.0000
    91 C23      6.1213   7.4280   0.0322   C.3       3 RES3   0.0000
    92 H16      6.8551   8.0478  -0.1091   H         3 RES3   0.0000
    93 H17      5.4644   7.8678   0.5920   H         3 RES3   0.0000
    94 O6       5.4979   7.1062  -1.2896   O.3       3 RES3   0.0000
    95 H18      5.4503   7.7875  -1.7438   H         3 RES3   0.0000
    96 C24      6.6224   6.2491   0.7262   C.3       3 RES3   0.0000
    97 H19      7.3042   5.8295   0.1950   H         3 RES3   0.0000
    98 H20      5.9016   5.6301   0.8675   H         3 RES3   0.0000
    99 H21      6.9915   6.5108   1.5739   H         3 RES3   0.0000
   100 O7       8.3703  17.6049   2.7848   O.3       4 RES4   0.0000
   101 H22      8.2469  17.0953   2.2053   H         4 RES4   0.0000
@<TRIPOS>BOND
     1     1     2    1
     2     2     9   ar
     3     3     1    1
     4     4     1    1
     5     5    32    2
     6     6    43    2
     7     7     4   ar
     8     8     3   ar
     9     9    10    1
    10    10     3   ar
    11    11    32    1
    12    12     7   ar
    13    13    12    1
    14    14     9   ar
    15    15    14    1
    16    16    14   ar
    17    17    10   ar
    18    18    17    1
    19    19     4   ar
    20    20    19    1
    21    21    17   ar
    22    22    19   ar
    23    23    22    1
    24    24    21    1
    25    25     8   ar
    26    26    25    1
    27    27    12   ar
    28    28    29    1
    29    30     2   ar
    30    31    30    1
    31    32    16    1
    32    33    34    1
    33    35    24   ar
    34    36    35    1
    35    37    24   ar
    36    38    37    1
    37    39    16   ar
    38    40    39    1
    39    41    28   ar
    40    42    41    1
    41    43    27    1
    42    44    43    1
    43    45     1    1
    44    46     1    1
    45    47     1    1
    46    48    75    2
    47    49    86    2
    48    50    47   ar
    49    51    46   ar
    50    52    45   ar
    51    53    46   ar
    52    54    75    1
    53    55    50   ar
    54    56    55    1
    55    57    52   ar
    56    58    57    1
    57    59    57   ar
    58    60    53   ar
    59    61    60    1
    60    62    47   ar
    61    63    62    1
    62    64    60   ar
    63    65    62   ar
    64    66    65    1
    65    67    64    1
    66    68    51   ar
    67    69    68    1
    68    70    55   ar
    69    71    72    1
    70    73    45   ar
    71    74    73    1
    72    75    59    1
    73    76    77    1
    74    78    67   ar
    75    79    78    1
    76    80    67   ar
    77    81    80    1
    78    82    59   ar
    79    83    82    1
    80    84    71   ar
    81    85    84    1
    82    86    70    1
    83    87    86    1
    84     7     8    1
    85    21    25   ar
    86    22    27   ar
    87    28    37   ar
    88    30    39   ar
    89    33    35   ar
    90    33    41   ar
    91    50    51    1
    92    52    53    1
    93    64    68   ar
    94    65    70   ar
    95    71    80   ar
    96    73    82   ar
    97    76    78   ar
    98    76    84   ar
    99    88    89    1
   100    90    88    1
   101    91    92    1
   102    93    91    1
   103    94    91    1
   104    95    94    1
   105    96    91    1
   106    97    96    1
   107    98    96    1
   108    99    96    1
   109   100   101    1
@<TRIPOS>SUBSTRUCTURE
     1 RES1        1 GROUP             0 ****  ****    0  
     2 RES2       88 GROUP             0 ****  ****    0  
     3 RES3       91 GROUP             0 ****  ****    0  
     4 RES4      100 GROUP             0 ****  ****    0  
@<TRIPOS>CRYSIN
   10.8227   27.6937   17.8856   90.0000   90.0000   90.0000    60     1
