@<TRIPOS>MOLECULE
JEGZAW
   106   118     2     0     0
SMALL
NO_CHARGES
****
Generated from the CSD

@<TRIPOS>ATOM
     1 Fe1      9.7239   2.9110  10.4859   Fe        1 RES1   0.0000
     2 N1      11.2877   2.2948   9.3989   N.2       1 RES1   0.0000
     3 N2       8.4911   1.9590   9.2334   N.2       1 RES1   0.0000
     4 N3       9.9717   1.2985  11.6504   N.2       1 RES1   0.0000
     5 N4      10.8203  -0.5472  12.5480   N.pl3     1 RES1   0.0000
     6 C1      12.6240   2.4731   9.6958   C.2       1 RES1   0.0000
     7 C2      11.2655   1.5087   8.2637   C.2       1 RES1   0.0000
     8 C3       8.8237   1.2556   8.0932   C.2       1 RES1   0.0000
     9 C4       7.1107   1.9839   9.2584   C.2       1 RES1   0.0000
    10 C5      13.4357   1.7736   8.7353   C.2       1 RES1   0.0000
    11 C6      12.6056   1.1946   7.8497   C.2       1 RES1   0.0000
    12 C7       7.6319   0.8196   7.4120   C.2       1 RES1   0.0000
    13 C8       6.5845   1.2663   8.1226   C.2       1 RES1   0.0000
    14 C9      10.1174   1.0466   7.6190   C.2       1 RES1   0.0000
    15 C10     13.1257   3.1860  10.7700   C.2       1 RES1   0.0000
    16 C11     14.6226   3.2376  10.9655   C.ar      1 RES1   0.0000
    17 C12     15.3818   4.2461  10.4066   C.ar      1 RES1   0.0000
    18 C13     16.7526   4.3294  10.6599   C.ar      1 RES1   0.0000
    19 C14     17.3606   3.3864  11.4547   C.ar      1 RES1   0.0000
    20 C15     16.6236   2.3638  11.9849   C.ar      1 RES1   0.0000
    21 C16     15.2554   2.2847  11.7395   C.ar      1 RES1   0.0000
    22 C17     10.2932   0.3075   6.3284   C.ar      1 RES1   0.0000
    23 C18     10.7604   0.9826   5.2018   C.ar      1 RES1   0.0000
    24 C19     10.9281   0.3082   4.0016   C.ar      1 RES1   0.0000
    25 C20     10.6341  -1.0247   3.9079   C.ar      1 RES1   0.0000
    26 C21     10.1704  -1.6996   5.0032   C.ar      1 RES1   0.0000
    27 C22     10.0021  -1.0332   6.2143   C.ar      1 RES1   0.0000
    28 C23      9.4556   1.1091  12.9154   C.2       1 RES1   0.0000
    29 C24      9.9595  -0.0097  13.4674   C.2       1 RES1   0.0000
    30 C25     10.7761   0.2792  11.4682   C.2       1 RES1   0.0000
    31 C26     11.6299  -1.6893  12.6688   C.2       1 RES1   0.0000
    32 C27     11.8585  -2.3421  13.7704   C.2       1 RES1   0.0000
    33 H1      14.3857   1.7291   8.7284   H         1 RES1   0.0000
    34 H2      12.8566   0.6765   7.0947   H         1 RES1   0.0000
    35 H3       7.5924   0.3132   6.6103   H         1 RES1   0.0000
    36 H4       5.6667   1.1306   7.9168   H         1 RES1   0.0000
    37 H5      14.9664   4.8905   9.8420   H         1 RES1   0.0000
    38 H6      17.2629   5.0384  10.2845   H         1 RES1   0.0000
    39 H7      18.2908   3.4455  11.6351   H         1 RES1   0.0000
    40 H8      17.0452   1.7035  12.5243   H         1 RES1   0.0000
    41 H9      14.7523   1.5673  12.1091   H         1 RES1   0.0000
    42 H10     10.9643   1.9085   5.2576   H         1 RES1   0.0000
    43 H11     11.2494   0.7778   3.2380   H         1 RES1   0.0000
    44 H12     10.7526  -1.4811   3.0828   H         1 RES1   0.0000
    45 H13      9.9648  -2.6246   4.9388   H         1 RES1   0.0000
    46 H14      9.6819  -1.5102   6.9710   H         1 RES1   0.0000
    47 H15      8.8314   1.6895  13.3401   H         1 RES1   0.0000
    48 H16      9.7540  -0.3610  14.3279   H         1 RES1   0.0000
    49 H17     11.2707   0.1339  10.6704   H         1 RES1   0.0000
    50 H18     12.0416  -2.0144  11.8742   H         1 RES1   0.0000
    51 H19     11.4651  -2.0528  14.5837   H         1 RES1   0.0000
    52 H20     12.4209  -3.1089  13.7595   H         1 RES1   0.0000
    53 N1E      8.1600   3.5272  11.5728   N.2       1 RES1   0.0000
    54 N2E     10.9566   3.8630  11.7383   N.2       1 RES1   0.0000
    55 N3E      9.4760   4.5235   9.3213   N.2       1 RES1   0.0000
    56 C10E     6.3220   2.6360  10.2017   C.2       1 RES1   0.0000
    57 C4E     12.3370   3.8381  11.7133   C.2       1 RES1   0.0000
    58 C1E      6.8237   3.3489  11.2759   C.2       1 RES1   0.0000
    59 C2E      8.1822   4.3133  12.7080   C.2       1 RES1   0.0000
    60 C3E     10.6240   4.5664  12.8785   C.2       1 RES1   0.0000
    61 C23E     9.9921   4.7129   8.0563   C.2       1 RES1   0.0000
    62 C25E     8.6716   5.5428   9.5035   C.2       1 RES1   0.0000
    63 C11E     4.8251   2.5844  10.0062   C.ar      1 RES1   0.0000
    64 C8E     12.8632   4.5557  12.8492   C.2       1 RES1   0.0000
    65 C5E      6.0120   4.0484  12.2364   C.2       1 RES1   0.0000
    66 C6E      6.8421   4.6274  13.1220   C.2       1 RES1   0.0000
    67 C9E      9.3303   4.7754  13.3527   C.2       1 RES1   0.0000
    68 C7E     11.8158   5.0024  13.5597   C.2       1 RES1   0.0000
    69 C24E     9.4882   5.8317   7.5043   C.2       1 RES1   0.0000
    70 H15E    10.6163   4.1325   7.6316   H         1 RES1   0.0000
    71 N4E      8.6274   6.3692   8.4237   N.pl3     1 RES1   0.0000
    72 H17E     8.1770   5.6881  10.3013   H         1 RES1   0.0000
    73 C12E     4.0659   1.5759  10.5651   C.ar      1 RES1   0.0000
    74 C16E     4.1923   3.5373   9.2322   C.ar      1 RES1   0.0000
    75 H4E     13.7810   4.6914  13.0549   H         1 RES1   0.0000
    76 H1E      5.0620   4.0929  12.2433   H         1 RES1   0.0000
    77 H2E      6.5911   5.1455  13.8770   H         1 RES1   0.0000
    78 C17E     9.1545   5.5145  14.6433   C.ar      1 RES1   0.0000
    79 H3E     11.8553   5.5088  14.3614   H         1 RES1   0.0000
    80 H16E     9.6937   6.1830   6.6438   H         1 RES1   0.0000
    81 C26E     7.8178   7.5113   8.3029   C.2       1 RES1   0.0000
    82 C13E     2.6951   1.4926  10.3118   C.ar      1 RES1   0.0000
    83 H5E      4.4813   0.9315  11.1297   H         1 RES1   0.0000
    84 C15E     2.8242   3.4582   8.9868   C.ar      1 RES1   0.0000
    85 H9E      4.6954   4.2547   8.8626   H         1 RES1   0.0000
    86 C18E     8.6873   4.8394  15.7699   C.ar      1 RES1   0.0000
    87 C22E     9.4456   6.8552  14.7574   C.ar      1 RES1   0.0000
    88 C27E     7.5892   8.1641   7.2013   C.2       1 RES1   0.0000
    89 H18E     7.4061   7.8364   9.0975   H         1 RES1   0.0000
    90 C14E     2.0871   2.4356   9.5170   C.ar      1 RES1   0.0000
    91 H6E      2.1848   0.7836  10.6872   H         1 RES1   0.0000
    92 H8E      2.4025   4.1185   8.4474   H         1 RES1   0.0000
    93 C19E     8.5196   5.5138  16.9701   C.ar      1 RES1   0.0000
    94 H10E     8.4834   3.9135  15.7141   H         1 RES1   0.0000
    95 C21E     9.2773   7.5216  15.9685   C.ar      1 RES1   0.0000
    96 H14E     9.7658   7.3322  14.0007   H         1 RES1   0.0000
    97 H19E     7.9826   7.8748   6.3880   H         1 RES1   0.0000
    98 H20E     7.0268   8.9309   7.2122   H         1 RES1   0.0000
    99 H7E      1.1569   2.3765   9.3366   H         1 RES1   0.0000
   100 C20E     8.8136   6.8467  17.0638   C.ar      1 RES1   0.0000
   101 H11E     8.1984   5.0442  17.7337   H         1 RES1   0.0000
   102 H13E     9.4829   8.4466  16.0329   H         1 RES1   0.0000
   103 H12E     8.6952   7.3031  17.8889   H         1 RES1   0.0000
   104 Cl1      3.2691   1.1583  -6.2018   Cl        2 RES2   0.0000
   105 C28      2.2147   2.1506  -5.2429   C.3       2 RES2   0.0000
   106 Cl1B     1.1603   1.1583  -4.2841   Cl        2 RES2   0.0000
@<TRIPOS>BOND
     1     1     2    1
     2     2     6    2
     3     3     1    1
     4     4     1    1
     5     5    29    1
     6     6    10    1
     7     7     2    1
     8     8     3    1
     9     9     3    1
    10    10    11    2
    11    11     7    1
    12    12     8    2
    13    13     9    2
    14    14     7    2
    15    15     6    1
    16    16    15    1
    17    17    16   ar
    18    18    17   ar
    19    19    18   ar
    20    20    19   ar
    21    21    16   ar
    22    22    14    1
    23    23    22   ar
    24    24    23   ar
    25    25    24   ar
    26    26    25   ar
    27    27    22   ar
    28    28     4    1
    29    29    28    2
    30    30     4    2
    31    31     5    1
    32    32    31    2
    33    33    10    1
    34    34    11    1
    35    35    12    1
    36    36    13    1
    37    37    17    1
    38    38    18    1
    39    39    19    1
    40    40    20    1
    41    41    21    1
    42    42    23    1
    43    43    24    1
    44    44    25    1
    45    45    26    1
    46    46    27    1
    47    47    28    1
    48    48    29    1
    49    49    30    1
    50    50    31    1
    51    51    32    1
    52    52    32    1
    53    53     1    1
    54    54     1    1
    55    55     1    1
    56    56     9    1
    57    57    15    2
    58    58    53    1
    59    59    53    2
    60    60    54    1
    61    61    55    1
    62    62    55    2
    63    63    56    1
    64    64    57    1
    65    65    58    1
    66    66    59    1
    67    67    59    1
    68    68    60    1
    69    69    61    2
    70    70    61    1
    71    71    62    1
    72    72    62    1
    73    73    63   ar
    74    74    63   ar
    75    75    64    1
    76    76    65    1
    77    77    66    1
    78    78    67    1
    79    79    68    1
    80    80    69    1
    81    81    71    1
    82    82    73   ar
    83    83    73    1
    84    84    74   ar
    85    85    74    1
    86    86    78   ar
    87    87    78   ar
    88    88    81    2
    89    89    81    1
    90    90    82   ar
    91    91    82    1
    92    92    84    1
    93    93    86   ar
    94    94    86    1
    95    95    87   ar
    96    96    87    1
    97    97    88    1
    98    98    88    1
    99    99    90    1
   100   100    93   ar
   101   101    93    1
   102   102    95    1
   103   103   100    1
   104     5    30    1
   105     8    14    1
   106    12    13    1
   107    20    21   ar
   108    26    27   ar
   109    54    57    1
   110    56    58    2
   111    60    67    2
   112    64    68    2
   113    65    66    2
   114    69    71    1
   115    84    90   ar
   116    95   100   ar
   117   104   105    1
   118   105   106    1
@<TRIPOS>SUBSTRUCTURE
     1 RES1        1 GROUP             0 ****  ****    0  
     2 RES2      104 GROUP             0 ****  ****    0  
@<TRIPOS>CRYSIN
   18.8710   11.6440   22.7660   90.0000  112.9000   90.0000    15     1
