@<TRIPOS>MOLECULE
JEGZEA
   121   136     1     0     0
SMALL
NO_CHARGES
****
Generated from the CSD

@<TRIPOS>ATOM
     1 Fe1      0.0000   0.0000   0.0000   Fe        1 RES1   0.0000
     2 N1       1.5525  -0.4784   1.1651   N.2       1 RES1   0.0000
     3 N2      -1.0384   0.5111   1.6140   N.2       1 RES1   0.0000
     4 N3       0.5569   1.9321  -0.1596   N.2       1 RES1   0.0000
     5 N4       0.8919   3.8626  -1.1751   N.pl3     1 RES1   0.0000
     6 C1       2.7212  -1.0811   0.7671   C.2       1 RES1   0.0000
     7 C2       1.6276  -0.3838   2.5278   C.2       1 RES1   0.0000
     8 C3      -0.6139   0.5120   2.9278   C.2       1 RES1   0.0000
     9 C4      -2.2863   1.0974   1.6559   C.2       1 RES1   0.0000
    10 C5       3.5490  -1.3720   1.9213   C.2       1 RES1   0.0000
    11 C6       2.8898  -0.9400   2.9946   C.2       1 RES1   0.0000
    12 C7      -1.6235   1.0620   3.7906   C.2       1 RES1   0.0000
    13 C8      -2.6547   1.4392   3.0006   C.2       1 RES1   0.0000
    14 C9       3.0794  -1.3851  -0.5347   C.2       1 RES1   0.0000
    15 C10      0.6375   0.0760   3.3747   C.2       1 RES1   0.0000
    16 C11      0.4790   2.9526   0.7691   C.2       1 RES1   0.0000
    17 C12      0.6627   4.1393   0.1456   C.2       1 RES1   0.0000
    18 C13      0.8135   2.5288  -1.3158   C.2       1 RES1   0.0000
    19 C14      1.0434   4.8113  -2.2814   C.3       1 RES1   0.0000
    20 C15     -0.2609   5.1968  -2.9457   C.ar      1 RES1   0.0000
    21 C16     -1.3511   4.3387  -3.0006   C.ar      1 RES1   0.0000
    22 C17     -2.5040   4.7025  -3.6939   C.ar      1 RES1   0.0000
    23 C18     -2.5580   5.9374  -4.3273   C.ar      1 RES1   0.0000
    24 C19     -1.4863   6.7945  -4.2655   C.ar      1 RES1   0.0000
    25 C20     -0.3499   6.4292  -3.5782   C.ar      1 RES1   0.0000
    26 C21      4.3460  -2.1412  -0.7731   C.ar      1 RES1   0.0000
    27 C22      5.5244  -1.5169  -1.1551   C.ar      1 RES1   0.0000
    28 C23      6.6649  -2.2572  -1.4195   C.ar      1 RES1   0.0000
    29 C24      6.6471  -3.6418  -1.3217   C.ar      1 RES1   0.0000
    30 C25      5.4804  -4.2721  -0.9497   C.ar      1 RES1   0.0000
    31 C26      4.3499  -3.5333  -0.6614   C.ar      1 RES1   0.0000
    32 C27      0.9329   0.1248   4.8400   C.ar      1 RES1   0.0000
    33 C28      0.5378  -0.9297   5.6650   C.ar      1 RES1   0.0000
    34 C29      0.8297  -0.9098   7.0316   C.ar      1 RES1   0.0000
    35 C30      1.4924   0.1723   7.5743   C.ar      1 RES1   0.0000
    36 C31      1.8933   1.2172   6.7623   C.ar      1 RES1   0.0000
    37 C32      1.6274   1.1865   5.3977   C.ar      1 RES1   0.0000
    38 H1       4.4020  -1.7922   1.9133   H         1 RES1   0.0000
    39 H2       3.1877  -0.9857   3.8954   H         1 RES1   0.0000
    40 H3      -1.5764   1.1439   4.7363   H         1 RES1   0.0000
    41 H4      -3.4647   1.8493   3.2809   H         1 RES1   0.0000
    42 H5       0.3210   2.8393   1.6988   H         1 RES1   0.0000
    43 H6       0.6390   4.9999   0.5467   H         1 RES1   0.0000
    44 H7       0.9284   2.0710  -2.1397   H         1 RES1   0.0000
    45 H8       1.5465   4.3549  -2.9457   H         1 RES1   0.0000
    46 H9       1.3811   5.6136  -1.8933   H         1 RES1   0.0000
    47 H10     -1.3108   3.4972  -2.5617   H         1 RES1   0.0000
    48 H11     -3.2461   4.1111  -3.7338   H         1 RES1   0.0000
    49 H12     -3.3396   6.1898  -4.8061   H         1 RES1   0.0000
    50 H13     -1.5298   7.6403  -4.6964   H         1 RES1   0.0000
    51 H14      0.3853   7.0293  -3.5373   H         1 RES1   0.0000
    52 H15      5.5503  -0.5706  -1.2350   H         1 RES1   0.0000
    53 H16      7.4669  -1.8138  -1.6709   H         1 RES1   0.0000
    54 H17      7.4285  -4.1480  -1.5083   H         1 RES1   0.0000
    55 H18      5.4531  -5.2196  -0.8918   H         1 RES1   0.0000
    56 H19      3.5602  -3.9807  -0.3821   H         1 RES1   0.0000
    57 H20      0.0675  -1.6660   5.2939   H         1 RES1   0.0000
    58 H21      0.5725  -1.6377   7.5843   H         1 RES1   0.0000
    59 H22      1.6738   0.1993   8.5070   H         1 RES1   0.0000
    60 H23      2.3527   1.9601   7.1374   H         1 RES1   0.0000
    61 H24      1.9243   1.8989   4.8440   H         1 RES1   0.0000
    62 N1A     -1.5525   0.4784  -1.1651   N.2       1 RES1   0.0000
    63 N2A      1.0384  -0.5111  -1.6140   N.2       1 RES1   0.0000
    64 N3A     -0.5569  -1.9321   0.1596   N.2       1 RES1   0.0000
    65 C9A     -3.0794   1.3851   0.5347   C.2       1 RES1   0.0000
    66 C4A      2.2863  -1.0974  -1.6559   C.2       1 RES1   0.0000
    67 C1A     -2.7212   1.0811  -0.7671   C.2       1 RES1   0.0000
    68 C2A     -1.6276   0.3838  -2.5278   C.2       1 RES1   0.0000
    69 C3A      0.6139  -0.5120  -2.9278   C.2       1 RES1   0.0000
    70 C11A    -0.4790  -2.9526  -0.7691   C.2       1 RES1   0.0000
    71 C13A    -0.8135  -2.5288   1.3158   C.2       1 RES1   0.0000
    72 C21A    -4.3460   2.1412   0.7731   C.ar      1 RES1   0.0000
    73 C8A      2.6547  -1.4392  -3.0006   C.2       1 RES1   0.0000
    74 C5A     -3.5490   1.3720  -1.9213   C.2       1 RES1   0.0000
    75 C6A     -2.8898   0.9400  -2.9946   C.2       1 RES1   0.0000
    76 C10A    -0.6375  -0.0760  -3.3747   C.2       1 RES1   0.0000
    77 C7A      1.6235  -1.0620  -3.7906   C.2       1 RES1   0.0000
    78 C12A    -0.6627  -4.1393  -0.1456   C.2       1 RES1   0.0000
    79 H5A     -0.3210  -2.8393  -1.6988   H         1 RES1   0.0000
    80 N4A     -0.8919  -3.8626   1.1751   N.pl3     1 RES1   0.0000
    81 H7A     -0.9284  -2.0710   2.1397   H         1 RES1   0.0000
    82 C22A    -5.5244   1.5169   1.1551   C.ar      1 RES1   0.0000
    83 C26A    -4.3499   3.5333   0.6614   C.ar      1 RES1   0.0000
    84 H4A      3.4647  -1.8493  -3.2809   H         1 RES1   0.0000
    85 H1A     -4.4020   1.7922  -1.9133   H         1 RES1   0.0000
    86 H2A     -3.1877   0.9857  -3.8954   H         1 RES1   0.0000
    87 C27A    -0.9329  -0.1248  -4.8400   C.ar      1 RES1   0.0000
    88 H3A      1.5764  -1.1439  -4.7363   H         1 RES1   0.0000
    89 H6A     -0.6390  -4.9999  -0.5467   H         1 RES1   0.0000
    90 C14A    -1.0434  -4.8113   2.2814   C.3       1 RES1   0.0000
    91 C23A    -6.6649   2.2572   1.4195   C.ar      1 RES1   0.0000
    92 H15A    -5.5503   0.5706   1.2350   H         1 RES1   0.0000
    93 C25A    -5.4804   4.2721   0.9497   C.ar      1 RES1   0.0000
    94 H19A    -3.5602   3.9807   0.3821   H         1 RES1   0.0000
    95 C28A    -0.5378   0.9297  -5.6650   C.ar      1 RES1   0.0000
    96 C32A    -1.6274  -1.1865  -5.3977   C.ar      1 RES1   0.0000
    97 C15A     0.2609  -5.1968   2.9457   C.ar      1 RES1   0.0000
    98 H8A     -1.5465  -4.3549   2.9457   H         1 RES1   0.0000
    99 H9A     -1.3811  -5.6136   1.8933   H         1 RES1   0.0000
   100 C24A    -6.6471   3.6418   1.3217   C.ar      1 RES1   0.0000
   101 H16A    -7.4669   1.8138   1.6709   H         1 RES1   0.0000
   102 H18A    -5.4531   5.2196   0.8918   H         1 RES1   0.0000
   103 C29A    -0.8297   0.9098  -7.0316   C.ar      1 RES1   0.0000
   104 H20A    -0.0675   1.6660  -5.2939   H         1 RES1   0.0000
   105 C31A    -1.8933  -1.2172  -6.7623   C.ar      1 RES1   0.0000
   106 H24A    -1.9243  -1.8989  -4.8440   H         1 RES1   0.0000
   107 C16A     1.3511  -4.3387   3.0006   C.ar      1 RES1   0.0000
   108 C20A     0.3499  -6.4292   3.5782   C.ar      1 RES1   0.0000
   109 H17A    -7.4285   4.1480   1.5083   H         1 RES1   0.0000
   110 C30A    -1.4924  -0.1723  -7.5743   C.ar      1 RES1   0.0000
   111 H21A    -0.5725   1.6377  -7.5843   H         1 RES1   0.0000
   112 H23A    -2.3527  -1.9601  -7.1374   H         1 RES1   0.0000
   113 C17A     2.5040  -4.7025   3.6939   C.ar      1 RES1   0.0000
   114 H10A     1.3108  -3.4972   2.5617   H         1 RES1   0.0000
   115 C19A     1.4863  -6.7945   4.2655   C.ar      1 RES1   0.0000
   116 H14A    -0.3853  -7.0293   3.5373   H         1 RES1   0.0000
   117 H22A    -1.6738  -0.1993  -8.5070   H         1 RES1   0.0000
   118 C18A     2.5580  -5.9374   4.3273   C.ar      1 RES1   0.0000
   119 H11A     3.2461  -4.1111   3.7338   H         1 RES1   0.0000
   120 H13A     1.5298  -7.6403   4.6964   H         1 RES1   0.0000
   121 H12A     3.3396  -6.1898   4.8061   H         1 RES1   0.0000
@<TRIPOS>BOND
     1     1     2    1
     2     2     6    2
     3     3     1    1
     4     4     1    1
     5     5    17    1
     6     6    10    1
     7     7     2    1
     8     8     3    1
     9     9     3    1
    10    10    11    2
    11    11     7    1
    12    12     8    2
    13    13     9    2
    14    14     6    1
    15    15     7    2
    16    16     4    1
    17    17    16    2
    18    18     4    2
    19    19     5    1
    20    20    19    1
    21    21    20   ar
    22    22    21   ar
    23    23    22   ar
    24    24    23   ar
    25    25    20   ar
    26    26    14    1
    27    27    26   ar
    28    28    27   ar
    29    29    28   ar
    30    30    29   ar
    31    31    26   ar
    32    32    15    1
    33    33    32   ar
    34    34    33   ar
    35    35    34   ar
    36    36    35   ar
    37    37    32   ar
    38    38    10    1
    39    39    11    1
    40    40    12    1
    41    41    13    1
    42    42    16    1
    43    43    17    1
    44    44    18    1
    45    45    19    1
    46    46    19    1
    47    47    21    1
    48    48    22    1
    49    49    23    1
    50    50    24    1
    51    51    25    1
    52    52    27    1
    53    53    28    1
    54    54    29    1
    55    55    30    1
    56    56    31    1
    57    57    33    1
    58    58    34    1
    59    59    35    1
    60    60    36    1
    61    61    37    1
    62    62     1    1
    63    63     1    1
    64    64     1    1
    65    65     9    1
    66    66    14    2
    67    67    62    1
    68    68    62    2
    69    69    63    1
    70    70    64    1
    71    71    64    2
    72    72    65    1
    73    73    66    1
    74    74    67    1
    75    75    68    1
    76    76    68    1
    77    77    69    1
    78    78    70    2
    79    79    70    1
    80    80    71    1
    81    81    71    1
    82    82    72   ar
    83    83    72   ar
    84    84    73    1
    85    85    74    1
    86    86    75    1
    87    87    76    1
    88    88    77    1
    89    89    78    1
    90    90    80    1
    91    91    82   ar
    92    92    82    1
    93    93    83   ar
    94    94    83    1
    95    95    87   ar
    96    96    87   ar
    97    97    90    1
    98    98    90    1
    99    99    90    1
   100   100    91   ar
   101   101    91    1
   102   102    93    1
   103   103    95   ar
   104   104    95    1
   105   105    96   ar
   106   106    96    1
   107   107    97   ar
   108   108    97   ar
   109   109   100    1
   110   110   103   ar
   111   111   103    1
   112   112   105    1
   113   113   107   ar
   114   114   107    1
   115   115   108   ar
   116   116   108    1
   117   117   110    1
   118   118   113   ar
   119   119   113    1
   120   120   115    1
   121   121   118    1
   122     5    18    1
   123     8    15    1
   124    12    13    1
   125    24    25   ar
   126    30    31   ar
   127    36    37   ar
   128    63    66    1
   129    65    67    2
   130    69    76    2
   131    73    77    2
   132    74    75    2
   133    78    80    1
   134    93   100   ar
   135   105   110   ar
   136   115   118   ar
@<TRIPOS>SUBSTRUCTURE
     1 RES1        1 GROUP             0 ****  ****    0  
@<TRIPOS>CRYSIN
   10.9520   11.4020   10.8030  104.0200  105.2400   97.6500     2     1
