@<TRIPOS>MOLECULE
JEJQOI
   102   106     6     0     0
SMALL
USER_CHARGES
****
Generated from the CSD

@<TRIPOS>ATOM
     1 Fe1     13.4330   9.7020   3.4638   Fe        1 RES1   2.0000
     2 O1      10.0305   8.0246  -1.9437   O.2       1 RES1   0.0000
     3 O2      11.6799   6.5570  -1.4761   O.3       1 RES1   0.0000
     4 H1      11.1920   6.0111  -1.8460   H         1 RES1   0.0000
     5 O3       7.5177   9.9813   4.7566   O.3       1 RES1   0.0000
     6 H2       7.0434  10.0719   5.4199   H         1 RES1   0.0000
     7 O4      15.5327  14.2899   7.8284   O.3       1 RES1   0.0000
     8 H3      16.2074  14.5171   8.2357   H         1 RES1   0.0000
     9 N1      13.6800  12.4697   4.5515   N.pl3     1 RES1   0.0000
    10 O5       7.2218   7.7809   4.8421   O.2       1 RES1   0.0000
    11 N2      13.5578   7.6351   3.9789   N.ar      1 RES1   0.0000
    12 N3      11.5837   9.1229   4.2475   N.2       1 RES1   0.0000
    13 N4      15.8147   7.8769   3.5016   N.pl3     1 RES1   0.0000
    14 N5      12.8054  11.5560   2.7055   N.ar      1 RES1   0.0000
    15 N6      11.4324   7.8104   4.4575   N.pl3     1 RES1   0.0000
    16 N7      12.0892  10.3394   0.9206   N.pl3     1 RES1   0.0000
    17 N8      14.0406  11.1683   4.8861   N.2       1 RES1   0.0000
    18 O6      16.0860  12.2224   8.3827   O.2       1 RES1   0.0000
    19 O7      19.1570  10.2139   1.8094   O.3       1 RES1   0.0000
    20 H4      19.8220  10.2385   1.3305   H         1 RES1   0.0000
    21 N9      15.5099   9.1931   3.2696   N.2       1 RES1   0.0000
    22 C1      12.1784  11.6003   1.5591   C.ar      1 RES1   0.0000
    23 C2      12.5070   7.0203   4.4868   C.ar      1 RES1   0.0000
    24 N10     12.7874   9.2798   1.4944   N.2       1 RES1   0.0000
    25 C3      11.6614   8.5931  -0.3052   C.2       1 RES1   0.0000
    26 C4      14.7215   7.0702   3.9277   C.ar      1 RES1   0.0000
    27 C5      14.7218  11.2237   6.0239   C.2       1 RES1   0.0000
    28 H5      15.0628  10.4884   6.4797   H         1 RES1   0.0000
    29 C6      13.0163  12.6617   3.3587   C.ar      1 RES1   0.0000
    30 C7      10.3755   9.6158   4.3586   C.2       1 RES1   0.0000
    31 H6      10.1534  10.5161   4.2828   H         1 RES1   0.0000
    32 C8      14.8541  12.5565   6.4378   C.2       1 RES1   0.0000
    33 C9       8.0242   8.7408   4.7371   C.2       1 RES1   0.0000
    34 C10     10.1969   7.4911   4.6370   C.2       1 RES1   0.0000
    35 H7       9.8752   6.6285   4.7659   H         1 RES1   0.0000
    36 C11      9.4664   8.5784   4.6089   C.2       1 RES1   0.0000
    37 O8      19.8610   8.2165   2.3771   O.2       1 RES1   0.0000
    38 C12     16.6532   9.7210   2.8655   C.2       1 RES1   0.0000
    39 H8      16.7558  10.6070   2.6000   H         1 RES1   0.0000
    40 C13     11.0223   7.6886  -1.3051   C.2       1 RES1   0.0000
    41 C14     12.5400   8.2424   0.7264   C.2       1 RES1   0.0000
    42 H9      12.8994   7.3938   0.8499   H         1 RES1   0.0000
    43 C15     12.5754   5.7134   4.9447   C.ar      1 RES1   0.0000
    44 H10     11.8307   5.2585   5.2641   H         1 RES1   0.0000
    45 C16     11.6986  12.7226   0.9804   C.ar      1 RES1   0.0000
    46 H11     11.2716  12.7261   0.1535   H         1 RES1   0.0000
    47 C17     12.5498  13.9022   2.9216   C.ar      1 RES1   0.0000
    48 H12     12.6794  14.6815   3.4141   H         1 RES1   0.0000
    49 C18     14.1781  13.3244   5.5026   C.2       1 RES1   0.0000
    50 H13     14.0787  14.2488   5.5163   H         1 RES1   0.0000
    51 C19     17.6988   8.7703   2.8899   C.2       1 RES1   0.0000
    52 C20     13.8144   5.1411   4.8958   C.ar      1 RES1   0.0000
    53 H14     13.9071   4.2799   5.2315   H         1 RES1   0.0000
    54 C21     11.4232   9.9407  -0.1502   C.2       1 RES1   0.0000
    55 H15     10.8912  10.4727  -0.6972   H         1 RES1   0.0000
    56 C22     14.8962   5.7355   4.3977   C.ar      1 RES1   0.0000
    57 H16     15.7194   5.3042   4.3600   H         1 RES1   0.0000
    58 C23     11.9072  13.9004   1.7569   C.ar      1 RES1   0.0000
    59 H17     11.5765  14.7079   1.4331   H         1 RES1   0.0000
    60 C24     17.0930   7.6591   3.2317   C.2       1 RES1   0.0000
    61 H18     17.5061   6.8269   3.2782   H         1 RES1   0.0000
    62 C25     15.5545  12.9958   7.6355   C.2       1 RES1   0.0000
    63 C26     19.0185   9.0048   2.3051   C.2       1 RES1   0.0000
    64 Cl1     10.4150   4.9639   1.8057   Cl        2 RES2   0.0000
    65 O9      10.2162   4.4618   3.1634   O.3       2 RES2  -1.0000
    66 O10      9.7098   6.1915   1.6861   O.2       2 RES2   0.0000
    67 O11      9.8858   4.0483   0.9084   O.2       2 RES2   0.0000
    68 O12     11.7898   5.1245   1.5652   O.2       2 RES2   0.0000
    69 Cl2     16.6786   6.5201  -0.1844   Cl        3 RES3   0.0000
    70 O13     17.5422   7.6203  -0.0513   O.2       3 RES3   0.0000
    71 O14     16.7631   6.0346  -1.4565   O.2       3 RES3   0.0000
    72 O15     16.9466   5.6063   0.7960   O.2       3 RES3   0.0000
    73 O16     15.3195   6.9096  -0.0317   O.3       3 RES3  -1.0000
    74 O17     14.3678   8.1169   6.9018   O.2       4 RES4   0.0000
    75 C27     14.3312   6.1933   8.3144   C.3       4 RES4   0.0000
    76 H19     14.5285   6.3517   9.2401   H         4 RES4   0.0000
    77 H20     14.6408   5.3189   8.0660   H         4 RES4   0.0000
    78 H21     13.3834   6.2489   8.1744   H         4 RES4   0.0000
    79 C28     15.0137   7.2105   7.4842   C.2       4 RES4   0.0000
    80 C29     16.4928   7.0886   7.3157   C.3       4 RES4   0.0000
    81 H22     16.8003   7.7540   6.6970   H         4 RES4   0.0000
    82 H23     16.7039   6.2146   6.9776   H         4 RES4   0.0000
    83 H24     16.9223   7.2154   8.1643   H         4 RES4   0.0000
    84 O18     13.8015  11.3880  -1.2526   O.2       5 RES5   0.0000
    85 C30     14.7393  10.6311  -1.3882   C.2       5 RES5   0.0000
    86 C31     15.9220  10.7105  -0.5738   C.3       5 RES5   0.0000
    87 H25     16.6605  11.0076  -1.1101   H         5 RES5   0.0000
    88 H26     16.1185   9.8434  -0.2110   H         5 RES5   0.0000
    89 H27     15.7758  11.3317   0.1429   H         5 RES5   0.0000
    90 C32     14.8388   9.5383  -2.4711   C.3       5 RES5   0.0000
    91 H28     14.7592   8.6738  -2.0609   H         5 RES5   0.0000
    92 H29     15.6877   9.6043  -2.9152   H         5 RES5   0.0000
    93 H30     14.1330   9.6557  -3.1104   H         5 RES5   0.0000
    94 O19     17.0024  12.8611   3.8678   O.2       6 RES6   0.0000
    95 C33     18.5035  13.8782   5.6040   C.3       6 RES6   0.0000
    96 H31     19.2932  14.4227   5.5476   H         6 RES6   0.0000
    97 H32     17.8184  14.3529   6.0749   H         6 RES6   0.0000
    98 H33     18.7082  13.0623   6.0622   H         6 RES6   0.0000
    99 C34     18.9256  13.8561   3.0913   C.2       6 RES6   0.0000
   100 H34     18.7550  13.5461   2.2320   H         6 RES6   0.0000
   101 H35     19.6860  14.3650   3.2602   H         6 RES6   0.0000
   102 C35     18.0086  13.5496   4.1633   C.2       6 RES6   0.0000
@<TRIPOS>BOND
     1     1    11    1
     2     2    40    2
     3     3     4    1
     4     5     6    1
     5     7     8    1
     6     9    17    1
     7    10    33    2
     8    11    23   ar
     9    12     1    1
    10    13    21    1
    11    14     1    1
    12    15    12    1
    13    16    22    1
    14    17     1    1
    15    18    62    2
    16    19    20    1
    17    21     1    1
    18    22    14   ar
    19    23    15    1
    20    24     1    1
    21    25    40    1
    22    26    11   ar
    23    27    17    2
    24    28    27    1
    25    29     9    1
    26    30    12    2
    27    31    30    1
    28    32    27    1
    29    33     5    1
    30    34    15    1
    31    35    34    1
    32    36    30    1
    33    37    63    2
    34    38    21    2
    35    39    38    1
    36    40     3    1
    37    41    24    2
    38    42    41    1
    39    43    23   ar
    40    44    43    1
    41    45    22   ar
    42    46    45    1
    43    47    29   ar
    44    48    47    1
    45    49     9    1
    46    50    49    1
    47    51    38    1
    48    52    43   ar
    49    53    52    1
    50    54    16    1
    51    55    54    1
    52    56    26   ar
    53    57    56    1
    54    58    45   ar
    55    59    58    1
    56    60    13    1
    57    61    60    1
    58    62     7    1
    59    63    19    1
    60    13    26    1
    61    14    29   ar
    62    16    24    1
    63    25    41    1
    64    25    54    2
    65    32    49    2
    66    32    62    1
    67    33    36    1
    68    34    36    2
    69    47    58   ar
    70    51    60    2
    71    51    63    1
    72    52    56   ar
    73    64    65    1
    74    66    64    2
    75    67    64    2
    76    68    64    2
    77    69    70    2
    78    71    69    2
    79    72    69    2
    80    73    69    1
    81    74    79    2
    82    75    76    1
    83    77    75    1
    84    78    75    1
    85    79    75    1
    86    80    79    1
    87    81    80    1
    88    82    80    1
    89    83    80    1
    90    84    85    2
    91    85    86    1
    92    86    87    1
    93    88    86    1
    94    89    86    1
    95    90    85    1
    96    91    90    1
    97    92    90    1
    98    93    90    1
    99    94   102    2
   100    95    96    1
   101    97    95    1
   102    98    95    1
   103    99   100    1
   104   101    99    1
   105   102    95    1
   106    99   102    1
@<TRIPOS>SUBSTRUCTURE
     1 RES1        1 GROUP             0 ****  ****    0  
     2 RES2       64 GROUP             0 ****  ****    0  
     3 RES3       69 GROUP             0 ****  ****    0  
     4 RES4       74 GROUP             0 ****  ****    0  
     5 RES5       84 GROUP             0 ****  ****    0  
     6 RES6       94 GROUP             0 ****  ****    0  
@<TRIPOS>CRYSIN
   19.3280   18.4600   12.2091   90.0000   90.1500   90.0000    14     1
