@<TRIPOS>MOLECULE
JEJQOI01
   103   107     6     0     0
SMALL
USER_CHARGES
****
Generated from the CSD

@<TRIPOS>ATOM
     1 Fe1      5.9384   9.5313   9.4771   Fe        1 RES1   2.0000
     2 O1       7.5270   6.2644  14.3707   O.3       1 RES1   0.0000
     3 H1       7.7661   5.9193  15.0748   H         1 RES1   0.0000
     4 O2       9.0670   7.7765  14.8871   O.2       1 RES1   0.0000
     5 O3       3.6551  13.5909   4.9170   O.3       1 RES1   0.0000
     6 H2       2.9873  13.7455   4.4674   H         1 RES1   0.0000
     7 O4       3.3237  11.4668   4.3721   O.2       1 RES1   0.0000
     8 O5       0.4369  10.6207  11.5464   O.3       1 RES1   0.0000
     9 H3      -0.3281  10.9054  11.6222   H         1 RES1   0.0000
    10 O6      -0.5303   8.9088  10.4553   O.2       1 RES1   0.0000
    11 O7      11.6985  10.0411   7.9995   O.3       1 RES1   0.0000
    12 H4      12.5143  10.0593   7.9257   H         1 RES1   0.0000
    13 O8      11.9747   7.8737   7.5778   O.2       1 RES1   0.0000
    14 N1       6.5961   8.9808  11.2493   N.2       1 RES1   0.0000
    15 N2       7.1527  10.0465  11.9499   N.pl3     1 RES1   0.0000
    16 N3       6.3927  11.2291  10.1959   N.ar      1 RES1   0.0000
    17 N4       5.5689  12.0338   8.2511   N.pl3     1 RES1   0.0000
    18 N5       5.3721  10.6873   7.9826   N.2       1 RES1   0.0000
    19 N6       7.7146   9.1536   8.7091   N.2       1 RES1   0.0000
    20 N7       7.8107   7.8287   8.2706   N.pl3     1 RES1   0.0000
    21 N8       5.6135   7.7999   8.7688   N.ar      1 RES1   0.0000
    22 N9       3.5052   8.1365   9.4642   N.pl3     1 RES1   0.0000
    23 N10      4.0485   9.3066   9.9675   N.2       1 RES1   0.0000
    24 C1       6.8416   7.9133  12.0147   C.2       1 RES1   0.0000
    25 H5       6.5704   7.0474  11.8143   H         1 RES1   0.0000
    26 C2       7.5582   8.2716  13.1499   C.2       1 RES1   0.0000
    27 C3       7.7529   9.6198  13.0825   C.2       1 RES1   0.0000
    28 H6       8.2118  10.1456  13.6973   H         1 RES1   0.0000
    29 C4       8.1202   7.4219  14.2267   C.2       1 RES1   0.0000
    30 C5       7.0194  11.3228  11.3790   C.ar      1 RES1   0.0000
    31 C6       7.4519  12.5090  11.9019   C.ar      1 RES1   0.0000
    32 H7       7.8812  12.5511  12.7257   H         1 RES1   0.0000
    33 C7       7.2200  13.6521  11.1390   C.ar      1 RES1   0.0000
    34 H8       7.5025  14.4789  11.4579   H         1 RES1   0.0000
    35 C8       6.5781  13.5783   9.9195   C.ar      1 RES1   0.0000
    36 H9       6.4129  14.3425   9.4162   H         1 RES1   0.0000
    37 C9       6.1951  12.3488   9.4771   C.ar      1 RES1   0.0000
    38 C10      5.0231  12.8151   7.2781   C.2       1 RES1   0.0000
    39 H10      5.0209  13.7449   7.2425   H         1 RES1   0.0000
    40 C11      4.4749  11.9510   6.3583   C.2       1 RES1   0.0000
    41 C12      4.7000  10.6603   6.8630   C.2       1 RES1   0.0000
    42 H11      4.4078   9.8797   6.4503   H         1 RES1   0.0000
    43 C13      3.7635  12.3056   5.1103   C.2       1 RES1   0.0000
    44 C14      8.9183   9.6378   8.5949   C.2       1 RES1   0.0000
    45 H12      9.1514  10.5113   8.8109   H         1 RES1   0.0000
    46 C15      9.8393   8.6622   8.0993   C.2       1 RES1   0.0000
    47 C16      9.0713   7.5371   7.9268   C.2       1 RES1   0.0000
    48 H13      9.3749   6.7127   7.6218   H         1 RES1   0.0000
    49 C17     11.2674   8.7828   7.8684   C.2       1 RES1   0.0000
    50 C18      6.6161   7.1015   8.2537   C.ar      1 RES1   0.0000
    51 C19      6.4476   5.8234   7.7179   C.ar      1 RES1   0.0000
    52 H14      7.1483   5.3598   7.3187   H         1 RES1   0.0000
    53 C20      5.1761   5.2906   7.8191   C.ar      1 RES1   0.0000
    54 H15      5.0216   4.4319   7.4985   H         1 RES1   0.0000
    55 C21      4.1303   5.9962   8.3796   C.ar      1 RES1   0.0000
    56 H16      3.2738   5.6344   8.4294   H         1 RES1   0.0000
    57 C22      4.4042   7.2419   8.8544   C.ar      1 RES1   0.0000
    58 C23      2.1726   8.0933   9.6614   C.2       1 RES1   0.0000
    59 H17      1.6008   7.4039   9.4094   H         1 RES1   0.0000
    60 C24      1.8084   9.2616  10.3087   C.2       1 RES1   0.0000
    61 C25      3.0128   9.9385  10.4839   C.2       1 RES1   0.0000
    62 H18      3.0787  10.7570  10.9213   H         1 RES1   0.0000
    63 C26      0.4323   9.5226  10.7524   C.2       1 RES1   0.0000
    64 Cl1     10.2362  13.7587   8.4778   Cl        2 RES2   0.0000
    65 O9       9.6541  15.0544   8.3575   O.2       2 RES2   0.0000
    66 O10      9.5514  12.8619   7.6634   O.2       2 RES2   0.0000
    67 O11     11.6055  13.7925   8.1564   O.2       2 RES2   0.0000
    68 O12     10.1379  13.3425   9.8391   O.3       2 RES2  -1.0000
    69 Cl2      2.4253   6.1460  12.8930   Cl        3 RES3   0.0000
    70 O13      3.7210   6.6190  12.8801   O.2       3 RES3   0.0000
    71 O14      1.4608   7.1357  12.7724   O.3       3 RES3  -1.0000
    72 O15      2.1731   5.4022  13.9439   O.2       3 RES3   0.0000
    73 O16      2.3930   5.3950  11.7968   O.2       3 RES3   0.0000
    74 O17      5.2429  11.1139  14.1502   O.2       4 RES4   0.0000
    75 C27      4.7132   9.1932  15.3762   C.3       4 RES4   0.0000
    76 H19      3.9265   8.6625  15.5204   H         4 RES4   0.0000
    77 H20      5.3991   8.6481  14.9830   H         4 RES4   0.0000
    78 H21      5.0236   9.5395  16.2166   H         4 RES4   0.0000
    79 C28      4.3918  10.3183  14.4667   C.2       4 RES4   0.0000
    80 C29      3.0003  10.4605  14.0256   C.3       4 RES4   0.0000
    81 H22      2.4217  10.4830  14.7915   H         4 RES4   0.0000
    82 H23      2.7624   9.7168  13.4669   H         4 RES4   0.0000
    83 H24      2.9035  11.2770  13.5285   H         4 RES4   0.0000
    84 O18      4.8863   7.7567   5.4657   O.2       5 RES5   0.0000
    85 C30      4.6909   5.8828   4.0451   C.3       5 RES5   0.0000
    86 H25      5.6496   5.9189   4.0394   H         5 RES5   0.0000
    87 H26      4.3610   5.9713   3.1482   H         5 RES5   0.0000
    88 H27      4.4036   5.0431   4.4108   H         5 RES5   0.0000
    89 C31      4.1578   6.9935   4.8806   C.2       5 RES5   0.0000
    90 C32      2.6889   7.1447   4.9442   C.3       5 RES5   0.0000
    91 H28      2.4647   7.8213   5.5879   H         5 RES5   0.0000
    92 H29      2.2929   6.3106   5.2060   H         5 RES5   0.0000
    93 H30      2.3556   7.4011   4.0815   H         5 RES5   0.0000
    94 O19      2.3105  12.8493   9.1217   O.2       6 RES6   0.0000
    95 C33      0.3210  13.9761   9.6056   C.3       6 RES6   0.0000
    96 H31      0.7797  14.1866  10.4220   H         6 RES6   0.0000
    97 H32     -0.4356  13.4168   9.7992   H         6 RES6   0.0000
    98 H33      0.0205  14.7868   9.1888   H         6 RES6   0.0000
    99 C34      1.2212  13.2759   8.7104   C.2       6 RES6   0.0000
   100 C35      0.7589  12.7863   7.3923   C.3       6 RES6   0.0000
   101 H34      0.9734  11.8537   7.3054   H         6 RES6   0.0000
   102 H35      1.1963  13.2805   6.6954   H         6 RES6   0.0000
   103 H36     -0.1903  12.9039   7.3223   H         6 RES6   0.0000
@<TRIPOS>BOND
     1     1    14    1
     2     2     3    1
     3     4    29    2
     4     5     6    1
     5     7    43    2
     6     8     9    1
     7    10    63    2
     8    11    12    1
     9    13    49    2
    10    14    15    1
    11    15    27    1
    12    16     1    1
    13    17    18    1
    14    18     1    1
    15    19     1    1
    16    20    19    1
    17    21     1    1
    18    22    23    1
    19    23     1    1
    20    24    14    2
    21    25    24    1
    22    26    24    1
    23    27    26    2
    24    28    27    1
    25    29     2    1
    26    30    15    1
    27    31    30   ar
    28    32    31    1
    29    33    31   ar
    30    34    33    1
    31    35    33   ar
    32    36    35    1
    33    37    16   ar
    34    38    17    1
    35    39    38    1
    36    40    38    2
    37    41    18    2
    38    42    41    1
    39    43     5    1
    40    44    19    2
    41    45    44    1
    42    46    44    1
    43    47    20    1
    44    48    47    1
    45    49    11    1
    46    50    20    1
    47    51    50   ar
    48    52    51    1
    49    53    51   ar
    50    54    53    1
    51    55    53   ar
    52    56    55    1
    53    57    21   ar
    54    58    22    1
    55    59    58    1
    56    60    58    2
    57    61    23    2
    58    62    61    1
    59    63     8    1
    60    16    30   ar
    61    17    37    1
    62    21    50   ar
    63    22    57    1
    64    26    29    1
    65    35    37   ar
    66    40    41    1
    67    40    43    1
    68    46    47    2
    69    46    49    1
    70    55    57   ar
    71    60    61    1
    72    60    63    1
    73    64    65    2
    74    66    64    2
    75    67    64    2
    76    68    64    1
    77    69    70    2
    78    71    69    1
    79    72    69    2
    80    73    69    2
    81    74    79    2
    82    75    76    1
    83    77    75    1
    84    78    75    1
    85    79    75    1
    86    80    79    1
    87    81    80    1
    88    82    80    1
    89    83    80    1
    90    84    89    2
    91    85    86    1
    92    87    85    1
    93    88    85    1
    94    89    85    1
    95    90    89    1
    96    91    90    1
    97    92    90    1
    98    93    90    1
    99    94    99    2
   100    95    96    1
   101    97    95    1
   102    98    95    1
   103    99    95    1
   104   100    99    1
   105   101   100    1
   106   102   100    1
   107   103   100    1
@<TRIPOS>SUBSTRUCTURE
     1 RES1        1 GROUP             0 ****  ****    0  
     2 RES2       64 GROUP             0 ****  ****    0  
     3 RES3       69 GROUP             0 ****  ****    0  
     4 RES4       74 GROUP             0 ****  ****    0  
     5 RES5       84 GROUP             0 ****  ****    0  
     6 RES6       94 GROUP             0 ****  ****    0  
@<TRIPOS>CRYSIN
   19.3947   18.0012   12.9743   90.0000   90.6420   90.0000    14     1
