@<TRIPOS>MOLECULE
JEKGOY
    80    90     2     0     0
SMALL
USER_CHARGES
****
Generated from the CSD

@<TRIPOS>ATOM
     1 Fe1      9.9756   9.9870  13.4788   Fe        1 RES1   2.0000
     2 N1       8.0944  10.0888  14.0019   N.ar      1 RES1   0.0000
     3 N2       9.4282  11.3667  12.1810   N.ar      1 RES1   0.0000
     4 C1       8.2524  13.2555  10.4895   C.ar      1 RES1   0.0000
     5 H1       7.8752  13.8821   9.9150   H         1 RES1   0.0000
     6 C2       8.1072  11.6840  12.2749   C.ar      1 RES1   0.0000
     7 C3       5.3868  10.5380  14.4857   C.ar      1 RES1   0.0000
     8 H2       4.4845  10.6791  14.6631   H         1 RES1   0.0000
     9 C4       7.3796  10.9854  13.2725   C.ar      1 RES1   0.0000
    10 C5       7.4709  12.6186  11.4629   C.ar      1 RES1   0.0000
    11 C6       6.0865  12.8739  11.6893   C.ar      1 RES1   0.0000
    12 H3       5.6465  13.5005  11.1604   H         1 RES1   0.0000
    13 C7       7.4426   9.4263  14.9507   C.ar      1 RES1   0.0000
    14 H4       7.9059   8.8005  15.4575   H         1 RES1   0.0000
    15 C8       6.0985   9.6314  15.2143   C.ar      1 RES1   0.0000
    16 H5       5.6800   9.1493  15.8906   H         1 RES1   0.0000
    17 C9      10.1324  12.0068  11.2546   C.ar      1 RES1   0.0000
    18 H6      11.0407  11.8205  11.1748   H         1 RES1   0.0000
    19 C10      9.5661  12.9427  10.3997   C.ar      1 RES1   0.0000
    20 H7      10.0956  13.3593   9.7586   H         1 RES1   0.0000
    21 C11      5.4019  12.2281  12.6492   C.ar      1 RES1   0.0000
    22 H8       4.5011  12.4257  12.7761   H         1 RES1   0.0000
    23 C12      6.0222  11.2513  13.4750   C.ar      1 RES1   0.0000
    24 N3      10.4200   8.5055  14.6996   N.ar      1 RES1   0.0000
    25 C13     10.2351   7.2813  14.1364   C.ar      1 RES1   0.0000
    26 C14     10.9097   8.5295  15.9326   C.ar      1 RES1   0.0000
    27 H9      11.0435   9.3548  16.3417   H         1 RES1   0.0000
    28 C15     10.5147   6.0751  14.7869   C.ar      1 RES1   0.0000
    29 C16     11.2295   7.3825  16.6391   C.ar      1 RES1   0.0000
    30 H10     11.5775   7.4491  17.4990   H         1 RES1   0.0000
    31 C17     11.0354   6.1654  16.0818   C.ar      1 RES1   0.0000
    32 H11     11.2458   5.3943  16.5555   H         1 RES1   0.0000
    33 C18     10.2387   4.8671  14.0918   C.ar      1 RES1   0.0000
    34 H12     10.4310   4.0553  14.5032   H         1 RES1   0.0000
    35 N3A      9.5311   8.5055  12.2580   N.ar      1 RES1   0.0000
    36 C13A     9.7160   7.2813  12.8212   C.ar      1 RES1   0.0000
    37 C14A     9.0414   8.5295  11.0249   C.ar      1 RES1   0.0000
    38 H9A      8.9076   9.3548  10.6159   H         1 RES1   0.0000
    39 C15A     9.4364   6.0751  12.1706   C.ar      1 RES1   0.0000
    40 C16A     8.7216   7.3825  10.3185   C.ar      1 RES1   0.0000
    41 H10A     8.3736   7.4491   9.4585   H         1 RES1   0.0000
    42 C17A     8.9158   6.1654  10.8758   C.ar      1 RES1   0.0000
    43 H11A     8.7053   5.3943  10.4020   H         1 RES1   0.0000
    44 C18A     9.7124   4.8671  12.8658   C.ar      1 RES1   0.0000
    45 H12A     9.5201   4.0553  12.4544   H         1 RES1   0.0000
    46 N1A     11.8567  10.0888  12.9556   N.ar      1 RES1   0.0000
    47 N2A     10.5229  11.3667  14.7765   N.ar      1 RES1   0.0000
    48 C1A     11.6987  13.2555  16.4680   C.ar      1 RES1   0.0000
    49 H1A     12.0759  13.8821  17.0426   H         1 RES1   0.0000
    50 C2A     11.8439  11.6840  14.6827   C.ar      1 RES1   0.0000
    51 C3A     14.5643  10.5380  12.4718   C.ar      1 RES1   0.0000
    52 H2A     15.4666  10.6791  12.2944   H         1 RES1   0.0000
    53 C4A     12.5715  10.9854  13.6851   C.ar      1 RES1   0.0000
    54 C5A     12.4802  12.6186  15.4947   C.ar      1 RES1   0.0000
    55 C6A     13.8646  12.8739  15.2682   C.ar      1 RES1   0.0000
    56 H3A     14.3046  13.5005  15.7971   H         1 RES1   0.0000
    57 C7A     12.5085   9.4263  12.0069   C.ar      1 RES1   0.0000
    58 H4A     12.0452   8.8005  11.5001   H         1 RES1   0.0000
    59 C8A     13.8526   9.6314  11.7432   C.ar      1 RES1   0.0000
    60 H5A     14.2711   9.1493  11.0670   H         1 RES1   0.0000
    61 C9A      9.8187  12.0068  15.7030   C.ar      1 RES1   0.0000
    62 H6A      8.9104  11.8205  15.7827   H         1 RES1   0.0000
    63 C10A    10.3850  12.9427  16.5579   C.ar      1 RES1   0.0000
    64 H7A      9.8555  13.3593  17.1989   H         1 RES1   0.0000
    65 C11A    14.5492  12.2281  14.3084   C.ar      1 RES1   0.0000
    66 H8A     15.4500  12.4257  14.1815   H         1 RES1   0.0000
    67 C12A    13.9289  11.2513  13.4826   C.ar      1 RES1   0.0000
    68 C19     13.1968   6.8101  19.9552   C.2       2 RES2  -1.0000
    69 C20     14.4683   7.0472  19.4448   C.2       2 RES2   0.0000
    70 C21     15.2056   8.1603  20.0424   C.1       2 RES2   0.0000
    71 N4      15.7691   9.0060  20.5451   N.1       2 RES2   0.0000
    72 C22     15.1342   6.3461  18.4794   C.2       2 RES2   0.0000
    73 C23     14.5491   5.2667  17.8103   C.1       2 RES2   0.0000
    74 N5      17.5217   6.8880  17.7275   N.1       2 RES2   0.0000
    75 C24     16.4710   6.6802  18.0950   C.1       2 RES2   0.0000
    76 N6      14.1410   4.3895  17.2395   N.1       2 RES2   0.0000
    77 C25     12.4245   5.6675  19.6273   C.1       2 RES2   0.0000
    78 N7      11.7793   4.7564  19.3866   N.1       2 RES2   0.0000
    79 C26     12.5884   7.7279  20.8369   C.1       2 RES2   0.0000
    80 N8      12.0460   8.4618  21.5301   N.1       2 RES2   0.0000
@<TRIPOS>BOND
     1     1     2    1
     2     2     9   ar
     3     3     1    1
     4     4     5    1
     5     6     3   ar
     6     7     8    1
     7     9     6   ar
     8    10     4   ar
     9    11    10   ar
    10    12    11    1
    11    13     2   ar
    12    14    13    1
    13    15     7   ar
    14    16    15    1
    15    17     3   ar
    16    18    17    1
    17    19     4   ar
    18    20    19    1
    19    21    11   ar
    20    22    21    1
    21    23     7   ar
    22    24     1    1
    23    25    24   ar
    24    26    24   ar
    25    27    26    1
    26    28    25   ar
    27    29    26   ar
    28    30    29    1
    29    31    28   ar
    30    32    31    1
    31    33    28   ar
    32    34    33    1
    33    35     1    1
    34    36    25   ar
    35    37    35   ar
    36    38    37    1
    37    39    36   ar
    38    40    37   ar
    39    41    40    1
    40    42    39   ar
    41    43    42    1
    42    44    33   ar
    43    45    44    1
    44    46     1    1
    45    47     1    1
    46    48    49    1
    47    50    47   ar
    48    51    52    1
    49    53    46   ar
    50    54    48   ar
    51    55    54   ar
    52    56    55    1
    53    57    46   ar
    54    58    57    1
    55    59    51   ar
    56    60    59    1
    57    61    47   ar
    58    62    61    1
    59    63    48   ar
    60    64    63    1
    61    65    55   ar
    62    66    65    1
    63    67    51   ar
    64     6    10   ar
    65     9    23   ar
    66    13    15   ar
    67    17    19   ar
    68    21    23   ar
    69    29    31   ar
    70    35    36   ar
    71    39    44   ar
    72    40    42   ar
    73    50    53   ar
    74    50    54   ar
    75    53    67   ar
    76    57    59   ar
    77    61    63   ar
    78    65    67   ar
    79    68    69    1
    80    69    70    1
    81    70    71    3
    82    72    69    2
    83    73    72    1
    84    74    75    3
    85    75    72    1
    86    76    73    3
    87    77    68    1
    88    78    77    3
    89    79    68    1
    90    80    79    3
@<TRIPOS>SUBSTRUCTURE
     1 RES1        1 GROUP             0 ****  ****    0  
     2 RES2       68 GROUP             0 ****  ****    0  
@<TRIPOS>CRYSIN
   21.3153   11.2899   17.9947   90.0000   92.8970   90.0000    15     1
