@<TRIPOS>MOLECULE
JEMVEG
    75    78     1     0     0
SMALL
NO_CHARGES
****
Generated from the CSD

@<TRIPOS>ATOM
     1 Fe1      2.8952   4.6067   3.9739   Fe        1 RES1   0.0000
     2 P1       1.8130   3.3954   5.4534   P.3       1 RES1   0.0000
     3 P2       4.0364   5.4397   5.6952   P.3       1 RES1   0.0000
     4 P3       3.9603   5.6333   2.3049   P.3       1 RES1   0.0000
     5 P4       1.5194   6.3119   3.8121   P.3       1 RES1   0.0000
     6 O1       4.2648   3.1526   4.1026   O.3       1 RES1   0.0000
     7 C1       2.1232   3.3094   2.6739   C.ar      1 RES1   0.0000
     8 C2       0.8126   3.1685   2.1975   C.ar      1 RES1   0.0000
     9 H1       0.1589   3.8026   2.4676   H         1 RES1   0.0000
    10 C3       0.4294   2.1350   1.3429   C.ar      1 RES1   0.0000
    11 H2      -0.4752   2.0591   1.0627   H         1 RES1   0.0000
    12 C4       1.3679   1.2236   0.9058   C.ar      1 RES1   0.0000
    13 H3       1.1236   0.5386   0.2946   H         1 RES1   0.0000
    14 C5       2.6798   1.3183   1.3711   C.ar      1 RES1   0.0000
    15 H4       3.3276   0.6912   1.0719   H         1 RES1   0.0000
    16 C6       3.0561   2.3160   2.2660   C.ar      1 RES1   0.0000
    17 C7       4.4389   2.4984   2.8848   C.3       1 RES1   0.0000
    18 H5       4.9273   3.1386   2.2919   H         1 RES1   0.0000
    19 C8       5.3767   1.2648   3.0580   C.3       1 RES1   0.0000
    20 C9       6.6108   1.7413   3.8355   C.3       1 RES1   0.0000
    21 H6       7.0237   2.4943   3.3633   H         1 RES1   0.0000
    22 H7       7.2559   1.0070   3.9063   H         1 RES1   0.0000
    23 H8       6.3412   2.0269   4.7333   H         1 RES1   0.0000
    24 C10      5.8719   0.7319   1.7021   C.3       1 RES1   0.0000
    25 H9       6.0160   1.4831   1.0891   H         1 RES1   0.0000
    26 H10      5.2008   0.1262   1.3243   H         1 RES1   0.0000
    27 H11      6.7145   0.2480   1.8293   H         1 RES1   0.0000
    28 C11      4.7153   0.1413   3.8583   C.3       1 RES1   0.0000
    29 H12      5.3418  -0.6069   3.9501   H         1 RES1   0.0000
    30 H13      3.9098  -0.1628   3.3903   H         1 RES1   0.0000
    31 H14      4.4709   0.4735   4.7472   H         1 RES1   0.0000
    32 C12      2.7732   3.3753   7.0076   C.3       1 RES1   0.0000
    33 H15      2.1998   3.0812   7.7590   H         1 RES1   0.0000
    34 H16      3.5349   2.7480   6.9300   H         1 RES1   0.0000
    35 C13      3.2770   4.7747   7.2562   C.3       1 RES1   0.0000
    36 H17      3.9517   4.7650   7.9803   H         1 RES1   0.0000
    37 H18      2.5269   5.3561   7.5388   H         1 RES1   0.0000
    38 C14      0.1211   3.8156   5.9842   C.3       1 RES1   0.0000
    39 H19     -0.4493   3.9326   5.1959   H         1 RES1   0.0000
    40 H20      0.1380   4.6480   6.5014   H         1 RES1   0.0000
    41 H21     -0.2360   3.0924   6.5411   H         1 RES1   0.0000
    42 C15      1.5595   1.6112   5.1650   C.3       1 RES1   0.0000
    43 H22      2.3923   1.2115   4.8393   H         1 RES1   0.0000
    44 H23      0.8533   1.4859   4.4969   H         1 RES1   0.0000
    45 H24      1.2953   1.1793   6.0041   H         1 RES1   0.0000
    46 C16      5.7568   4.8873   5.8867   C.3       1 RES1   0.0000
    47 H25      6.3266   5.3653   5.2478   H         1 RES1   0.0000
    48 H26      5.8122   3.9242   5.7163   H         1 RES1   0.0000
    49 H27      6.0611   5.0759   6.7992   H         1 RES1   0.0000
    50 C17      4.2321   7.1854   6.2220   C.3       1 RES1   0.0000
    51 H28      4.5964   7.2132   7.1314   H         1 RES1   0.0000
    52 H29      3.3595   7.6312   6.2059   H         1 RES1   0.0000
    53 H30      4.8449   7.6445   5.6105   H         1 RES1   0.0000
    54 C18      3.3191   7.3485   2.0409   C.3       1 RES1   0.0000
    55 H31      4.0781   7.9716   1.9155   H         1 RES1   0.0000
    56 H32      2.7617   7.3730   1.2231   H         1 RES1   0.0000
    57 C19      2.4911   7.7871   3.2365   C.3       1 RES1   0.0000
    58 H33      1.8780   8.5205   2.9779   H         1 RES1   0.0000
    59 H34      3.0814   8.1121   3.9614   H         1 RES1   0.0000
    60 C20      5.7674   5.9133   2.4365   C.3       1 RES1   0.0000
    61 H35      6.2223   5.0549   2.5662   H         1 RES1   0.0000
    62 H36      5.9524   6.4996   3.1997   H         1 RES1   0.0000
    63 H37      6.0934   6.3348   1.6141   H         1 RES1   0.0000
    64 C21      3.8178   5.0242   0.5843   C.3       1 RES1   0.0000
    65 H38      4.2638   5.6515  -0.0222   H         1 RES1   0.0000
    66 H39      2.8713   4.9515   0.3409   H         1 RES1   0.0000
    67 H40      4.2419   4.1436   0.5134   H         1 RES1   0.0000
    68 C22      0.6443   7.0891   5.2362   C.3       1 RES1   0.0000
    69 H41     -0.1893   6.6039   5.4112   H         1 RES1   0.0000
    70 H42      0.4399   8.0234   5.0236   H         1 RES1   0.0000
    71 H43      1.2165   7.0521   6.0308   H         1 RES1   0.0000
    72 C23      0.1541   6.3940   2.6009   C.3       1 RES1   0.0000
    73 H44      0.4694   6.0715   1.7309   H         1 RES1   0.0000
    74 H45     -0.1502   7.3218   2.5144   H         1 RES1   0.0000
    75 H46     -0.5890   5.8339   2.9076   H         1 RES1   0.0000
@<TRIPOS>BOND
     1     1     2    1
     2     2    32    1
     3     3     1    1
     4     4     1    1
     5     5     1    1
     6     6     1    1
     7     7     1    1
     8     8     7   ar
     9     9     8    1
    10    10     8   ar
    11    11    10    1
    12    12    10   ar
    13    13    12    1
    14    14    12   ar
    15    15    14    1
    16    16     7   ar
    17    17     6    1
    18    18    17    1
    19    19    17    1
    20    20    19    1
    21    21    20    1
    22    22    20    1
    23    23    20    1
    24    24    19    1
    25    25    24    1
    26    26    24    1
    27    27    24    1
    28    28    19    1
    29    29    28    1
    30    30    28    1
    31    31    28    1
    32    32    33    1
    33    34    32    1
    34    35     3    1
    35    36    35    1
    36    37    35    1
    37    38     2    1
    38    39    38    1
    39    40    38    1
    40    41    38    1
    41    42     2    1
    42    43    42    1
    43    44    42    1
    44    45    42    1
    45    46     3    1
    46    47    46    1
    47    48    46    1
    48    49    46    1
    49    50     3    1
    50    51    50    1
    51    52    50    1
    52    53    50    1
    53    54     4    1
    54    55    54    1
    55    56    54    1
    56    57     5    1
    57    58    57    1
    58    59    57    1
    59    60     4    1
    60    61    60    1
    61    62    60    1
    62    63    60    1
    63    64     4    1
    64    65    64    1
    65    66    64    1
    66    67    64    1
    67    68     5    1
    68    69    68    1
    69    70    68    1
    70    71    68    1
    71    72     5    1
    72    73    72    1
    73    74    72    1
    74    75    72    1
    75    14    16   ar
    76    16    17    1
    77    32    35    1
    78    54    57    1
@<TRIPOS>SUBSTRUCTURE
     1 RES1        1 GROUP             0 ****  ****    0  
@<TRIPOS>CRYSIN
    9.2828    9.6552   15.7720   72.4010   89.2490   78.0000     2     1
