@<TRIPOS>MOLECULE
JENDAL
   124   130     2     0     0
SMALL
USER_CHARGES
****
Generated from the CSD

@<TRIPOS>ATOM
     1 Fe1      3.4364   5.4966   9.5830   Fe        1 RES1   2.0000
     2 P1       5.7076   5.6875   9.6774   P.3       1 RES1   0.0000
     3 P2       3.5842   3.2302   9.7949   P.3       1 RES1   0.0000
     4 N1       0.8234   2.6856  10.1004   N.3       1 RES1   0.0000
     5 N2       3.3661   5.2811   7.6932   N.1       1 RES1   0.0000
     6 C1       6.4562   4.6732  10.9974   C.3       1 RES1   0.0000
     7 H1       7.4072   4.8622  11.0288   H         1 RES1   0.0000
     8 H2       6.0769   4.9460  11.8476   H         1 RES1   0.0000
     9 C2       6.2679   3.1561  10.8460   C.3       1 RES1   0.0000
    10 H3       6.5876   2.8897   9.9706   H         1 RES1   0.0000
    11 H4       6.8175   2.7079  11.5083   H         1 RES1   0.0000
    12 C3       4.8325   2.6812  11.0051   C.3       1 RES1   0.0000
    13 H5       4.5278   2.9556  11.8846   H         1 RES1   0.0000
    14 H6       4.8412   1.7115  10.9973   H         1 RES1   0.0000
    15 C4       2.1630   2.3437  10.5413   C.3       1 RES1   0.0000
    16 H7       2.2916   1.3951  10.3830   H         1 RES1   0.0000
    17 H8       2.2013   2.4801  11.5006   H         1 RES1   0.0000
    18 C5       0.6850   3.5881   8.9735   C.3       1 RES1   0.0000
    19 H9      -0.2330   3.5843   8.6601   H         1 RES1   0.0000
    20 H10      1.2548   3.2932   8.2451   H         1 RES1   0.0000
    21 C6       6.7563   5.4328   8.2183   C.ar      1 RES1   0.0000
    22 C7       6.3898   5.9605   6.9879   C.ar      1 RES1   0.0000
    23 H11      5.6223   6.4815   6.9289   H         1 RES1   0.0000
    24 C8       7.1298   5.7318   5.8590   C.ar      1 RES1   0.0000
    25 H12      6.8676   6.1036   5.0478   H         1 RES1   0.0000
    26 C9       8.2679   4.9458   5.9261   C.ar      1 RES1   0.0000
    27 H13      8.7545   4.7618   5.1554   H         1 RES1   0.0000
    28 C10      8.6743   4.4412   7.1355   C.ar      1 RES1   0.0000
    29 H14      9.4539   3.9360   7.1839   H         1 RES1   0.0000
    30 C11      7.9399   4.6765   8.2835   C.ar      1 RES1   0.0000
    31 H15      8.2279   4.3329   9.0991   H         1 RES1   0.0000
    32 C12      3.9342   2.2833   8.2816   C.ar      1 RES1   0.0000
    33 C13      5.0973   2.5174   7.5552   C.ar      1 RES1   0.0000
    34 H16      5.7248   3.1197   7.8850   H         1 RES1   0.0000
    35 C14      5.3466   1.8655   6.3382   C.ar      1 RES1   0.0000
    36 H17      6.1353   2.0238   5.8710   H         1 RES1   0.0000
    37 C15      4.4083   0.9894   5.8456   C.ar      1 RES1   0.0000
    38 H18      4.5498   0.5750   5.0254   H         1 RES1   0.0000
    39 C16      3.2687   0.7233   6.5547   C.ar      1 RES1   0.0000
    40 H19      2.6551   0.1042   6.2295   H         1 RES1   0.0000
    41 C17      3.0224   1.3730   7.7603   C.ar      1 RES1   0.0000
    42 H20      2.2356   1.1965   8.2228   H         1 RES1   0.0000
    43 C18     -0.2645   1.7061  10.4013   C.3       1 RES1   0.0000
    44 C19     -1.6400   2.3459  10.1982   C.3       1 RES1   0.0000
    45 H21     -1.6669   3.1947  10.6477   H         1 RES1   0.0000
    46 H22     -2.3173   1.7708  10.5618   H         1 RES1   0.0000
    47 H23     -1.7982   2.4753   9.2611   H         1 RES1   0.0000
    48 C20     -0.1577   0.4408   9.5580   C.3       1 RES1   0.0000
    49 H24     -0.2000   0.6712   8.6275   H         1 RES1   0.0000
    50 H25     -0.8830  -0.1503   9.7748   H         1 RES1   0.0000
    51 H26      0.6768   0.0029   9.7421   H         1 RES1   0.0000
    52 C21     -0.1749   1.3434  11.8886   C.3       1 RES1   0.0000
    53 H27      0.6715   0.9253  12.0645   H         1 RES1   0.0000
    54 H28     -0.8841   0.7373  12.1129   H         1 RES1   0.0000
    55 H29     -0.2542   2.1404  12.4169   H         1 RES1   0.0000
    56 C22      3.3443   5.0282   6.5835   C.1       1 RES1   0.0000
    57 C23      3.2964   4.6512   5.1863   C.3       1 RES1   0.0000
    58 H30      4.1495   4.8209   4.7804   H         1 RES1   0.0000
    59 H31      2.6208   5.1660   4.7398   H         1 RES1   0.0000
    60 H32      3.0876   3.7171   5.1143   H         1 RES1   0.0000
    61 P1B      1.1652   5.3056   9.4885   P.3       1 RES1   0.0000
    62 P2B      3.2886   7.7629   9.3710   P.3       1 RES1   0.0000
    63 N1B      6.0494   8.3075   9.0655   N.3       1 RES1   0.0000
    64 C1B      0.4165   6.3199   8.1685   C.3       1 RES1   0.0000
    65 H1B     -0.5344   6.1309   8.1372   H         1 RES1   0.0000
    66 H2B      0.7958   6.0471   7.3183   H         1 RES1   0.0000
    67 C2B      0.6049   7.8370   8.3199   C.3       1 RES1   0.0000
    68 H3B      0.2852   8.1034   9.1953   H         1 RES1   0.0000
    69 H4B      0.0553   8.2852   7.6576   H         1 RES1   0.0000
    70 C3B      2.0402   8.3119   8.1608   C.3       1 RES1   0.0000
    71 H5B      2.3449   8.0375   7.2814   H         1 RES1   0.0000
    72 H6B      2.0315   9.2816   8.1686   H         1 RES1   0.0000
    73 C4B      4.7097   8.6494   8.6247   C.3       1 RES1   0.0000
    74 H7B      4.5812   9.5980   8.7829   H         1 RES1   0.0000
    75 H8B      4.6715   8.5130   7.6653   H         1 RES1   0.0000
    76 C5B      6.1877   7.4050  10.1924   C.3       1 RES1   0.0000
    77 H9B      7.1057   7.4088  10.5058   H         1 RES1   0.0000
    78 H10B     5.6180   7.6999  10.9208   H         1 RES1   0.0000
    79 C6B      0.1164   5.5603  10.9476   C.ar      1 RES1   0.0000
    80 C7B      0.4829   5.0326  12.1780   C.ar      1 RES1   0.0000
    81 H11B     1.2504   4.5116  12.2370   H         1 RES1   0.0000
    82 C8B     -0.2571   5.2613  13.3069   C.ar      1 RES1   0.0000
    83 H12B     0.0051   4.8895  14.1181   H         1 RES1   0.0000
    84 C9B     -1.3951   6.0473  13.2398   C.ar      1 RES1   0.0000
    85 H13B    -1.8818   6.2313  14.0105   H         1 RES1   0.0000
    86 C10B    -1.8015   6.5519  12.0304   C.ar      1 RES1   0.0000
    87 H14B    -2.5811   7.0571  11.9820   H         1 RES1   0.0000
    88 C11B    -1.0672   6.3166  10.8824   C.ar      1 RES1   0.0000
    89 H15B    -1.3551   6.6602  10.0668   H         1 RES1   0.0000
    90 C12B     2.9385   8.7098  10.8843   C.ar      1 RES1   0.0000
    91 C13B     1.7754   8.4757  11.6107   C.ar      1 RES1   0.0000
    92 H16B     1.1479   7.8734  11.2809   H         1 RES1   0.0000
    93 C14B     1.5261   9.1276  12.8277   C.ar      1 RES1   0.0000
    94 H17B     0.7374   8.9693  13.2949   H         1 RES1   0.0000
    95 C15B     2.4644  10.0037  13.3203   C.ar      1 RES1   0.0000
    96 H18B     2.3230  10.4181  14.1405   H         1 RES1   0.0000
    97 C16B     3.6040  10.2698  12.6112   C.ar      1 RES1   0.0000
    98 H19B     4.2176  10.8889  12.9364   H         1 RES1   0.0000
    99 C17B     3.8503   9.6201  11.4056   C.ar      1 RES1   0.0000
   100 H20B     4.6372   9.7966  10.9431   H         1 RES1   0.0000
   101 C18B     7.1373   9.2870   8.7646   C.3       1 RES1   0.0000
   102 C19B     8.5127   8.6472   8.9677   C.3       1 RES1   0.0000
   103 H21B     8.5396   7.7984   8.5182   H         1 RES1   0.0000
   104 H22B     9.1900   9.2223   8.6041   H         1 RES1   0.0000
   105 H23B     8.6710   8.5178   9.9048   H         1 RES1   0.0000
   106 C20B     7.0304  10.5523   9.6079   C.3       1 RES1   0.0000
   107 H24B     7.0728  10.3219  10.5384   H         1 RES1   0.0000
   108 H25B     7.7558  11.1434   9.3911   H         1 RES1   0.0000
   109 H26B     6.1960  10.9902   9.4238   H         1 RES1   0.0000
   110 C21B     7.0476   9.6497   7.2773   C.3       1 RES1   0.0000
   111 H27B     6.2012  10.0678   7.1014   H         1 RES1   0.0000
   112 H28B     7.7568  10.2558   7.0530   H         1 RES1   0.0000
   113 H29B     7.1270   8.8527   6.7490   H         1 RES1   0.0000
   114 N2B      3.5066   5.7120  11.4727   N.1       1 RES1   0.0000
   115 C22B     3.5285   5.9649  12.5824   C.1       1 RES1   0.0000
   116 C23B     3.5763   6.3419  13.9796   C.3       1 RES1   0.0000
   117 H30B     2.7232   6.1722  14.3855   H         1 RES1   0.0000
   118 H31B     4.2519   5.8271  14.4261   H         1 RES1   0.0000
   119 H32B     3.7851   7.2760  14.0516   H         1 RES1   0.0000
   120 F1       3.4530   9.4826   3.7968   F         2 RES2   0.0000
   121 F2       3.9423   7.4028   3.2525   F         2 RES2   0.0000
   122 F3       2.5064   7.7853   4.8854   F         2 RES2   0.0000
   123 F4       4.6187   8.2195   5.1882   F         2 RES2   0.0000
   124 B1       3.6573   8.2151   4.2740   B         2 RES2  -1.0000
@<TRIPOS>BOND
     1     1     2    1
     2     2     6    1
     3     3     1    1
     4     4    15    1
     5     5     1    1
     6     6     7    1
     7     8     6    1
     8     9     6    1
     9    10     9    1
    10    11     9    1
    11    12     3    1
    12    13    12    1
    13    14    12    1
    14    15     3    1
    15    16    15    1
    16    17    15    1
    17    18     4    1
    18    19    18    1
    19    20    18    1
    20    21     2    1
    21    22    21   ar
    22    23    22    1
    23    24    22   ar
    24    25    24    1
    25    26    24   ar
    26    27    26    1
    27    28    26   ar
    28    29    28    1
    29    30    21   ar
    30    31    30    1
    31    32     3    1
    32    33    32   ar
    33    34    33    1
    34    35    33   ar
    35    36    35    1
    36    37    35   ar
    37    38    37    1
    38    39    37   ar
    39    40    39    1
    40    41    32   ar
    41    42    41    1
    42    43     4    1
    43    44    43    1
    44    45    44    1
    45    46    44    1
    46    47    44    1
    47    48    43    1
    48    49    48    1
    49    50    48    1
    50    51    48    1
    51    52    43    1
    52    53    52    1
    53    54    52    1
    54    55    52    1
    55    56     5    3
    56    57    56    1
    57    58    57    1
    58    59    57    1
    59    60    57    1
    60    61     1    1
    61    62     1    1
    62    63    73    1
    63    64    61    1
    64    65    64    1
    65    66    64    1
    66    67    64    1
    67    68    67    1
    68    69    67    1
    69    70    62    1
    70    71    70    1
    71    72    70    1
    72    73    62    1
    73    74    73    1
    74    75    73    1
    75    76     2    1
    76    77    76    1
    77    78    76    1
    78    79    61    1
    79    80    79   ar
    80    81    80    1
    81    82    80   ar
    82    83    82    1
    83    84    82   ar
    84    85    84    1
    85    86    84   ar
    86    87    86    1
    87    88    79   ar
    88    89    88    1
    89    90    62    1
    90    91    90   ar
    91    92    91    1
    92    93    91   ar
    93    94    93    1
    94    95    93   ar
    95    96    95    1
    96    97    95   ar
    97    98    97    1
    98    99    90   ar
    99   100    99    1
   100   101    63    1
   101   102   101    1
   102   103   102    1
   103   104   102    1
   104   105   102    1
   105   106   101    1
   106   107   106    1
   107   108   106    1
   108   109   106    1
   109   110   101    1
   110   111   110    1
   111   112   110    1
   112   113   110    1
   113   114     1    1
   114   115   114    3
   115   116   115    1
   116   117   116    1
   117   118   116    1
   118   119   116    1
   119     9    12    1
   120    18    61    1
   121    28    30   ar
   122    39    41   ar
   123    63    76    1
   124    67    70    1
   125    86    88   ar
   126    97    99   ar
   127   120   124    1
   128   121   124    1
   129   122   124    1
   130   123   124    1
@<TRIPOS>SUBSTRUCTURE
     1 RES1        1 GROUP             0 ****  ****    0  
     2 RES2      120 GROUP             0 ****  ****    0  
@<TRIPOS>CRYSIN
   11.8633   10.9931   19.8050   90.0000  104.5950   90.0000   231     1
