@<TRIPOS>MOLECULE
JEPSUS
    78    81     1     0     0
SMALL
NO_CHARGES
****
Generated from the CSD

@<TRIPOS>ATOM
     1 Fe1      0.0000   3.8295   0.0000   Fe        1 RES1   0.0000
     2 O1      -2.7018   6.7744   1.2580   O.2       1 RES1   0.0000
     3 O2      -2.6485   4.6432   1.9108   O.3       1 RES1   0.0000
     4 O3       1.5864   9.0160  -2.8623   O.2       1 RES1   0.0000
     5 O4       1.8357   6.9434  -3.6832   O.3       1 RES1   0.0000
     6 O5       4.4690   6.9577   0.2907   O.2       1 RES1   0.0000
     7 O6       4.0041   7.4362  -1.8609   O.3       1 RES1   0.0000
     8 O7       0.3841   3.1044   3.5310   O.2       1 RES1   0.0000
     9 O8      -0.4708   5.1182   3.8978   O.3       1 RES1   0.0000
    10 O9       0.5278   4.1878  -2.8748   O.2       1 RES1   0.0000
    11 O10     -2.5947   2.5938  -0.4133   O.2       1 RES1   0.0000
    12 N1       1.4369   4.8318   1.0389   N.3       1 RES1   0.0000
    13 N2       0.0496   7.1338  -0.9151   N.pl3     1 RES1   0.0000
    14 N3       1.0301   1.0389   0.5790   N.1       1 RES1   0.0000
    15 C1       0.1696   4.6379   1.7065   C.2       1 RES1   0.0000
    16 C2      -0.6949   5.5380   0.9639   C.2       1 RES1   0.0000
    17 C3       0.1016   6.7513   0.5223   C.3       1 RES1   0.0000
    18 C4       1.2942   7.1729  -1.3920   C.2       1 RES1   0.0000
    19 C5       2.2667   6.7353  -0.5280   C.2       1 RES1   0.0000
    20 C6       1.5766   6.3315   0.7459   C.3       1 RES1   0.0000
    21 C7      -2.0943   5.7408   1.3749   C.2       1 RES1   0.0000
    22 C8      -4.0323   4.7517   2.3355   C.3       1 RES1   0.0000
    23 C9      -1.2198   7.6426  -1.5032   C.3       1 RES1   0.0000
    24 C10     -1.3915   7.3028  -2.9418   C.3       1 RES1   0.0000
    25 C11     -1.4507   9.0925  -1.1422   C.3       1 RES1   0.0000
    26 C12      1.5934   7.8436  -2.7408   C.2       1 RES1   0.0000
    27 C13      2.2677   7.4949  -4.9741   C.3       1 RES1   0.0000
    28 C14      3.6616   7.0253  -0.6324   C.2       1 RES1   0.0000
    29 C15      5.3872   7.8952  -2.0891   C.3       1 RES1   0.0000
    30 C16      2.6341   4.1130   1.6145   C.3       1 RES1   0.0000
    31 C17      3.6188   3.7395   0.4984   C.3       1 RES1   0.0000
    32 C18      3.3114   4.9047   2.7431   C.3       1 RES1   0.0000
    33 C19      0.0345   4.1629   3.1246   C.2       1 RES1   0.0000
    34 C20     -0.6291   4.7339   5.2920   C.3       1 RES1   0.0000
    35 C21      0.3167   4.0953  -1.7598   C.1       1 RES1   0.0000
    36 C22     -1.5851   3.0937  -0.2384   C.1       1 RES1   0.0000
    37 C23      0.6857   2.1241   0.3031   C.1       1 RES1   0.0000
    38 C24      1.3901  -0.2224   1.1785   C.3       1 RES1   0.0000
    39 C25      2.5723   0.0569   2.1118   C.3       1 RES1   0.0000
    40 C26      1.8081  -1.1973   0.1964   C.3       1 RES1   0.0000
    41 C27      0.2894  -0.5800   2.1005   C.3       1 RES1   0.0000
    42 H1      -0.1626   7.4718   1.0559   H         1 RES1   0.0000
    43 H2       2.0151   6.7602   1.6804   H         1 RES1   0.0000
    44 H3      -2.1124   6.7780  -1.5441   H         1 RES1   0.0000
    45 H4       2.1669   3.2556   1.9756   H         1 RES1   0.0000
    46 H5      -4.1829   5.7462   2.7817   H         1 RES1   0.0000
    47 H6      -4.6326   5.1769   1.6122   H         1 RES1   0.0000
    48 H7      -4.1652   4.0561   2.6795   H         1 RES1   0.0000
    49 H8      -0.7474   7.8988  -3.6446   H         1 RES1   0.0000
    50 H9      -1.2304   6.2265  -3.1223   H         1 RES1   0.0000
    51 H10     -2.4560   7.4896  -3.2926   H         1 RES1   0.0000
    52 H11     -1.1513   9.1085   0.0568   H         1 RES1   0.0000
    53 H12     -0.7261   9.6422  -1.5328   H         1 RES1   0.0000
    54 H13     -2.2271   9.4821  -1.3170   H         1 RES1   0.0000
    55 H14      1.4290   8.0411  -5.3476   H         1 RES1   0.0000
    56 H15      3.0233   8.0767  -4.7005   H         1 RES1   0.0000
    57 H16      2.6746   6.7246  -5.3931   H         1 RES1   0.0000
    58 H17      5.5381   8.4503  -1.1921   H         1 RES1   0.0000
    59 H18      6.0191   7.3473  -1.6122   H         1 RES1   0.0000
    60 H19      5.2242   8.6637  -2.8498   H         1 RES1   0.0000
    61 H20      3.2491   3.2912  -0.1703   H         1 RES1   0.0000
    62 H21      3.9940   4.7143   0.4087   H         1 RES1   0.0000
    63 H22      4.3285   3.2022   1.0218   H         1 RES1   0.0000
    64 H23      3.7806   5.7640   2.4411   H         1 RES1   0.0000
    65 H24      2.7369   5.1769   3.4288   H         1 RES1   0.0000
    66 H25      3.7948   4.4119   3.3153   H         1 RES1   0.0000
    67 H26     -1.2572   3.9850   5.4271   H         1 RES1   0.0000
    68 H27      0.2995   4.5720   5.5861   H         1 RES1   0.0000
    69 H28     -0.8818   5.5327   5.5634   H         1 RES1   0.0000
    70 H29      3.3283   0.5159   1.4079   H         1 RES1   0.0000
    71 H30      2.4179   0.8361   2.8271   H         1 RES1   0.0000
    72 H31      2.8829  -0.8183   2.4184   H         1 RES1   0.0000
    73 H32      0.8458  -1.3876  -0.5450   H         1 RES1   0.0000
    74 H33      2.5599  -0.7116  -0.3747   H         1 RES1   0.0000
    75 H34      1.9266  -2.1704   0.5790   H         1 RES1   0.0000
    76 H35      0.1335   0.2846   2.8157   H         1 RES1   0.0000
    77 H36     -0.6267  -0.7294   1.4192   H         1 RES1   0.0000
    78 H37      0.5657  -1.4054   2.4751   H         1 RES1   0.0000
@<TRIPOS>BOND
     1     1    12    1
     2     2    21    2
     3     3    21    1
     4     4    26    2
     5     5    26    1
     6     6    28    2
     7     7    28    1
     8     8    33    2
     9     9    33    1
    10    10    35    3
    11    11    36    3
    12    12    15    1
    13    13    17    1
    14    14    37    3
    15    15     1   un
    16    16     1   un
    17    17    16    1
    18    18    13    1
    19    19    18    2
    20    20    12    1
    21    21    16    1
    22    22     3    1
    23    23    13    1
    24    24    23    1
    25    25    23    1
    26    26    18    1
    27    27     5    1
    28    28    19    1
    29    29     7    1
    30    30    12    1
    31    31    30    1
    32    32    30    1
    33    33    15    1
    34    34     9    1
    35    35     1    1
    36    36     1    1
    37    37     1    1
    38    38    14    1
    39    39    38    1
    40    40    38    1
    41    41    38    1
    42    42    17    1
    43    43    20    1
    44    44    23    1
    45    45    30    1
    46    46    22    1
    47    47    22    1
    48    48    22    1
    49    49    24    1
    50    50    24    1
    51    51    24    1
    52    52    25    1
    53    53    25    1
    54    54    25    1
    55    55    27    1
    56    56    27    1
    57    57    27    1
    58    58    29    1
    59    59    29    1
    60    60    29    1
    61    61    31    1
    62    62    31    1
    63    63    31    1
    64    64    32    1
    65    65    32    1
    66    66    32    1
    67    67    34    1
    68    68    34    1
    69    69    34    1
    70    70    39    1
    71    71    39    1
    72    72    39    1
    73    73    40    1
    74    74    40    1
    75    75    40    1
    76    76    41    1
    77    77    41    1
    78    78    41    1
    79    15    16    2
    80    17    20    1
    81    19    20    1
@<TRIPOS>SUBSTRUCTURE
     1 RES1        1 GROUP             0 ****  ****    0  
@<TRIPOS>CRYSIN
   15.7560   17.7900   11.3560   90.0000   91.1300   90.0000     9     1
