@<TRIPOS>MOLECULE
JETZER
    95   105     1     0     0
SMALL
USER_CHARGES
****
Generated from the CSD

@<TRIPOS>ATOM
     1 Fe1      2.9221  10.1385  11.6832   Fe        1 RES1   2.0000
     2 S1       7.1806  11.3517  10.9408   S.3       1 RES1   0.0000
     3 S2       7.0578   8.5532  12.3857   S.3       1 RES1   0.0000
     4 S3       1.3496  13.2975  14.3640   S.3       1 RES1   0.0000
     5 S4       0.7522   9.9651  15.5597   S.3       1 RES1   0.0000
     6 S5       1.0287  10.4831   7.6991   S.3       1 RES1   0.0000
     7 S6       0.9985   7.1550   9.0363   S.3       1 RES1   0.0000
     8 O1       4.3494  12.2464  10.2991   O.3       1 RES1   0.0000
     9 O2       4.1509   7.9295  13.0841   O.3       1 RES1   0.0000
    10 O3       2.7319  13.0162  11.9692   O.3       1 RES1   0.0000
    11 O4       1.7658   8.2347  13.5510   O.3       1 RES1   0.0000
    12 O5       1.9544  12.1272   9.8098   O.3       1 RES1   0.0000
    13 O6       2.4922   7.2877  11.3950   O.3       1 RES1   0.0000
    14 O7       3.2829  18.0717   7.9642   O.3       1 RES1   0.0000
    15 O8       2.5902   1.9671  14.9639   O.3       1 RES1   0.0000
    16 N1       4.4400  11.0476  10.9446   N.2       1 RES1   0.0000
    17 N2       4.3503   9.1014  12.4120   N.2       1 RES1   0.0000
    18 N3       2.5301  11.7952  12.5286   N.2       1 RES1   0.0000
    19 N4       1.8968   9.5451  13.1772   N.2       1 RES1   0.0000
    20 N5       1.9676  10.8109  10.1632   N.2       1 RES1   0.0000
    21 N6       2.4066   8.5221  10.8173   N.2       1 RES1   0.0000
    22 C1       5.6384  10.6262  11.2940   C.2       1 RES1   0.0000
    23 C2       5.5807   9.3947  12.0411   C.2       1 RES1   0.0000
    24 C3       1.8012  11.7892  13.6289   C.2       1 RES1   0.0000
    25 C4       1.5072  10.4579  14.0653   C.2       1 RES1   0.0000
    26 C5       0.8994  11.5227  16.4738   C.3       1 RES1   0.0000
    27 H1       0.4311  11.4283  17.3408   H         1 RES1   0.0000
    28 H2       1.8562  11.6893  16.6663   H         1 RES1   0.0000
    29 C6       0.3369  12.7199  15.7478   C.3       1 RES1   0.0000
    30 H3       0.2305  13.4616  16.3945   H         1 RES1   0.0000
    31 H4      -0.5637  12.4887  15.4067   H         1 RES1   0.0000
    32 C7       1.5681   9.9397   9.2726   C.2       1 RES1   0.0000
    33 C8       1.6892   8.5862   9.7239   C.2       1 RES1   0.0000
    34 C9       0.0428   7.8744   7.6870   C.3       1 RES1   0.0000
    35 H5      -0.2751   7.1478   7.0947   H         1 RES1   0.0000
    36 H6      -0.7532   8.3278   8.0625   H         1 RES1   0.0000
    37 C10      0.8211   8.8601   6.8692   C.3       1 RES1   0.0000
    38 H7       0.3579   8.9985   6.0054   H         1 RES1   0.0000
    39 H8       1.7152   8.4821   6.6754   H         1 RES1   0.0000
    40 C11      6.9668  13.1205  11.1362   C.3       1 RES1   0.0000
    41 H9       7.8572  13.5487  11.0774   H         1 RES1   0.0000
    42 H10      6.4277  13.4531  10.3749   H         1 RES1   0.0000
    43 C12      6.2989  13.5746  12.4317   C.3       1 RES1   0.0000
    44 H11      6.8045  13.2180  13.2052   H         1 RES1   0.0000
    45 H12      5.3792  13.2108  12.4738   H         1 RES1   0.0000
    46 C13      6.2462  15.1069  12.5203   C.3       1 RES1   0.0000
    47 H13      7.1675  15.4676  12.4908   H         1 RES1   0.0000
    48 H14      5.7546  15.4621  11.7379   H         1 RES1   0.0000
    49 C14      5.5964  15.5566  13.7366   C.3       1 RES1   0.0000
    50 H15      5.5926  16.5366  13.7614   H         1 RES1   0.0000
    51 H16      6.0832  15.2120  14.5137   H         1 RES1   0.0000
    52 H17      4.6740  15.2262  13.7554   H         1 RES1   0.0000
    53 C15      6.6613   6.8052  12.3043   C.3       1 RES1   0.0000
    54 H18      7.4944   6.2924  12.4558   H         1 RES1   0.0000
    55 H19      6.0457   6.5936  13.0508   H         1 RES1   0.0000
    56 C16      6.0296   6.3093  11.0190   C.3       1 RES1   0.0000
    57 H20      6.6627   6.4407  10.2686   H         1 RES1   0.0000
    58 H21      5.2143   6.8369  10.8268   H         1 RES1   0.0000
    59 C17      5.6466   4.7607  11.1236   C.3       1 RES1   0.0000
    60 H22      4.9160   4.6554  11.7831   H         1 RES1   0.0000
    61 H23      5.3062   4.4543  10.2456   H         1 RES1   0.0000
    62 C18      6.7889   3.8940  11.5258   C.3       1 RES1   0.0000
    63 H24      7.5228   4.0012  10.8864   H         1 RES1   0.0000
    64 H25      6.4999   2.9569  11.5377   H         1 RES1   0.0000
    65 H26      7.0949   4.1513  12.4211   H         1 RES1   0.0000
    66 C19      3.0959  14.3653   9.8699   C.ar      1 RES1   0.0000
    67 C20      3.4361  14.5262   8.5172   C.ar      1 RES1   0.0000
    68 H27      3.6232  13.7526   7.9974   H         1 RES1   0.0000
    69 C21      3.5061  15.7577   7.9192   C.ar      1 RES1   0.0000
    70 H28      3.7467  15.8282   7.0029   H         1 RES1   0.0000
    71 C22      3.2269  16.8998   8.6515   C.ar      1 RES1   0.0000
    72 C23      2.8826  16.7881   9.9938   C.ar      1 RES1   0.0000
    73 H29      2.6851  17.5644  10.5055   H         1 RES1   0.0000
    74 C24      2.8324  15.5343  10.5740   C.ar      1 RES1   0.0000
    75 H30      2.6071  15.4691  11.4948   H         1 RES1   0.0000
    76 C25      2.6619  19.1990   8.5580   C.3       1 RES1   0.0000
    77 H31      2.6247  19.9310   7.9060   H         1 RES1   0.0000
    78 H32      3.1783  19.4831   9.3393   H         1 RES1   0.0000
    79 H33      1.7519  18.9623   8.8339   H         1 RES1   0.0000
    80 C26      2.7253   5.8983  13.4708   C.ar      1 RES1   0.0000
    81 C27      3.4344   5.5395  14.6196   C.ar      1 RES1   0.0000
    82 H34      3.9514   6.2070  15.0543   H         1 RES1   0.0000
    83 C28      3.4278   4.2722  15.1587   C.ar      1 RES1   0.0000
    84 H35      3.9227   4.0851  15.9465   H         1 RES1   0.0000
    85 C29      2.6882   3.2611  14.5347   C.ar      1 RES1   0.0000
    86 C30      1.9552   3.5858  13.3850   C.ar      1 RES1   0.0000
    87 H36      1.4298   2.9189  12.9596   H         1 RES1   0.0000
    88 C31      1.9849   4.8545  12.8687   C.ar      1 RES1   0.0000
    89 H37      1.4918   5.0383  12.0788   H         1 RES1   0.0000
    90 C32      3.2952   1.6127  16.1216   C.3       1 RES1   0.0000
    91 H38      4.2364   1.8671  16.0239   H         1 RES1   0.0000
    92 H39      3.2320   0.6437  16.2598   H         1 RES1   0.0000
    93 H40      2.9105   2.0769  16.8951   H         1 RES1   0.0000
    94 B1       3.0317  12.9299  10.4876   B         1 RES1  -1.0000
    95 B2       2.7829   7.3338  12.8605   B         1 RES1  -1.0000
@<TRIPOS>BOND
     1     1    16    1
     2     2    22    1
     3     3    23    1
     4     4    24    1
     5     5    25    1
     6     6    32    1
     7     7    33    1
     8     8    16    1
     9     9    17    1
    10    10    18    1
    11    11    19    1
    12    12    20    1
    13    13    21    1
    14    14    71    1
    15    15    85    1
    16    16    22    2
    17    17     1    1
    18    18     1    1
    19    19     1    1
    20    20     1    1
    21    21     1    1
    22    22    23    1
    23    23    17    2
    24    24    18    2
    25    25    19    2
    26    26     5    1
    27    27    26    1
    28    28    26    1
    29    29     4    1
    30    30    29    1
    31    31    29    1
    32    32    20    2
    33    33    21    2
    34    34     7    1
    35    35    34    1
    36    36    34    1
    37    37     6    1
    38    38    37    1
    39    39    37    1
    40    40     2    1
    41    41    40    1
    42    42    40    1
    43    43    40    1
    44    44    43    1
    45    45    43    1
    46    46    43    1
    47    47    46    1
    48    48    46    1
    49    49    46    1
    50    50    49    1
    51    51    49    1
    52    52    49    1
    53    53     3    1
    54    54    53    1
    55    55    53    1
    56    56    53    1
    57    57    56    1
    58    58    56    1
    59    59    56    1
    60    60    59    1
    61    61    59    1
    62    62    59    1
    63    63    62    1
    64    64    62    1
    65    65    62    1
    66    66    67   ar
    67    67    68    1
    68    69    67   ar
    69    70    69    1
    70    71    69   ar
    71    72    71   ar
    72    73    72    1
    73    74    66   ar
    74    75    74    1
    75    76    14    1
    76    77    76    1
    77    78    76    1
    78    79    76    1
    79    80    81   ar
    80    81    82    1
    81    83    81   ar
    82    84    83    1
    83    85    83   ar
    84    86    85   ar
    85    87    86    1
    86    88    80   ar
    87    89    88    1
    88    90    15    1
    89    91    90    1
    90    92    90    1
    91    93    90    1
    92    94     8    1
    93    95     9    1
    94    10    94    1
    95    11    95    1
    96    12    94    1
    97    13    95    1
    98    24    25    1
    99    26    29    1
   100    32    33    1
   101    34    37    1
   102    66    94    1
   103    72    74   ar
   104    80    95    1
   105    86    88   ar
@<TRIPOS>SUBSTRUCTURE
     1 RES1        1 GROUP             0 ****  ****    0  
@<TRIPOS>CRYSIN
    8.2360   14.8910   31.6730   90.0000   90.0000   90.0000    19     1
