@<TRIPOS>MOLECULE
JEYHIH
    81    86     1     0     0
SMALL
NO_CHARGES
****
Generated from the CSD

@<TRIPOS>ATOM
     1 Fe1      7.8413   8.7071   3.8818   Fe        1 RES1   0.0000
     2 O1       6.1069   8.6588   5.3588   O.3       1 RES1   0.0000
     3 O2       9.4895   8.6991   2.4670   O.3       1 RES1   0.0000
     4 N1       6.1510  10.1222   2.4407   N.2       1 RES1   0.0000
     5 N2       7.0817  10.5921   3.2359   N.2       1 RES1   0.0000
     6 N3       8.4801   6.8278   4.6554   N.2       1 RES1   0.0000
     7 N4       9.1496   7.3087   5.6857   N.2       1 RES1   0.0000
     8 N5       9.1236   8.6069   5.6243   N.2       1 RES1   0.0000
     9 N6       6.2784   8.8197   2.3928   N.2       1 RES1   0.0000
    10 C1       7.0212  11.9846   3.4623   C.ar      1 RES1   0.0000
    11 C2       5.8517  12.7329   3.3576   C.ar      1 RES1   0.0000
    12 H1       5.0343  12.3063   3.1291   H         1 RES1   0.0000
    13 C3       8.3740   5.4335   4.6079   C.ar      1 RES1   0.0000
    14 C4       9.8224   9.2675   6.6630   C.ar      1 RES1   0.0000
    15 C5       5.3677   8.1662   1.5369   C.ar      1 RES1   0.0000
    16 C6       8.0730   4.8494   3.3781   C.ar      1 RES1   0.0000
    17 H2       7.9628   5.3954   2.6085   H         1 RES1   0.0000
    18 C7       8.1966  12.6253   3.8427   C.ar      1 RES1   0.0000
    19 H3       8.9973  12.1223   3.9343   H         1 RES1   0.0000
    20 C8       5.8784  14.0958   3.5859   C.ar      1 RES1   0.0000
    21 H4       5.0805  14.6026   3.4922   H         1 RES1   0.0000
    22 C9       8.2121  13.9886   4.0892   C.ar      1 RES1   0.0000
    23 H5       9.0187  14.4144   4.3547   H         1 RES1   0.0000
    24 C10      9.6370  10.6301   6.8050   C.ar      1 RES1   0.0000
    25 H6       9.0879  11.0978   6.1870   H         1 RES1   0.0000
    26 C11      5.2418   6.7932   1.6602   C.ar      1 RES1   0.0000
    27 H7       5.7714   6.3275   2.2964   H         1 RES1   0.0000
    28 C12      8.5300   4.6072   5.7258   C.ar      1 RES1   0.0000
    29 H8       8.7315   4.9861   6.5734   H         1 RES1   0.0000
    30 C13      3.7043   8.1044  -0.2038   C.ar      1 RES1   0.0000
    31 H9       3.1747   8.5638  -0.8449   H         1 RES1   0.0000
    32 C14      4.5929   8.8232   0.5787   C.ar      1 RES1   0.0000
    33 H10      4.6758   9.7625   0.4636   H         1 RES1   0.0000
    34 C15      7.0500  14.7305   3.9481   C.ar      1 RES1   0.0000
    35 H11      7.0595  15.6683   4.0994   H         1 RES1   0.0000
    36 C16     10.2475  11.3205   7.8424   C.ar      1 RES1   0.0000
    37 H12     10.1076  12.2556   7.9338   H         1 RES1   0.0000
    38 C17      4.3480   6.0894   0.8636   C.ar      1 RES1   0.0000
    39 H13      4.2680   5.1477   0.9633   H         1 RES1   0.0000
    40 C18      7.9344   3.4767   3.2756   C.ar      1 RES1   0.0000
    41 H14      7.7242   3.0862   2.4356   H         1 RES1   0.0000
    42 C19      3.5710   6.7487  -0.0749   C.ar      1 RES1   0.0000
    43 H15      2.9574   6.2692  -0.6187   H         1 RES1   0.0000
    44 C20     11.0567  10.6571   8.7425   C.ar      1 RES1   0.0000
    45 H16     11.4669  11.1281   9.4585   H         1 RES1   0.0000
    46 C21      8.3919   3.2394   5.5948   C.ar      1 RES1   0.0000
    47 H17      8.5021   2.6833   6.3570   H         1 RES1   0.0000
    48 C22     10.6690   8.6094   7.5580   C.ar      1 RES1   0.0000
    49 H18     10.8370   7.6800   7.4568   H         1 RES1   0.0000
    50 C23     11.2610   9.3110   8.5905   C.ar      1 RES1   0.0000
    51 H19     11.8198   8.8511   9.2062   H         1 RES1   0.0000
    52 C24     10.8285   8.2275   2.7748   C.3       1 RES1   0.0000
    53 H20     11.2280   7.8243   1.9637   H         1 RES1   0.0000
    54 H21     10.7764   7.5256   3.4708   H         1 RES1   0.0000
    55 C25      8.0983   2.6722   4.3835   C.ar      1 RES1   0.0000
    56 H22      8.0077   1.7296   4.3067   H         1 RES1   0.0000
    57 C26      5.2713   7.4758   5.4770   C.3       1 RES1   0.0000
    58 H23      5.4024   6.9129   4.6735   H         1 RES1   0.0000
    59 H24      4.3222   7.7583   5.4932   H         1 RES1   0.0000
    60 C27      5.9495   9.6853   6.3510   C.3       1 RES1   0.0000
    61 H25      6.6573  10.3658   6.2210   H         1 RES1   0.0000
    62 H26      6.0789   9.2854   7.2473   H         1 RES1   0.0000
    63 C28      9.3339   9.1421   1.0987   C.3       1 RES1   0.0000
    64 H27     10.1615   9.6030   0.8117   H         1 RES1   0.0000
    65 H28      8.5913   9.7951   1.0526   H         1 RES1   0.0000
    66 C29     11.7091   9.3421   3.2596   C.3       1 RES1   0.0000
    67 H29     11.7212  10.0620   2.5945   H         1 RES1   0.0000
    68 H30     12.6198   9.0051   3.3924   H         1 RES1   0.0000
    69 H31     11.3617   9.6877   4.1084   H         1 RES1   0.0000
    70 C30      9.0548   8.0276   0.1694   C.3       1 RES1   0.0000
    71 H32      9.8072   7.3993   0.1773   H         1 RES1   0.0000
    72 H33      8.9333   8.3800  -0.7368   H         1 RES1   0.0000
    73 H34      8.2390   7.5631   0.4514   H         1 RES1   0.0000
    74 C31      5.5419   6.6606   6.6748   C.3       1 RES1   0.0000
    75 H35      6.4953   6.4374   6.7094   H         1 RES1   0.0000
    76 H36      5.0144   5.8356   6.6345   H         1 RES1   0.0000
    77 H37      5.2955   7.1668   7.4771   H         1 RES1   0.0000
    78 C32      4.6279  10.3573   6.3134   C.3       1 RES1   0.0000
    79 H38      4.5091  10.7957   5.4450   H         1 RES1   0.0000
    80 H39      4.5822  11.0280   7.0267   H         1 RES1   0.0000
    81 H40      3.9200   9.6928   6.4439   H         1 RES1   0.0000
@<TRIPOS>BOND
     1     1     2    1
     2     2    57    1
     3     3     1    1
     4     4     5   un
     5     5     1    1
     6     6     1    1
     7     7     6   un
     8     8     1    1
     9     9     1    1
    10    10     5    1
    11    11    10   ar
    12    12    11    1
    13    13     6    1
    14    14     8    1
    15    15     9    1
    16    16    13   ar
    17    17    16    1
    18    18    10   ar
    19    19    18    1
    20    20    11   ar
    21    21    20    1
    22    22    18   ar
    23    23    22    1
    24    24    14   ar
    25    25    24    1
    26    26    15   ar
    27    27    26    1
    28    28    13   ar
    29    29    28    1
    30    30    31    1
    31    32    15   ar
    32    33    32    1
    33    34    20   ar
    34    35    34    1
    35    36    24   ar
    36    37    36    1
    37    38    26   ar
    38    39    38    1
    39    40    16   ar
    40    41    40    1
    41    42    30   ar
    42    43    42    1
    43    44    36   ar
    44    45    44    1
    45    46    28   ar
    46    47    46    1
    47    48    14   ar
    48    49    48    1
    49    50    44   ar
    50    51    50    1
    51    52     3    1
    52    53    52    1
    53    54    52    1
    54    55    40   ar
    55    56    55    1
    56    57    58    1
    57    59    57    1
    58    60     2    1
    59    61    60    1
    60    62    60    1
    61    63     3    1
    62    64    63    1
    63    65    63    1
    64    66    52    1
    65    67    66    1
    66    68    66    1
    67    69    66    1
    68    70    63    1
    69    71    70    1
    70    72    70    1
    71    73    70    1
    72    74    57    1
    73    75    74    1
    74    76    74    1
    75    77    74    1
    76    78    60    1
    77    79    78    1
    78    80    78    1
    79    81    78    1
    80     4     9   un
    81     7     8   un
    82    22    34   ar
    83    30    32   ar
    84    38    42   ar
    85    46    55   ar
    86    48    50   ar
@<TRIPOS>SUBSTRUCTURE
     1 RES1        1 GROUP             0 ****  ****    0  
@<TRIPOS>CRYSIN
    9.4964   11.0399   16.5537   77.4740   88.7920   70.2640     2     1
