@<TRIPOS>MOLECULE
JIDKAM
    79    87     1     0     0
SMALL
NO_CHARGES
****
Generated from the CSD

@<TRIPOS>ATOM
     1 Fe1      9.4178   7.1871   6.7113   Fe        1 RES1   0.0000
     2 S1      10.3012   5.7564   8.3267   S.2       1 RES1   0.0000
     3 S2       7.2205   6.8451   7.2631   S.2       1 RES1   0.0000
     4 S3      11.6328   6.9603   6.1452   S.2       1 RES1   0.0000
     5 S4       9.5355   9.0326   8.0902   S.2       1 RES1   0.0000
     6 S5       8.6559   5.6356   5.1628   S.2       1 RES1   0.0000
     7 S6       9.2064   8.9898   5.2972   S.2       1 RES1   0.0000
     8 O1      11.6369  11.4433   4.4770   O.3       1 RES1   0.0000
     9 O2       7.0148  11.5911   8.3496   O.3       1 RES1   0.0000
    10 O3       6.4358   2.0478   5.1187   O.3       1 RES1   0.0000
    11 O4      16.4341   5.8147   7.5777   O.3       1 RES1   0.0000
    12 N1      12.9252   5.2988   7.8341   N.pl3     1 RES1   0.0000
    13 O5       2.5131   5.8271   5.4442   O.3       1 RES1   0.0000
    14 O6      12.4639   2.3073   8.1636   O.3       1 RES1   0.0000
    15 N2       9.4089  11.3213   6.6544   N.pl3     1 RES1   0.0000
    16 C1       3.9895   7.3725   4.9154   C.2       1 RES1   0.0000
    17 H1       4.7881   7.8449   4.8397   H         1 RES1   0.0000
    18 N3       6.0190   5.1190   5.5637   N.pl3     1 RES1   0.0000
    19 C2       2.7270   7.7653   4.3946   C.2       1 RES1   0.0000
    20 H2       2.5422   8.5375   3.9111   H         1 RES1   0.0000
    21 C3      10.8588  12.4429   5.0190   C.2       1 RES1   0.0000
    22 C4       7.4316  13.7660   8.4824   C.2       1 RES1   0.0000
    23 H3       7.8671  14.5868   8.4598   H         1 RES1   0.0000
    24 C5      13.0579   4.4832   9.0563   C.3       1 RES1   0.0000
    25 H4      12.2198   4.4998   9.5425   H         1 RES1   0.0000
    26 H5      13.7415   4.8709   9.6262   H         1 RES1   0.0000
    27 C6      14.1441   5.4394   7.0357   C.3       1 RES1   0.0000
    28 H6      13.9188   5.8343   6.1788   H         1 RES1   0.0000
    29 H7      14.5164   4.5597   6.8683   H         1 RES1   0.0000
    30 C7      15.1643   6.2767   7.6986   C.2       1 RES1   0.0000
    31 C8       9.3408  12.1080   7.8899   C.3       1 RES1   0.0000
    32 H8       9.9181  12.8833   7.8022   H         1 RES1   0.0000
    33 H9       9.6750  11.5715   8.6259   H         1 RES1   0.0000
    34 C9       4.3526   2.2432   4.3867   C.2       1 RES1   0.0000
    35 H10      3.5652   2.6070   4.0506   H         1 RES1   0.0000
    36 C10      5.5098   2.8923   4.5979   C.2       1 RES1   0.0000
    37 C11      1.8661   6.8205   4.7308   C.2       1 RES1   0.0000
    38 H11      0.9622   6.8226   4.5195   H         1 RES1   0.0000
    39 C12     13.4164   3.0784   8.7547   C.2       1 RES1   0.0000
    40 C13     11.7992   5.9118   7.4967   C.3       1 RES1   0.0000
    41 C14      7.9730  12.5607   8.2087   C.2       1 RES1   0.0000
    42 C15     11.5589  13.5862   5.0655   C.2       1 RES1   0.0000
    43 H12     11.2601  14.4039   5.3937   H         1 RES1   0.0000
    44 C16      6.0618  13.5386   8.8119   C.2       1 RES1   0.0000
    45 H13      5.4313  14.1795   9.0510   H         1 RES1   0.0000
    46 C17     12.8553  13.3102   4.5116   C.2       1 RES1   0.0000
    47 H14     13.5592  13.9077   4.4053   H         1 RES1   0.0000
    48 C18      3.8211   6.2034   5.5305   C.2       1 RES1   0.0000
    49 C19      7.1323   5.7692   5.9304   C.3       1 RES1   0.0000
    50 C20      9.4712  12.0728   5.3950   C.3       1 RES1   0.0000
    51 H15      8.9407  12.8802   5.4813   H         1 RES1   0.0000
    52 H16      9.0825  11.5363   4.6869   H         1 RES1   0.0000
    53 C21      9.3798   9.9878   6.6770   C.3       1 RES1   0.0000
    54 C22      5.9554   4.3034   4.3468   C.3       1 RES1   0.0000
    55 H17      6.8315   4.2868   3.9323   H         1 RES1   0.0000
    56 H18      5.3401   4.7189   3.7224   H         1 RES1   0.0000
    57 C23      4.5653   0.8859   4.7799   C.2       1 RES1   0.0000
    58 H19      3.9500   0.1892   4.7334   H         1 RES1   0.0000
    59 C24     12.8401  12.0170   4.1794   C.2       1 RES1   0.0000
    60 H20     13.5567  11.5653   3.7955   H         1 RES1   0.0000
    61 C25      4.7570   5.3237   6.2771   C.3       1 RES1   0.0000
    62 H21      4.9426   5.7185   7.1433   H         1 RES1   0.0000
    63 H22      4.3349   4.4636   6.4259   H         1 RES1   0.0000
    64 C26     14.5442   2.3652   8.9394   C.2       1 RES1   0.0000
    65 H23     15.3367   2.6649   9.3207   H         1 RES1   0.0000
    66 C27      5.8263   0.8177   5.2303   C.2       1 RES1   0.0000
    67 H24      6.2289   0.0507   5.5677   H         1 RES1   0.0000
    68 C28     17.2434   6.6975   8.1928   C.2       1 RES1   0.0000
    69 H25     18.1676   6.6251   8.2526   H         1 RES1   0.0000
    70 C29     13.0402   1.0699   7.9869   C.2       1 RES1   0.0000
    71 H26     12.6072   0.3391   7.6043   H         1 RES1   0.0000
    72 C30     14.2783   1.0534   8.4306   C.2       1 RES1   0.0000
    73 H27     14.8658   0.3318   8.4147   H         1 RES1   0.0000
    74 C31     15.1367   7.4449   8.3695   C.2       1 RES1   0.0000
    75 H28     14.3948   7.9689   8.5701   H         1 RES1   0.0000
    76 C32     16.5091   7.6991   8.7056   C.2       1 RES1   0.0000
    77 H29     16.8332   8.4248   9.1905   H         1 RES1   0.0000
    78 C33      5.8643  12.2217   8.7083   C.2       1 RES1   0.0000
    79 H30      5.0540  11.7947   8.8597   H         1 RES1   0.0000
@<TRIPOS>BOND
     1     1     2    1
     2     2    40   un
     3     3     1    1
     4     4     1    1
     5     5     1    1
     6     6     1    1
     7     7     1    1
     8     8    21    1
     9     9    41    1
    10    10    36    1
    11    11    30    1
    12    12    24    1
    13    13    37    1
    14    14    39    1
    15    15    31    1
    16    16    17    1
    17    18    49    1
    18    19    16    1
    19    20    19    1
    20    21    42    2
    21    22    23    1
    22    24    25    1
    23    26    24    1
    24    27    12    1
    25    28    27    1
    26    29    27    1
    27    30    27    1
    28    31    32    1
    29    33    31    1
    30    34    35    1
    31    36    34    2
    32    37    19    2
    33    38    37    1
    34    39    24    1
    35    40     4   un
    36    41    22    2
    37    42    43    1
    38    44    22    1
    39    45    44    1
    40    46    42    1
    41    47    46    1
    42    48    13    1
    43    49     3   un
    44    50    15    1
    45    51    50    1
    46    52    50    1
    47    53     5   un
    48    54    18    1
    49    55    54    1
    50    56    54    1
    51    57    34    1
    52    58    57    1
    53    59     8    1
    54    60    59    1
    55    61    18    1
    56    62    61    1
    57    63    61    1
    58    64    39    2
    59    65    64    1
    60    66    10    1
    61    67    66    1
    62    68    11    1
    63    69    68    1
    64    70    14    1
    65    71    70    1
    66    72    64    1
    67    73    72    1
    68    74    30    2
    69    75    74    1
    70    76    68    2
    71    77    76    1
    72    78     9    1
    73    79    78    1
    74     6    49   un
    75     7    53   un
    76    12    40    1
    77    15    53    1
    78    16    48    2
    79    21    50    1
    80    31    41    1
    81    36    54    1
    82    44    78    2
    83    46    59    2
    84    48    61    1
    85    57    66    2
    86    70    72    2
    87    74    76    1
@<TRIPOS>SUBSTRUCTURE
     1 RES1        1 GROUP             0 ****  ****    0  
@<TRIPOS>CRYSIN
   25.3207   10.3372   13.2849   90.0000   90.0000   90.0000    33     1
