@<TRIPOS>MOLECULE
JIJRAZ
    81    88     3     0     0
SMALL
USER_CHARGES
****
Generated from the CSD

@<TRIPOS>ATOM
     1 Fe1      3.3308  15.8066  10.9181   Fe        1 RES1   2.0000
     2 Cl1      0.1333  19.9694   8.8561   Cl        1 RES1   0.0000
     3 Cl2      4.3261  12.0997  15.0771   Cl        1 RES1   0.0000
     4 S1       8.0853  14.8304   6.8070   S.3       1 RES1   0.0000
     5 N1       4.3746  14.4147  11.8992   N.ar      1 RES1   0.0000
     6 N2       4.8456  15.7298   9.7942   N.ar      1 RES1   0.0000
     7 N3       2.8217  17.2003   9.6035   N.ar      1 RES1   0.0000
     8 C1       5.5783  14.1246  11.3315   C.ar      1 RES1   0.0000
     9 C2       5.8136  14.8202  10.0533   C.ar      1 RES1   0.0000
    10 C3       4.8519  16.4249   8.6442   C.ar      1 RES1   0.0000
    11 C4       1.7547  17.9923   9.6588   C.ar      1 RES1   0.0000
    12 H1       1.1427  17.8777  10.3485   H         1 RES1   0.0000
    13 C5       3.7031  17.3472   8.5845   C.ar      1 RES1   0.0000
    14 C6       4.0393  13.7966  13.0289   C.ar      1 RES1   0.0000
    15 H2       3.2199  13.9939  13.4219   H         1 RES1   0.0000
    16 C7       1.5307  18.9827   8.7170   C.ar      1 RES1   0.0000
    17 C8       6.8086  15.2543   7.9280   C.ar      1 RES1   0.0000
    18 C9       6.8195  14.5623   9.1450   C.ar      1 RES1   0.0000
    19 H3       7.4874  13.9443   9.3353   H         1 RES1   0.0000
    20 C10      3.5193  18.3122   7.5990   C.ar      1 RES1   0.0000
    21 H4       4.1319  18.3975   6.9047   H         1 RES1   0.0000
    22 C11      5.8174  16.2063   7.6761   C.ar      1 RES1   0.0000
    23 H5       5.8058  16.6808   6.8774   H         1 RES1   0.0000
    24 C12      2.4273  19.1336   7.6645   C.ar      1 RES1   0.0000
    25 H6       2.2876  19.7849   7.0142   H         1 RES1   0.0000
    26 C13      4.8540  12.8860  13.6316   C.ar      1 RES1   0.0000
    27 C14      6.4538  13.2483  11.9181   C.ar      1 RES1   0.0000
    28 H7       7.2828  13.0873  11.5291   H         1 RES1   0.0000
    29 C15      6.1042  12.6113  13.0827   C.ar      1 RES1   0.0000
    30 H8       6.6854  12.0131  13.4939   H         1 RES1   0.0000
    31 C16      7.7108  15.6498   5.3207   C.3       1 RES1   0.0000
    32 H9       8.2762  15.3166   4.6204   H         1 RES1   0.0000
    33 H10      7.8582  16.5926   5.4295   H         1 RES1   0.0000
    34 H11      6.7918  15.4942   5.0922   H         1 RES1   0.0000
    35 Cl1A     6.5283  19.9694  12.9800   Cl        1 RES1   0.0000
    36 Cl2A     2.3355  12.0997   6.7590   Cl        1 RES1   0.0000
    37 S1A     -1.4237  14.8304  15.0291   S.3       1 RES1   0.0000
    38 N1A      2.2870  14.4147   9.9369   N.ar      1 RES1   0.0000
    39 N2A      1.8160  15.7298  12.0419   N.ar      1 RES1   0.0000
    40 N3A      3.8399  17.2003  12.2326   N.ar      1 RES1   0.0000
    41 C1A      1.0833  14.1246  10.5046   C.ar      1 RES1   0.0000
    42 C2A      0.8480  14.8202  11.7828   C.ar      1 RES1   0.0000
    43 C3A      1.8097  16.4249  13.1919   C.ar      1 RES1   0.0000
    44 C4A      4.9069  17.9923  12.1773   C.ar      1 RES1   0.0000
    45 H1A      5.5189  17.8777  11.4876   H         1 RES1   0.0000
    46 C5A      2.9585  17.3472  13.2516   C.ar      1 RES1   0.0000
    47 C6A      2.6223  13.7966   8.8072   C.ar      1 RES1   0.0000
    48 H2A      3.4417  13.9939   8.4142   H         1 RES1   0.0000
    49 C7A      5.1309  18.9827  13.1191   C.ar      1 RES1   0.0000
    50 C8A     -0.1470  15.2543  13.9081   C.ar      1 RES1   0.0000
    51 C9A     -0.1579  14.5623  12.6911   C.ar      1 RES1   0.0000
    52 H3A     -0.8258  13.9443  12.5008   H         1 RES1   0.0000
    53 C10A     3.1423  18.3122  14.2371   C.ar      1 RES1   0.0000
    54 H4A      2.5297  18.3975  14.9314   H         1 RES1   0.0000
    55 C11A     0.8442  16.2063  14.1600   C.ar      1 RES1   0.0000
    56 H5A      0.8558  16.6808  14.9588   H         1 RES1   0.0000
    57 C12A     4.2343  19.1336  14.1716   C.ar      1 RES1   0.0000
    58 H6A      4.3740  19.7849  14.8219   H         1 RES1   0.0000
    59 C13A     1.8076  12.8860   8.2046   C.ar      1 RES1   0.0000
    60 C14A     0.2078  13.2483   9.9180   C.ar      1 RES1   0.0000
    61 H7A     -0.6212  13.0873  10.3070   H         1 RES1   0.0000
    62 C15A     0.5574  12.6113   8.7534   C.ar      1 RES1   0.0000
    63 H8A     -0.0238  12.0131   8.3422   H         1 RES1   0.0000
    64 C16A    -1.0492  15.6498  16.5154   C.3       1 RES1   0.0000
    65 H9A     -1.6146  15.3166  17.2157   H         1 RES1   0.0000
    66 H10A    -1.1967  16.5926  16.4066   H         1 RES1   0.0000
    67 H11A    -0.1302  15.4942  16.7439   H         1 RES1   0.0000
    68 P1       9.2707  17.0499  10.9181   P.3       2 RES2  -1.0000
    69 F1       8.6386  17.0447   9.4769   F         2 RES2   0.0000
    70 F2       9.2707  15.4816  10.9181   F         2 RES2   0.0000
    71 F3       7.8027  17.0116  11.4785   F         2 RES2   0.0000
    72 F4       9.2707  18.5794  10.9181   F         2 RES2   0.0000
    73 F1A      9.9028  17.0447  12.3592   F         2 RES2   0.0000
    74 F3A     10.7387  17.0116  10.3576   F         2 RES2   0.0000
    75 P2       9.2707  10.4509  10.9181   P.3       3 RES3  -1.0000
    76 F5       7.6989  10.4845  10.9981   F         3 RES3   0.0000
    77 F6       9.2707   8.9451  10.9181   F         3 RES3   0.0000
    78 F7       9.2707  11.9576  10.9181   F         3 RES3   0.0000
    79 F8       9.2873  10.4442  12.3898   F         3 RES3   0.0000
    80 F5A     10.8425  10.4845  10.8380   F         3 RES3   0.0000
    81 F8A      9.2541  10.4442   9.4463   F         3 RES3   0.0000
@<TRIPOS>BOND
     1     1     5    1
     2     2    16    1
     3     3    26    1
     4     4    17    1
     5     5     8   ar
     6     6     1    1
     7     7     1    1
     8     8     9    1
     9     9     6   ar
    10    10     6   ar
    11    11     7   ar
    12    12    11    1
    13    13     7   ar
    14    14     5   ar
    15    15    14    1
    16    16    11   ar
    17    17    18   ar
    18    18     9   ar
    19    19    18    1
    20    20    13   ar
    21    21    20    1
    22    22    10   ar
    23    23    22    1
    24    24    16   ar
    25    25    24    1
    26    26    14   ar
    27    27     8   ar
    28    28    27    1
    29    29    26   ar
    30    30    29    1
    31    31     4    1
    32    32    31    1
    33    33    31    1
    34    34    31    1
    35    35    49    1
    36    36    59    1
    37    37    50    1
    38    38     1    1
    39    39     1    1
    40    40     1    1
    41    41    38   ar
    42    42    39   ar
    43    43    39   ar
    44    44    40   ar
    45    45    44    1
    46    46    40   ar
    47    47    38   ar
    48    48    47    1
    49    49    44   ar
    50    50    51   ar
    51    51    42   ar
    52    52    51    1
    53    53    46   ar
    54    54    53    1
    55    55    43   ar
    56    56    55    1
    57    57    49   ar
    58    58    57    1
    59    59    47   ar
    60    60    41   ar
    61    61    60    1
    62    62    59   ar
    63    63    62    1
    64    64    37    1
    65    65    64    1
    66    66    64    1
    67    67    64    1
    68    10    13    1
    69    17    22   ar
    70    20    24   ar
    71    27    29   ar
    72    41    42    1
    73    43    46    1
    74    50    55   ar
    75    53    57   ar
    76    60    62   ar
    77    68    69    1
    78    70    68    1
    79    71    68    1
    80    72    68    1
    81    73    68    1
    82    74    68    1
    83    75    76    1
    84    77    75    1
    85    78    75    1
    86    79    75    1
    87    80    75    1
    88    81    75    1
@<TRIPOS>SUBSTRUCTURE
     1 RES1        1 GROUP             0 ****  ****    0  
     2 RES2       68 GROUP             0 ****  ****    0  
     3 RES3       75 GROUP             0 ****  ****    0  
@<TRIPOS>CRYSIN
   11.8798   23.6831   14.9673   90.0000  103.4400   90.0000    15     1
