@<TRIPOS>MOLECULE
JIKZUB
    76    82     4     0     0
SMALL
USER_CHARGES
****
Generated from the CSD

@<TRIPOS>ATOM
     1 Fe1      5.2561   5.4770   3.8370   Fe        1 RES1   2.0000
     2 O1       3.7479   4.7780   3.6161   O.2       1 RES1   0.0000
     3 N1       7.2540   6.0570   3.9651   N.3       1 RES1   0.0000
     4 C1       7.9035   4.7945   3.4856   C.3       1 RES1   0.0000
     5 H1       8.9024   4.8545   3.4624   H         1 RES1   0.0000
     6 N2       5.0412   7.3781   3.0547   N.ar      1 RES1   0.0000
     7 C2       7.2899   4.5212   2.1149   C.ar      1 RES1   0.0000
     8 N3       5.1941   6.3317   5.7246   N.ar      1 RES1   0.0000
     9 C3       7.9715   4.0279   1.0204   C.ar      1 RES1   0.0000
    10 H2       8.9066   3.8638   1.0513   H         1 RES1   0.0000
    11 N4       6.0834   3.8193   4.6505   N.ar      1 RES1   0.0000
    12 C4       7.2238   3.7799  -0.1407   C.ar      1 RES1   0.0000
    13 H3       7.6527   3.4387  -0.9177   H         1 RES1   0.0000
    14 N5       5.9739   4.7767   2.0817   N.ar      1 RES1   0.0000
    15 C5       5.8701   4.0291  -0.1547   C.ar      1 RES1   0.0000
    16 H4       5.3598   3.8607  -0.9382   H         1 RES1   0.0000
    17 C6       5.2621   4.5275   0.9807   C.ar      1 RES1   0.0000
    18 H5       4.3272   4.6946   0.9783   H         1 RES1   0.0000
    19 C7       7.3994   3.6960   4.3973   C.ar      1 RES1   0.0000
    20 C8       8.1320   2.6573   4.9037   C.ar      1 RES1   0.0000
    21 H6       9.0664   2.5964   4.7485   H         1 RES1   0.0000
    22 C9       7.4636   1.6897   5.6568   C.ar      1 RES1   0.0000
    23 H7       7.9447   0.9563   6.0192   H         1 RES1   0.0000
    24 C10      6.1306   1.7940   5.8703   C.ar      1 RES1   0.0000
    25 H8       5.6737   1.1203   6.3603   H         1 RES1   0.0000
    26 C11      5.4283   2.8938   5.3691   C.ar      1 RES1   0.0000
    27 H9       4.4973   2.9851   5.5351   H         1 RES1   0.0000
    28 C12      7.4787   7.2090   3.0611   C.3       1 RES1   0.0000
    29 H10      7.7951   6.8834   2.1810   H         1 RES1   0.0000
    30 H11      8.1810   7.7956   3.4411   H         1 RES1   0.0000
    31 C13      6.1948   8.0061   2.8770   C.ar      1 RES1   0.0000
    32 C14      6.3081   9.3615   2.4921   C.ar      1 RES1   0.0000
    33 H12      7.1583   9.7561   2.3347   H         1 RES1   0.0000
    34 C15      5.1658  10.0811   2.3527   C.ar      1 RES1   0.0000
    35 H13      5.2145  11.0059   2.1399   H         1 RES1   0.0000
    36 C16      3.9159   9.4695   2.5190   C.ar      1 RES1   0.0000
    37 C17      2.7113  10.1701   2.3553   C.ar      1 RES1   0.0000
    38 H14      2.7379  11.1016   2.1711   H         1 RES1   0.0000
    39 C18      1.4991   9.5471   2.4550   C.ar      1 RES1   0.0000
    40 H15      0.6977  10.0385   2.3237   H         1 RES1   0.0000
    41 C19      1.4482   8.1714   2.7542   C.ar      1 RES1   0.0000
    42 H16      0.6050   7.7388   2.8282   H         1 RES1   0.0000
    43 C20      2.6093   7.4454   2.9396   C.ar      1 RES1   0.0000
    44 H17      2.5646   6.5154   3.1280   H         1 RES1   0.0000
    45 C21      3.8517   8.0850   2.8501   C.ar      1 RES1   0.0000
    46 C22      7.5977   6.3940   5.3627   C.3       1 RES1   0.0000
    47 H18      8.2134   7.1689   5.3694   H         1 RES1   0.0000
    48 H19      8.0668   5.6279   5.7777   H         1 RES1   0.0000
    49 C23      6.3836   6.7245   6.1746   C.ar      1 RES1   0.0000
    50 C24      6.5517   7.4022   7.4073   C.ar      1 RES1   0.0000
    51 H20      7.4169   7.6844   7.6783   H         1 RES1   0.0000
    52 C25      5.5038   7.6438   8.1860   C.ar      1 RES1   0.0000
    53 H21      5.6159   8.0983   9.0128   H         1 RES1   0.0000
    54 C26      4.2104   7.2166   7.7691   C.ar      1 RES1   0.0000
    55 C27      3.0719   7.4200   8.5798   C.ar      1 RES1   0.0000
    56 H22      3.1556   7.8614   9.4167   H         1 RES1   0.0000
    57 C28      1.8333   6.9699   8.1489   C.ar      1 RES1   0.0000
    58 H23      1.0633   7.1120   8.6875   H         1 RES1   0.0000
    59 C29      1.7144   6.3062   6.9188   C.ar      1 RES1   0.0000
    60 H24      0.8629   5.9973   6.6347   H         1 RES1   0.0000
    61 C30      2.8095   6.0977   6.1222   C.ar      1 RES1   0.0000
    62 H25      2.7134   5.6377   5.2959   H         1 RES1   0.0000
    63 C31      4.0783   6.5618   6.5224   C.ar      1 RES1   0.0000
    64 Cl1      1.6664   4.2805  -0.9135   Cl        2 RES2   0.0000
    65 O2       2.9265   3.5244  -0.9475   O.3       2 RES2  -1.0000
    66 O3       1.5709   4.9700   0.3401   O.2       2 RES2   0.0000
    67 O4       0.7269   3.2294  -1.0485   O.2       2 RES2   0.0000
    68 O5       1.5747   5.1505  -2.0267   O.2       2 RES2   0.0000
    69 Cl2      1.8001   1.3686   5.6201   Cl        3 RES3   0.0000
    70 O6       2.0977   2.6891   5.1236   O.3       3 RES3  -1.0000
    71 O7       0.7345   1.5003   6.5774   O.2       3 RES3   0.0000
    72 O8       2.9681   0.8493   6.2654   O.2       3 RES3   0.0000
    73 O9       1.3802   0.4933   4.5738   O.2       3 RES3   0.0000
    74 O10      1.0422   3.5231   2.6404   O.3       4 RES4   0.0000
    75 H26      1.1329   4.0685   1.9308   H         4 RES4   0.0000
    76 H27      1.6993   3.3311   3.1839   H         4 RES4   0.0000
@<TRIPOS>BOND
     1     1     2    2
     2     3     1    1
     3     4     3    1
     4     5     4    1
     5     6     1    1
     6     7     4    1
     7     8     1    1
     8     9     7   ar
     9    10     9    1
    10    11     1    1
    11    12     9   ar
    12    13    12    1
    13    14     1    1
    14    15    12   ar
    15    16    15    1
    16    17    14   ar
    17    18    17    1
    18    19     4    1
    19    20    19   ar
    20    21    20    1
    21    22    20   ar
    22    23    22    1
    23    24    22   ar
    24    25    24    1
    25    26    11   ar
    26    27    26    1
    27    28     3    1
    28    29    28    1
    29    30    28    1
    30    31     6   ar
    31    32    31   ar
    32    33    32    1
    33    34    32   ar
    34    35    34    1
    35    36    34   ar
    36    37    36   ar
    37    38    37    1
    38    39    37   ar
    39    40    39    1
    40    41    39   ar
    41    42    41    1
    42    43    41   ar
    43    44    43    1
    44    45     6   ar
    45    46     3    1
    46    47    46    1
    47    48    46    1
    48    49     8   ar
    49    50    49   ar
    50    51    50    1
    51    52    50   ar
    52    53    52    1
    53    54    52   ar
    54    55    54   ar
    55    56    55    1
    56    57    55   ar
    57    58    57    1
    58    59    57   ar
    59    60    59    1
    60    61    59   ar
    61    62    61    1
    62    63     8   ar
    63     7    14   ar
    64    11    19   ar
    65    15    17   ar
    66    24    26   ar
    67    28    31    1
    68    36    45   ar
    69    43    45   ar
    70    46    49    1
    71    54    63   ar
    72    61    63   ar
    73    64    65    1
    74    66    64    2
    75    67    64    2
    76    68    64    2
    77    69    70    1
    78    71    69    2
    79    72    69    2
    80    73    69    2
    81    74    75    1
    82    76    74    1
@<TRIPOS>SUBSTRUCTURE
     1 RES1        1 GROUP             0 ****  ****    0  
     2 RES2       64 GROUP             0 ****  ****    0  
     3 RES3       69 GROUP             0 ****  ****    0  
     4 RES4       74 GROUP             0 ****  ****    0  
@<TRIPOS>CRYSIN
   18.8809   12.7142   12.7866   90.0000   90.0000   90.0000    33     1
