@<TRIPOS>MOLECULE
JIRFOG
    82    91     2     0     0
SMALL
NO_CHARGES
****
Generated from the CSD

@<TRIPOS>ATOM
     1 Fe1      8.9169   5.6373   4.3894   Fe        1 RES1   0.0000
     2 N1       8.2395   4.5208   2.9996   N.2       1 RES1   0.0000
     3 N2       7.3390   6.6992   4.1942   N.2       1 RES1   0.0000
     4 N3       7.9292   4.5235   5.6011   N.2       1 RES1   0.0000
     5 N4      10.5183   4.8294   3.7257   N.2       1 RES1   0.0000
     6 N5       9.6349   7.3141   3.8507   N.2       1 RES1   0.0000
     7 N6       9.8694   5.9025   6.0336   N.2       1 RES1   0.0000
     8 N7       7.6500   3.7505   7.8403   N.pl3     1 RES1   0.0000
     9 O1       6.8961   4.2653   2.8749   O.3       1 RES1   0.0000
    10 O2       6.0872   6.1491   4.2098   O.3       1 RES1   0.0000
    11 O3       6.6722   4.0355   5.2919   O.3       1 RES1   0.0000
    12 O4      11.7591   5.2909   4.0708   O.3       1 RES1   0.0000
    13 O5      10.9807   7.5936   3.9162   O.3       1 RES1   0.0000
    14 O6      11.0879   6.5001   6.0883   O.3       1 RES1   0.0000
    15 B1       6.1377   4.6665   4.0802   B         1 RES1   0.0000
    16 F1       4.8466   4.2469   3.9344   F         1 RES1   0.0000
    17 B2      11.7141   6.6122   4.7376   B         1 RES1   0.0000
    18 F2      12.9760   7.0452   4.9041   F         1 RES1   0.0000
    19 C1       7.4454   7.9441   3.7866   C.2       1 RES1   0.0000
    20 C2       6.3121   8.8329   3.4525   C.ar      1 RES1   0.0000
    21 C3       5.1726   8.8988   4.2051   C.ar      1 RES1   0.0000
    22 H1       5.0857   8.3192   4.8719   H         1 RES1   0.0000
    23 C4       4.1638   9.7898   3.8991   C.ar      1 RES1   0.0000
    24 H2       3.4734   9.8421   4.3410   H         1 RES1   0.0000
    25 C5       4.2758  10.6263   2.8388   C.ar      1 RES1   0.0000
    26 H3       3.4963  11.2286   2.8107   H         1 RES1   0.0000
    27 C6       5.4210  10.5717   2.0487   C.ar      1 RES1   0.0000
    28 H4       5.5115  11.0695   1.2492   H         1 RES1   0.0000
    29 C7       6.4219   9.6625   2.3438   C.ar      1 RES1   0.0000
    30 H5       7.2704   9.6239   1.7801   H         1 RES1   0.0000
    31 C8       8.8214   8.3396   3.7086   C.2       1 RES1   0.0000
    32 C9       9.3209   9.7307   3.5680   C.ar      1 RES1   0.0000
    33 C10      8.8760  10.7104   4.3987   C.ar      1 RES1   0.0000
    34 H6       8.3931  10.4672   4.9656   H         1 RES1   0.0000
    35 C11      9.3427  11.9923   4.2910   C.ar      1 RES1   0.0000
    36 H7       9.0828  12.5470   4.7626   H         1 RES1   0.0000
    37 C12     10.2360  12.3356   3.3151   C.ar      1 RES1   0.0000
    38 H8      10.5203  13.2516   3.2323   H         1 RES1   0.0000
    39 C13     10.6548  11.3741   2.4562   C.ar      1 RES1   0.0000
    40 H9      11.2275  11.5241   1.8738   H         1 RES1   0.0000
    41 C14     10.2220  10.0671   2.5812   C.ar      1 RES1   0.0000
    42 H10     10.5319   9.3875   1.9675   H         1 RES1   0.0000
    43 C15     10.4441   4.0616   2.6811   C.2       1 RES1   0.0000
    44 C16     11.5979   3.6573   1.8379   C.ar      1 RES1   0.0000
    45 C17     11.5216   3.7868   0.4716   C.ar      1 RES1   0.0000
    46 H11     10.8516   4.0550   0.1093   H         1 RES1   0.0000
    47 C18     12.5922   3.4913  -0.3357   C.ar      1 RES1   0.0000
    48 H12     12.5858   3.6823  -1.2492   H         1 RES1   0.0000
    49 C19     13.7514   3.0595   0.2030   C.ar      1 RES1   0.0000
    50 H13     14.5351   2.8185  -0.2655   H         1 RES1   0.0000
    51 C20     13.8601   2.8867   1.5709   C.ar      1 RES1   0.0000
    52 H14     14.6711   2.5458   1.9675   H         1 RES1   0.0000
    53 C21     12.7785   3.1981   2.3672   C.ar      1 RES1   0.0000
    54 H15     12.8683   3.1436   3.2167   H         1 RES1   0.0000
    55 C22      9.0605   3.7470   2.3438   C.2       1 RES1   0.0000
    56 C23      8.6508   2.6685   1.4257   C.ar      1 RES1   0.0000
    57 C24      9.2241   1.4252   1.5490   C.ar      1 RES1   0.0000
    58 H16      9.7892   1.2388   2.1861   H         1 RES1   0.0000
    59 C25      8.8694   0.3887   0.6949   C.ar      1 RES1   0.0000
    60 H17      9.2212  -0.4773   0.7495   H         1 RES1   0.0000
    61 C26      7.9642   0.6228  -0.3014   C.ar      1 RES1   0.0000
    62 H18      7.6749  -0.1137  -0.8432   H         1 RES1   0.0000
    63 C27      7.3850   1.8616  -0.4325   C.ar      1 RES1   0.0000
    64 H19      6.8039   2.0002  -1.0618   H         1 RES1   0.0000
    65 C28      7.7341   2.8731   0.4310   C.ar      1 RES1   0.0000
    66 H20      7.3515   3.5913   0.3591   H         1 RES1   0.0000
    67 C29      9.4984   5.2188   7.0736   C.2       1 RES1   0.0000
    68 Cl1     10.4384   5.1195   8.4765   Cl        1 RES1   0.0000
    69 C30      8.2875   4.4619   6.8659   C.2       1 RES1   0.0000
    70 C31      7.4950   4.2437   9.1738   C.3       1 RES1   0.0000
    71 H21      7.9927   5.0597   9.2738   H         1 RES1   0.0000
    72 H22      7.8218   3.5913   9.7969   H         1 RES1   0.0000
    73 H23      6.5666   4.4142   9.3471   H         1 RES1   0.0000
    74 C32      7.0814   2.4412   7.5327   C.3       1 RES1   0.0000
    75 H24      7.2596   2.2253   6.6145   H         1 RES1   0.0000
    76 H25      6.1331   2.4617   7.6795   H         1 RES1   0.0000
    77 H26      7.4796   1.7775   8.1011   H         1 RES1   0.0000
    78 C33      8.7442   7.2213  -1.1009   C.3       2 RES2   0.0000
    79 H27      8.2336   6.4690  -1.4413   H         2 RES2   0.0000
    80 H28      9.5545   7.2895  -1.6286   H         2 RES2   0.0000
    81 Cl2      9.1686   6.9076   0.5297   Cl        2 RES2   0.0000
    82 Cl3      7.8110   8.6729  -1.3101   Cl        2 RES2   0.0000
@<TRIPOS>BOND
     1     1     2    1
     2     2     9    1
     3     3     1    1
     4     4     1    1
     5     5     1    1
     6     6     1    1
     7     7     1    1
     8     8    69    1
     9     9    15    1
    10    10     3    1
    11    11     4    1
    12    12     5    1
    13    13     6    1
    14    14     7    1
    15    15    10    1
    16    16    15    1
    17    17    12    1
    18    18    17    1
    19    19     3    2
    20    20    19    1
    21    21    20   ar
    22    22    21    1
    23    23    21   ar
    24    24    23    1
    25    25    23   ar
    26    26    25    1
    27    27    25   ar
    28    28    27    1
    29    29    20   ar
    30    30    29    1
    31    31     6    2
    32    32    31    1
    33    33    32   ar
    34    34    33    1
    35    35    33   ar
    36    36    35    1
    37    37    35   ar
    38    38    37    1
    39    39    37   ar
    40    40    39    1
    41    41    32   ar
    42    42    41    1
    43    43     5    2
    44    44    43    1
    45    45    44   ar
    46    46    45    1
    47    47    45   ar
    48    48    47    1
    49    49    47   ar
    50    50    49    1
    51    51    49   ar
    52    52    51    1
    53    53    44   ar
    54    54    53    1
    55    55     2    2
    56    56    55    1
    57    57    56   ar
    58    58    57    1
    59    59    57   ar
    60    60    59    1
    61    61    59   ar
    62    62    61    1
    63    63    61   ar
    64    64    63    1
    65    65    56   ar
    66    66    65    1
    67    67     7    2
    68    68    67    1
    69    69     4    2
    70    70     8    1
    71    71    70    1
    72    72    70    1
    73    73    70    1
    74    74     8    1
    75    75    74    1
    76    76    74    1
    77    77    74    1
    78    11    15    1
    79    13    17    1
    80    14    17    1
    81    19    31    1
    82    27    29   ar
    83    39    41   ar
    84    43    55    1
    85    51    53   ar
    86    63    65   ar
    87    67    69    1
    88    78    79    1
    89    80    78    1
    90    81    78    1
    91    82    78    1
@<TRIPOS>SUBSTRUCTURE
     1 RES1        1 GROUP             0 ****  ****    0  
     2 RES2       78 GROUP             0 ****  ****    0  
@<TRIPOS>CRYSIN
   10.4790   22.7300   15.6290   90.0000   92.4240   90.0000   231     1
