@<TRIPOS>MOLECULE
JIRFUM
    89    97     3     0     0
SMALL
NO_CHARGES
****
Generated from the CSD

@<TRIPOS>ATOM
     1 Fe1      3.1176   7.8063   4.1894   Fe        1 RES1   0.0000
     2 O1       5.8368   6.9615   4.6528   O.3       1 RES1   0.0000
     3 O2       5.5375   8.5688   2.8228   O.3       1 RES1   0.0000
     4 O3       5.4129   9.3282   5.1375   O.3       1 RES1   0.0000
     5 O4       0.8625   6.0558   3.7508   O.3       1 RES1   0.0000
     6 O5       0.5780   7.5979   5.6272   O.3       1 RES1   0.0000
     7 O6       0.4298   8.3752   3.2868   O.3       1 RES1   0.0000
     8 N1       4.5225   6.5481   4.5440   N.2       1 RES1   0.0000
     9 N2       4.1616   8.4667   2.7424   N.2       1 RES1   0.0000
    10 N3       4.0545   9.0621   5.3294   N.2       1 RES1   0.0000
    11 N4       2.2546   6.1473   3.8622   N.2       1 RES1   0.0000
    12 N5       1.9114   8.0029   5.6611   N.2       1 RES1   0.0000
    13 N6       1.7852   8.5951   3.0794   N.2       1 RES1   0.0000
    14 B1       6.0290   8.3942   4.1862   B         1 RES1   0.0000
    15 F1       7.3565   8.6372   4.1824   F         1 RES1   0.0000
    16 B2       0.2039   7.2539   4.2744   B         1 RES1   0.0000
    17 F2      -1.1427   6.9930   4.2407   F         1 RES1   0.0000
    18 C1       4.3068   5.2826   4.3470   C.2       1 RES1   0.0000
    19 C2       5.2970   4.1992   4.3288   C.ar      1 RES1   0.0000
    20 C3       6.3077   4.0877   5.2983   C.ar      1 RES1   0.0000
    21 H1       6.3883   4.7357   5.9618   H         1 RES1   0.0000
    22 C4       7.1863   3.0116   5.2697   C.ar      1 RES1   0.0000
    23 H2       7.8582   2.9432   5.9100   H         1 RES1   0.0000
    24 C5       7.0646   2.0544   4.3055   C.ar      1 RES1   0.0000
    25 H3       7.6514   1.3328   4.2847   H         1 RES1   0.0000
    26 C6       6.0774   2.1606   3.3671   C.ar      1 RES1   0.0000
    27 H4       5.9908   1.4947   2.7243   H         1 RES1   0.0000
    28 C7       5.2163   3.2146   3.3490   C.ar      1 RES1   0.0000
    29 H5       4.5723   3.2767   2.6802   H         1 RES1   0.0000
    30 C8       2.8854   5.0418   4.0955   C.2       1 RES1   0.0000
    31 C9       2.2649   3.7216   4.1163   C.ar      1 RES1   0.0000
    32 C10      2.3984   2.9032   5.2490   C.ar      1 RES1   0.0000
    33 H6       2.9147   3.2051   5.9618   H         1 RES1   0.0000
    34 C11      1.8102   1.7062   5.3449   C.ar      1 RES1   0.0000
    35 H7       1.8982   1.1834   6.1096   H         1 RES1   0.0000
    36 C12      1.0327   1.2570   4.2122   C.ar      1 RES1   0.0000
    37 H8       0.6498   0.4092   4.2173   H         1 RES1   0.0000
    38 C13      0.8713   2.0344   3.2012   C.ar      1 RES1   0.0000
    39 H9       0.3169   1.7493   2.5092   H         1 RES1   0.0000
    40 C14      1.4786   3.2672   3.0846   C.ar      1 RES1   0.0000
    41 H10      1.3583   3.7837   2.3225   H         1 RES1   0.0000
    42 C15      3.5778   9.0853   1.7756   C.2       1 RES1   0.0000
    43 C16      4.3215   9.8553   0.7465   C.ar      1 RES1   0.0000
    44 C17      5.3219   9.2336   0.0078   C.ar      1 RES1   0.0000
    45 H11      5.5552   8.3479   0.1659   H         1 RES1   0.0000
    46 C18      5.9527   9.9668  -0.9643   C.ar      1 RES1   0.0000
    47 H12      6.6275   9.5786  -1.4749   H         1 RES1   0.0000
    48 C19      5.5889  11.2890  -1.1924   C.ar      1 RES1   0.0000
    49 H13      6.0422  11.7813  -1.8378   H         1 RES1   0.0000
    50 C20      4.6207  11.8549  -0.5184   C.ar      1 RES1   0.0000
    51 H14      4.3714  12.7280  -0.7154   H         1 RES1   0.0000
    52 C21      3.9650  11.1670   0.4873   C.ar      1 RES1   0.0000
    53 H15      3.2932  11.5804   0.9824   H         1 RES1   0.0000
    54 C22      2.1255   9.0358   1.8793   C.2       1 RES1   0.0000
    55 C23      1.2205   9.3367   0.7750   C.ar      1 RES1   0.0000
    56 C24      1.6209   8.9916  -0.5366   C.ar      1 RES1   0.0000
    57 H16      2.4585   8.6098  -0.6714   H         1 RES1   0.0000
    58 C25      0.7980   9.2083  -1.6201   C.ar      1 RES1   0.0000
    59 H17      1.0092   8.8949  -2.4677   H         1 RES1   0.0000
    60 C26     -0.4401   9.9646  -1.3531   C.ar      1 RES1   0.0000
    61 H18     -0.9638  10.2466  -2.0685   H         1 RES1   0.0000
    62 C27     -0.8244  10.2539  -0.1089   C.ar      1 RES1   0.0000
    63 H19     -1.6459  10.6652   0.0441   H         1 RES1   0.0000
    64 C28     -0.0015   9.9415   0.9383   C.ar      1 RES1   0.0000
    65 H20     -0.2831  10.1477   1.7989   H         1 RES1   0.0000
    66 C29      2.1754   8.8707   6.6047   C.2       1 RES1   0.0000
    67 N7       1.2806   9.2935   7.5145   N.pl3     1 RES1   0.0000
    68 H21      0.4753   8.9895   7.5015   H         1 RES1   0.0000
    69 H22      1.5124   9.8679   8.1133   H         1 RES1   0.0000
    70 C30      3.5367   9.4177   6.4802   C.2       1 RES1   0.0000
    71 N8       4.0516  10.2024   7.4238   N.pl3     1 RES1   0.0000
    72 C31      5.0036  11.2722   7.0505   C.3       1 RES1   0.0000
    73 H23      4.9405  11.4426   6.1096   H         1 RES1   0.0000
    74 H24      5.8969  10.9955   7.2682   H         1 RES1   0.0000
    75 H25      4.7894  12.0727   7.5378   H         1 RES1   0.0000
    76 C32      4.0237   9.8605   8.8287   C.3       1 RES1   0.0000
    77 H26      3.3753   9.1673   8.9764   H         1 RES1   0.0000
    78 H27      3.7846  10.6358   9.3419   H         1 RES1   0.0000
    79 H28      4.8906   9.5513   9.1009   H         1 RES1   0.0000
    80 C33     -2.7035  -0.2945   4.3755   C.3       2 RES2   0.0000
    81 H29     -2.6096   0.0347   5.2801   H         2 RES2   0.0000
    82 H30     -1.9891  -0.9299   4.1992   H         2 RES2   0.0000
    83 Cl1     -4.2833  -1.0687   4.1577   Cl        2 RES2   0.0000
    84 Cl2     -2.6522   0.9741   3.2712   Cl        2 RES2   0.0000
    85 C34      8.8175   0.3313   0.9591   C.3       3 RES3   0.0000
    86 H31      7.9594  -0.0999   0.8139   H         3 RES3   0.0000
    87 H32      9.1168   0.1189   1.8559   H         3 RES3   0.0000
    88 Cl3     10.0013  -0.2714  -0.2307   Cl        3 RES3   0.0000
    89 Cl4      8.6415   2.0701   0.7906   Cl        3 RES3   0.0000
@<TRIPOS>BOND
     1     1     8    1
     2     2     8    1
     3     3     9    1
     4     4    10    1
     5     5    11    1
     6     6    12    1
     7     7    13    1
     8     8    18    2
     9     9     1    1
    10    10     1    1
    11    11     1    1
    12    12     1    1
    13    13     1    1
    14    14     2    1
    15    15    14    1
    16    16     5    1
    17    17    16    1
    18    18    19    1
    19    19    20   ar
    20    20    21    1
    21    22    20   ar
    22    23    22    1
    23    24    22   ar
    24    25    24    1
    25    26    24   ar
    26    27    26    1
    27    28    19   ar
    28    29    28    1
    29    30    11    2
    30    31    30    1
    31    32    31   ar
    32    33    32    1
    33    34    32   ar
    34    35    34    1
    35    36    34   ar
    36    37    36    1
    37    38    36   ar
    38    39    38    1
    39    40    31   ar
    40    41    40    1
    41    42     9    2
    42    43    42    1
    43    44    43   ar
    44    45    44    1
    45    46    44   ar
    46    47    46    1
    47    48    46   ar
    48    49    48    1
    49    50    48   ar
    50    51    50    1
    51    52    43   ar
    52    53    52    1
    53    54    13    2
    54    55    54    1
    55    56    55   ar
    56    57    56    1
    57    58    56   ar
    58    59    58    1
    59    60    58   ar
    60    61    60    1
    61    62    60   ar
    62    63    62    1
    63    64    55   ar
    64    65    64    1
    65    66    12    2
    66    67    66    1
    67    68    67    1
    68    69    67    1
    69    70    10    2
    70    71    70    1
    71    72    71    1
    72    73    72    1
    73    74    72    1
    74    75    72    1
    75    76    71    1
    76    77    76    1
    77    78    76    1
    78    79    76    1
    79     3    14    1
    80     4    14    1
    81     6    16    1
    82     7    16    1
    83    18    30    1
    84    26    28   ar
    85    38    40   ar
    86    42    54    1
    87    50    52   ar
    88    62    64   ar
    89    66    70    1
    90    80    81    1
    91    82    80    1
    92    83    80    1
    93    84    80    1
    94    85    86    1
    95    87    85    1
    96    88    85    1
    97    89    85    1
@<TRIPOS>SUBSTRUCTURE
     1 RES1        1 GROUP             0 ****  ****    0  
     2 RES2       80 GROUP             0 ****  ****    0  
     3 RES3       85 GROUP             0 ****  ****    0  
@<TRIPOS>CRYSIN
   14.6690   10.5190   25.9210   90.0000   90.0000   90.0000    19     1
