@<TRIPOS>MOLECULE
JIRFIA
    81    89     3     0     0
SMALL
NO_CHARGES
****
Generated from the CSD

@<TRIPOS>ATOM
     1 Fe1      7.5030   6.7669  15.8437   Fe        1 RES1   0.0000
     2 N1       8.5814   5.6429  14.7510   N.2       1 RES1   0.0000
     3 N2       8.2136   8.2513  14.8718   N.2       1 RES1   0.0000
     4 O1       8.8294   5.9359  13.4399   O.3       1 RES1   0.0000
     5 O2       8.2013   8.2939  13.5083   O.3       1 RES1   0.0000
     6 N3       6.1786   6.6426  14.4586   N.2       1 RES1   0.0000
     7 O3       6.4821   6.5964  13.1189   O.3       1 RES1   0.0000
     8 N4       5.8782   7.1522  16.8186   N.2       1 RES1   0.0000
     9 O4       5.7982   7.1593  18.1757   O.3       1 RES1   0.0000
    10 N5       7.6532   5.1972  16.9266   N.2       1 RES1   0.0000
    11 O5       7.2533   5.1919  18.2409   O.3       1 RES1   0.0000
    12 N6       8.3928   7.7346  17.2238   N.2       1 RES1   0.0000
    13 O6       8.2068   7.4345  18.5365   O.3       1 RES1   0.0000
    14 N7       3.8242   7.1469  13.8261   N.pl3     1 RES1   0.0000
    15 H1       3.9217   7.0510  12.9775   H         1 RES1   0.0000
    16 H2       3.0556   7.3582  14.1487   H         1 RES1   0.0000
    17 B1       7.9066   6.9551  12.9044   B         1 RES1   0.0000
    18 F1       8.1139   7.0545  11.5647   F         1 RES1   0.0000
    19 B2       7.0368   6.5503  18.7701   B         1 RES1   0.0000
    20 F2       6.8184   6.4615  20.1082   F         1 RES1   0.0000
    21 C1       8.8363   4.4284  15.1483   C.2       1 RES1   0.0000
    22 C2       9.4834   3.4163  14.2870   C.ar      1 RES1   0.0000
    23 C3      10.6602   3.6951  13.6131   C.ar      1 RES1   0.0000
    24 H3      11.0506   4.5367  13.6831   H         1 RES1   0.0000
    25 C4      11.2566   2.7185  12.8376   C.ar      1 RES1   0.0000
    26 H4      12.0644   2.8960  12.4133   H         1 RES1   0.0000
    27 C5      10.6742   1.5040  12.6866   C.ar      1 RES1   0.0000
    28 H5      11.0659   0.8683  12.1336   H         1 RES1   0.0000
    29 C6       9.5265   1.2163  13.3382   C.ar      1 RES1   0.0000
    30 H6       9.1445   0.3747  13.2429   H         1 RES1   0.0000
    31 C7       8.9092   2.1574  14.1471   C.ar      1 RES1   0.0000
    32 H7       8.1204   1.9496  14.5937   H         1 RES1   0.0000
    33 C8       8.3633   4.1887  16.5119   C.2       1 RES1   0.0000
    34 C9       8.6744   2.9688  17.2842   C.ar      1 RES1   0.0000
    35 C10      9.9698   2.4592  17.2794   C.ar      1 RES1   0.0000
    36 H8      10.6454   2.9156  16.8329   H         1 RES1   0.0000
    37 C11     10.2539   1.2820  17.9310   C.ar      1 RES1   0.0000
    38 H9      11.1206   0.9446  17.9262   H         1 RES1   0.0000
    39 C12      9.2507   0.6019  18.5905   C.ar      1 RES1   0.0000
    40 H10      9.4402  -0.1989  19.0244   H         1 RES1   0.0000
    41 C13      7.9812   1.1009  18.6096   C.ar      1 RES1   0.0000
    42 H11      7.3096   0.6374  19.0578   H         1 RES1   0.0000
    43 C14      7.6854   2.2905  17.9692   C.ar      1 RES1   0.0000
    44 H12      6.8219   2.6332  17.9978   H         1 RES1   0.0000
    45 C15      8.9162   9.1551  15.4995   C.2       1 RES1   0.0000
    46 C16      9.6346  10.2720  14.8432   C.ar      1 RES1   0.0000
    47 C17      9.0866  10.9680  13.8054   C.ar      1 RES1   0.0000
    48 H13      8.2444  10.7247  13.4955   H         1 RES1   0.0000
    49 C18      9.7370  12.0174  13.2015   C.ar      1 RES1   0.0000
    50 H14      9.3272  12.4897  12.5134   H         1 RES1   0.0000
    51 C19     10.9982  12.3654  13.6227   C.ar      1 RES1   0.0000
    52 H15     11.4586  13.0561  13.2031   H         1 RES1   0.0000
    53 C20     11.5751  11.6854  14.6652   C.ar      1 RES1   0.0000
    54 H16     12.4302  11.9180  14.9481   H         1 RES1   0.0000
    55 C21     10.8992  10.6484  15.3041   C.ar      1 RES1   0.0000
    56 H17     11.2846  10.2116  16.0287   H         1 RES1   0.0000
    57 C22      8.9211   8.8905  16.9346   C.2       1 RES1   0.0000
    58 C23      9.3979   9.8476  17.9660   C.ar      1 RES1   0.0000
    59 C24      8.8656  11.1207  18.0200   C.ar      1 RES1   0.0000
    60 H18      8.2225  11.3817  17.4002   H         1 RES1   0.0000
    61 C25      9.2920  12.0156  18.9958   C.ar      1 RES1   0.0000
    62 H19      8.9152  12.8644  19.0419   H         1 RES1   0.0000
    63 C26     10.2282  11.6640  19.8571   C.ar      1 RES1   0.0000
    64 H20     10.5027  12.2713  20.5071   H         1 RES1   0.0000
    65 C27     10.8075  10.4158  19.8095   C.ar      1 RES1   0.0000
    66 H21     11.4803  10.1921  20.4118   H         1 RES1   0.0000
    67 C28     10.3884   9.4978  18.8671   C.ar      1 RES1   0.0000
    68 H22     10.7694   8.6508  18.8384   H         1 RES1   0.0000
    69 C29      4.8792   6.9675  14.6525   C.2       1 RES1   0.0000
    70 C30      4.7661   7.1362  16.1511   C.2       1 RES1   0.0000
    71 Cl1      3.2576   7.2637  16.8202   Cl        1 RES1   0.0000
    72 C31      4.2214   2.6368  14.4093   C.3       2 RES2   0.0000
    73 H23      3.2778   2.5409  14.6509   H         2 RES2   0.0000
    74 Cl2      4.2997   3.6826  13.0712   Cl        2 RES2   0.0000
    75 Cl3      4.9628   3.5033  15.6314   Cl        2 RES2   0.0000
    76 Cl4      4.7972   1.1737  14.1408   Cl        2 RES2   0.0000
    77 C32      8.8925   6.2502   8.7104   C.3       3 RES3   0.0000
    78 H24      8.5117   6.2591   9.6131   H         3 RES3   0.0000
    79 Cl5      9.9018   7.6902   8.4562   Cl        3 RES3   0.0000
    80 Cl6      9.8909   4.9433   8.5229   Cl        3 RES3   0.0000
    81 Cl7      7.7134   6.1348   7.6044   Cl        3 RES3   0.0000
@<TRIPOS>BOND
     1     1     2    1
     2     2     4    1
     3     3     1    1
     4     4    17    1
     5     5     3    1
     6     6     1    1
     7     7     6    1
     8     8     1    1
     9     9     8    1
    10    10     1    1
    11    11    10    1
    12    12     1    1
    13    13    12    1
    14    14    15    1
    15    16    14    1
    16    17     5    1
    17    18    17    1
    18    19     9    1
    19    20    19    1
    20    21     2    2
    21    22    21    1
    22    23    22   ar
    23    24    23    1
    24    25    23   ar
    25    26    25    1
    26    27    25   ar
    27    28    27    1
    28    29    27   ar
    29    30    29    1
    30    31    22   ar
    31    32    31    1
    32    33    10    2
    33    34    33    1
    34    35    34   ar
    35    36    35    1
    36    37    35   ar
    37    38    37    1
    38    39    37   ar
    39    40    39    1
    40    41    39   ar
    41    42    41    1
    42    43    34   ar
    43    44    43    1
    44    45     3    2
    45    46    45    1
    46    47    46   ar
    47    48    47    1
    48    49    47   ar
    49    50    49    1
    50    51    49   ar
    51    52    51    1
    52    53    51   ar
    53    54    53    1
    54    55    46   ar
    55    56    55    1
    56    57    12    2
    57    58    57    1
    58    59    58   ar
    59    60    59    1
    60    61    59   ar
    61    62    61    1
    62    63    61   ar
    63    64    63    1
    64    65    63   ar
    65    66    65    1
    66    67    58   ar
    67    68    67    1
    68    69     6    2
    69    70     8    2
    70    71    70    1
    71     7    17    1
    72    11    19    1
    73    13    19    1
    74    14    69    1
    75    21    33    1
    76    29    31   ar
    77    41    43   ar
    78    45    57    1
    79    53    55   ar
    80    65    67   ar
    81    69    70    1
    82    72    73    1
    83    74    72    1
    84    75    72    1
    85    76    72    1
    86    77    78    1
    87    79    77    1
    88    80    77    1
    89    81    77    1
@<TRIPOS>SUBSTRUCTURE
     1 RES1        1 GROUP             0 ****  ****    0  
     2 RES2       72 GROUP             0 ****  ****    0  
     3 RES3       77 GROUP             0 ****  ****    0  
@<TRIPOS>CRYSIN
   14.1487   17.7562   16.1024   90.0000   99.2710   90.0000   231     1
