@<TRIPOS>MOLECULE
JIRFEW
    93   102     1     0     0
SMALL
NO_CHARGES
****
Generated from the CSD

@<TRIPOS>ATOM
     1 Fe1     -1.7922  -2.7278  -3.7882   Fe        1 RES1   0.0000
     2 O1      -0.3917  -5.2599  -3.5850   O.3       1 RES1   0.0000
     3 O2      -0.4952  -0.1334  -3.9365   O.3       1 RES1   0.0000
     4 O3      -2.7922  -5.3693  -3.0861   O.3       1 RES1   0.0000
     5 O4      -2.1927  -0.3383  -2.1949   O.3       1 RES1   0.0000
     6 O5      -2.0289  -5.1379  -5.4049   O.3       1 RES1   0.0000
     7 O6      -2.8685  -0.1439  -4.5454   O.3       1 RES1   0.0000
     8 N1      -0.2998  -3.8910  -3.6081   N.2       1 RES1   0.0000
     9 N2      -0.3457  -1.4927  -3.9206   N.2       1 RES1   0.0000
    10 N3      -2.7568  -4.0219  -2.7803   N.2       1 RES1   0.0000
    11 N4      -2.3410  -1.7051  -2.2863   N.2       1 RES1   0.0000
    12 N5      -2.2441  -3.7758  -5.3142   N.2       1 RES1   0.0000
    13 N6      -2.7633  -1.4802  -4.8475   N.2       1 RES1   0.0000
    14 B1      -1.7278  -5.7548  -4.0654   B         1 RES1   0.0000
    15 B2      -1.8640   0.3106  -3.5168   B         1 RES1   0.0000
    16 C1       0.9000  -3.3777  -3.7027   C.2       1 RES1   0.0000
    17 C2       0.8741  -1.9608  -3.7994   C.2       1 RES1   0.0000
    18 C3      -3.2511  -3.6747  -1.6201   C.2       1 RES1   0.0000
    19 C4      -3.0651  -2.2731  -1.3632   C.2       1 RES1   0.0000
    20 C5      -2.9707  -3.2427  -6.2523   C.2       1 RES1   0.0000
    21 C6      -3.1924  -1.8530  -6.0210   C.2       1 RES1   0.0000
    22 C7       2.1057  -1.1143  -3.7692   C.3       1 RES1   0.0000
    23 H1       2.0034  -0.4143  -3.1057   H         1 RES1   0.0000
    24 H2       2.2341  -0.6942  -4.6337   H         1 RES1   0.0000
    25 C8       3.3321  -1.9752  -3.4261   C.3       1 RES1   0.0000
    26 H3       4.1403  -1.4844  -3.6407   H         1 RES1   0.0000
    27 H4       3.3391  -2.1607  -2.4740   H         1 RES1   0.0000
    28 C9       3.3210  -3.2826  -4.1908   C.3       1 RES1   0.0000
    29 H5       4.1624  -3.7449  -4.0518   H         1 RES1   0.0000
    30 H6       3.2296  -3.1014  -5.1384   H         1 RES1   0.0000
    31 C10      2.1782  -4.1681  -3.7329   C.3       1 RES1   0.0000
    32 H7       2.0838  -4.9190  -4.3405   H         1 RES1   0.0000
    33 H8       2.3678  -4.5161  -2.8473   H         1 RES1   0.0000
    34 C11     -3.9416  -4.5824  -0.6574   C.3       1 RES1   0.0000
    35 H9      -3.2795  -5.0871  -0.1587   H         1 RES1   0.0000
    36 H10     -4.4913  -5.2139  -1.1471   H         1 RES1   0.0000
    37 C12     -4.8245  -3.7935   0.3234   C.3       1 RES1   0.0000
    38 H11     -5.6346  -3.5168  -0.1330   H         1 RES1   0.0000
    39 H12     -5.0789  -4.3743   1.0579   H         1 RES1   0.0000
    40 C13     -4.1338  -2.5867   0.8705   C.3       1 RES1   0.0000
    41 H13     -3.3623  -2.8749   1.3828   H         1 RES1   0.0000
    42 H14     -4.7374  -2.1332   1.4796   H         1 RES1   0.0000
    43 C14     -3.6701  -1.5872  -0.1934   C.3       1 RES1   0.0000
    44 H15     -4.4278  -1.0588  -0.4882   H         1 RES1   0.0000
    45 H16     -3.0184  -0.9835   0.1965   H         1 RES1   0.0000
    46 C15     -3.5201  -3.9462  -7.4417   C.3       1 RES1   0.0000
    47 H17     -3.9739  -4.7556  -7.1591   H         1 RES1   0.0000
    48 H18     -2.7940  -4.1994  -8.0326   H         1 RES1   0.0000
    49 C16     -4.5029  -3.0440  -8.1958   C.3       1 RES1   0.0000
    50 H19     -4.6862  -3.4284  -9.0663   H         1 RES1   0.0000
    51 H20     -5.3378  -3.0008  -7.7061   H         1 RES1   0.0000
    52 C17     -3.9621  -1.6664  -8.3696   C.3       1 RES1   0.0000
    53 H21     -4.5559  -1.1614  -8.9469   H         1 RES1   0.0000
    54 H22     -3.0953  -1.7162  -8.8033   H         1 RES1   0.0000
    55 C18     -3.8138  -0.9317  -7.0291   C.3       1 RES1   0.0000
    56 H23     -3.2561  -0.1469  -7.1454   H         1 RES1   0.0000
    57 H24     -4.6853  -0.6405  -6.7162   H         1 RES1   0.0000
    58 C19     -1.5984  -7.3258  -4.1621   C.2       1 RES1   0.0000
    59 H25     -0.8284  -7.6760  -3.7768   H         1 RES1   0.0000
    60 C20     -2.4114  -8.2345  -4.7077   C.2       1 RES1   0.0000
    61 C21     -2.0963  -9.7087  -4.6699   C.3       1 RES1   0.0000
    62 H26     -1.2469  -9.8439  -4.2437   H         1 RES1   0.0000
    63 H27     -2.0626 -10.0513  -5.5661   H         1 RES1   0.0000
    64 H28     -2.7794 -10.1695  -4.1772   H         1 RES1   0.0000
    65 C22     -3.7173  -7.8920  -5.3682   C.3       1 RES1   0.0000
    66 H29     -3.8013  -6.9264  -5.4210   H         1 RES1   0.0000
    67 H30     -4.4460  -8.2233  -4.8211   H         1 RES1   0.0000
    68 C23     -3.8398  -8.4716  -6.7510   C.2       1 RES1   0.0000
    69 C24     -4.6979  -9.4482  -7.0261   C.2       1 RES1   0.0000
    70 H31     -4.7195  -9.8223  -7.8769   H         1 RES1   0.0000
    71 H32     -5.2771  -9.7583  -6.3671   H         1 RES1   0.0000
    72 C25     -2.8836  -7.9219  -7.7469   C.3       1 RES1   0.0000
    73 H33     -3.0202  -8.3528  -8.5933   H         1 RES1   0.0000
    74 H34     -1.9848  -8.0796  -7.4492   H         1 RES1   0.0000
    75 H35     -3.0275  -6.9778  -7.8422   H         1 RES1   0.0000
    76 C26     -1.9944   1.8723  -3.4216   C.2       1 RES1   0.0000
    77 H36     -2.7248   2.2295  -3.8735   H         1 RES1   0.0000
    78 C27     -1.2402   2.7617  -2.8065   C.2       1 RES1   0.0000
    79 C28     -1.5514   4.2475  -2.8337   C.3       1 RES1   0.0000
    80 H37     -2.3576   4.3968  -3.3339   H         1 RES1   0.0000
    81 H38     -0.8256   4.7189  -3.2493   H         1 RES1   0.0000
    82 H39     -1.6680   4.5673  -1.9360   H         1 RES1   0.0000
    83 C29      0.0064   2.3881  -2.0267   C.3       1 RES1   0.0000
    84 H40      0.1756   1.4386  -2.1219   H         1 RES1   0.0000
    85 H41      0.7686   2.8681  -2.3848   H         1 RES1   0.0000
    86 C30     -0.1571   2.7250  -0.5652   C.2       1 RES1   0.0000
    87 C31      0.3921   3.7860  -0.0332   C.2       1 RES1   0.0000
    88 H42      0.2744   3.9663   0.8720   H         1 RES1   0.0000
    89 H43      0.8994   4.3601  -0.5592   H         1 RES1   0.0000
    90 C32     -0.9836   1.7680   0.2312   C.3       1 RES1   0.0000
    91 H44     -1.0321   2.0679   1.1425   H         1 RES1   0.0000
    92 H45     -0.5827   0.8976   0.2010   H         1 RES1   0.0000
    93 H46     -1.8696   1.7257  -0.1375   H         1 RES1   0.0000
@<TRIPOS>BOND
     1     1     8    1
     2     2     8    1
     3     3     9    1
     4     4    10    1
     5     5    11    1
     6     6    12    1
     7     7    13    1
     8     8    16    2
     9     9     1    1
    10    10     1    1
    11    11     1    1
    12    12     1    1
    13    13     1    1
    14    14     2    1
    15    15     3    1
    16    16    17    1
    17    17     9    2
    18    18    10    2
    19    19    11    2
    20    20    12    2
    21    21    13    2
    22    22    17    1
    23    23    22    1
    24    24    22    1
    25    25    22    1
    26    26    25    1
    27    27    25    1
    28    28    25    1
    29    29    28    1
    30    30    28    1
    31    31    16    1
    32    32    31    1
    33    33    31    1
    34    34    18    1
    35    35    34    1
    36    36    34    1
    37    37    34    1
    38    38    37    1
    39    39    37    1
    40    40    37    1
    41    41    40    1
    42    42    40    1
    43    43    19    1
    44    44    43    1
    45    45    43    1
    46    46    20    1
    47    47    46    1
    48    48    46    1
    49    49    46    1
    50    50    49    1
    51    51    49    1
    52    52    49    1
    53    53    52    1
    54    54    52    1
    55    55    21    1
    56    56    55    1
    57    57    55    1
    58    58    14    1
    59    59    58    1
    60    60    58    2
    61    61    60    1
    62    62    61    1
    63    63    61    1
    64    64    61    1
    65    65    60    1
    66    66    65    1
    67    67    65    1
    68    68    65    1
    69    69    68    2
    70    70    69    1
    71    71    69    1
    72    72    68    1
    73    73    72    1
    74    74    72    1
    75    75    72    1
    76    76    15    1
    77    77    76    1
    78    78    76    2
    79    79    78    1
    80    80    79    1
    81    81    79    1
    82    82    79    1
    83    83    78    1
    84    84    83    1
    85    85    83    1
    86    86    83    1
    87    87    86    2
    88    88    87    1
    89    89    87    1
    90    90    86    1
    91    91    90    1
    92    92    90    1
    93    93    90    1
    94     4    14    1
    95     5    15    1
    96     6    14    1
    97     7    15    1
    98    18    19    1
    99    20    21    1
   100    28    31    1
   101    40    43    1
   102    52    55    1
@<TRIPOS>SUBSTRUCTURE
     1 RES1        1 GROUP             0 ****  ****    0  
@<TRIPOS>CRYSIN
    9.2494   12.6572   15.4314   94.6390   98.4880  109.4850     2     1
