@<TRIPOS>MOLECULE
JIRLUR
    75    80     2     0     0
SMALL
NO_CHARGES
****
Generated from the CSD

@<TRIPOS>ATOM
     1 Fe1      6.4829   3.1809   3.7593   Fe        1 RES1   0.0000
     2 O1       5.5473   4.6506   4.9024   O.2       1 RES1   0.0000
     3 O2       7.1425   4.0522   2.0256   O.2       1 RES1   0.0000
     4 O3       4.2536   5.5471   6.5134   O.3       1 RES1   0.0000
     5 O4       8.0958   4.3426   0.0135   O.3       1 RES1   0.0000
     6 N1       5.9409   1.8302   5.2730   N.2       1 RES1   0.0000
     7 N2       7.2671   1.3488   2.9783   N.2       1 RES1   0.0000
     8 N3       2.7957   3.2394   8.4324   N.1       1 RES1   0.0000
     9 N4       9.1482   1.4267  -1.3301   N.1       1 RES1   0.0000
    10 N5       4.4953   2.8574   2.7550   N.ar      1 RES1   0.0000
    11 N6       8.4273   3.8651   4.6520   N.ar      1 RES1   0.0000
    12 C1       4.8018   4.4790   5.8974   C.2       1 RES1   0.0000
    13 C2       4.4704   3.2569   6.5049   C.2       1 RES1   0.0000
    14 C3       5.0609   2.0056   6.1953   C.2       1 RES1   0.0000
    15 C4       7.7683   1.1909   1.8056   C.2       1 RES1   0.0000
    16 C5       7.9829   2.2044   0.8546   C.2       1 RES1   0.0000
    17 C6       7.6910   3.5571   1.0272   C.2       1 RES1   0.0000
    18 C7       4.5819   6.8569   6.0379   C.3       1 RES1   0.0000
    19 C8       8.0054   5.7752   0.1726   C.3       1 RES1   0.0000
    20 C9       3.5532   3.2667   7.5880   C.1       1 RES1   0.0000
    21 C10      8.6061   1.7756  -0.3588   C.1       1 RES1   0.0000
    22 C11      7.2108   0.2826   3.9243   C.ar      1 RES1   0.0000
    23 C12      7.8309  -0.9648   3.7229   C.ar      1 RES1   0.0000
    24 C13      7.7060  -1.9374   4.6638   C.ar      1 RES1   0.0000
    25 C14      7.0613  -1.6938   5.8957   C.ar      1 RES1   0.0000
    26 C15      6.4635  -0.4619   6.0683   C.ar      1 RES1   0.0000
    27 C16      6.5288   0.5574   5.1325   C.ar      1 RES1   0.0000
    28 C17      3.8796   1.6996   2.7990   C.ar      1 RES1   0.0000
    29 C18      2.6536   1.4345   2.1762   C.ar      1 RES1   0.0000
    30 C19      2.0767   2.4598   1.4672   C.ar      1 RES1   0.0000
    31 C20      2.6739   3.6604   1.4096   C.ar      1 RES1   0.0000
    32 C21      3.9072   3.8261   2.0611   C.ar      1 RES1   0.0000
    33 C22      9.5328   3.1731   4.4286   C.ar      1 RES1   0.0000
    34 C23     10.7697   3.5766   4.9312   C.ar      1 RES1   0.0000
    35 C24     10.8330   4.6525   5.7553   C.ar      1 RES1   0.0000
    36 C25      9.7284   5.3678   5.9685   C.ar      1 RES1   0.0000
    37 C26      8.5349   4.9390   5.4219   C.ar      1 RES1   0.0000
    38 C27      4.0189   7.8568   7.0228   C.3       1 RES1   0.0000
    39 C28      9.2200   6.2352   0.8123   C.3       1 RES1   0.0000
    40 H1       4.7446   1.1324   6.7774   H         1 RES1   0.0000
    41 H2       8.0510   0.1540   1.5281   H         1 RES1   0.0000
    42 H3       8.2017  -2.9295   4.5064   H         1 RES1   0.0000
    43 H4       6.9741  -2.4734   6.6606   H         1 RES1   0.0000
    44 H5       5.9323  -0.2534   7.0177   H         1 RES1   0.0000
    45 H6       4.3382   0.8557   3.3439   H         1 RES1   0.0000
    46 H7       2.1633   0.4541   2.3065   H         1 RES1   0.0000
    47 H8       1.1363   2.2337   0.8935   H         1 RES1   0.0000
    48 H9       2.1899   4.5122   0.8833   H         1 RES1   0.0000
    49 H10      4.4192   4.7831   1.9528   H         1 RES1   0.0000
    50 H11      9.4851   2.2668   3.8024   H         1 RES1   0.0000
    51 H12     11.6925   3.0075   4.6993   H         1 RES1   0.0000
    52 H13     11.7816   4.9410   6.2393   H         1 RES1   0.0000
    53 H14      9.7349   6.2839   6.5591   H         1 RES1   0.0000
    54 H15      7.6266   5.5237   5.6351   H         1 RES1   0.0000
    55 H16      5.6544   6.9992   5.9397   H         1 RES1   0.0000
    56 H17      4.1365   7.0538   5.0429   H         1 RES1   0.0000
    57 H18      7.8509   6.2761  -0.7547   H         1 RES1   0.0000
    58 H19      7.1712   6.0247   0.8512   H         1 RES1   0.0000
    59 H20      4.2211   8.8723   6.7402   H         1 RES1   0.0000
    60 H21      2.9376   7.7204   7.1091   H         1 RES1   0.0000
    61 H22      4.4543   7.6678   8.0076   H         1 RES1   0.0000
    62 H23      9.1922   7.3345   0.9443   H         1 RES1   0.0000
    63 H24      9.3902   5.7791   1.7515   H         1 RES1   0.0000
    64 H25     10.0700   6.0305   0.1438   H         1 RES1   0.0000
    65 N7       1.7792  10.2133  15.8224   N.ar      2 RES2   0.0000
    66 C29      0.7043   9.6208  15.3824   C.ar      2 RES2   0.0000
    67 C30      0.1212   9.8819  14.1978   C.ar      2 RES2   0.0000
    68 C31      0.7118  10.8565  13.4533   C.ar      2 RES2   0.0000
    69 C32      1.8277  11.4802  13.8763   C.ar      2 RES2   0.0000
    70 C33      2.3188  11.0904  15.0947   C.ar      2 RES2   0.0000
    71 H26      0.2048   8.8957  16.0475   H         2 RES2   0.0000
    72 H27     -0.7756   9.3147  13.8831   H         2 RES2   0.0000
    73 H28      0.2272  11.0982  12.4447   H         2 RES2   0.0000
    74 H29      2.2397  12.2598  13.2282   H         2 RES2   0.0000
    75 H30      3.2234  11.5660  15.4975   H         2 RES2   0.0000
@<TRIPOS>BOND
     1     1     2    1
     2     2    12    2
     3     3     1    1
     4     4    12    1
     5     5    17    1
     6     6     1    1
     7     7     1    1
     8     8    20    3
     9     9    21    3
    10    10     1    1
    11    11     1    1
    12    12    13    1
    13    13    14    2
    14    14     6    1
    15    15     7    1
    16    16    15    2
    17    17     3    2
    18    18     4    1
    19    19     5    1
    20    20    13    1
    21    21    16    1
    22    22     7    1
    23    23    22   ar
    24    24    23   ar
    25    25    24   ar
    26    26    25   ar
    27    27     6    1
    28    28    10   ar
    29    29    28   ar
    30    30    29   ar
    31    31    30   ar
    32    32    10   ar
    33    33    11   ar
    34    34    33   ar
    35    35    34   ar
    36    36    35   ar
    37    37    11   ar
    38    38    18    1
    39    39    19    1
    40    40    14    1
    41    41    15    1
    42    42    24    1
    43    43    25    1
    44    44    26    1
    45    45    28    1
    46    46    29    1
    47    47    30    1
    48    48    31    1
    49    49    32    1
    50    50    33    1
    51    51    34    1
    52    52    35    1
    53    53    36    1
    54    54    37    1
    55    55    18    1
    56    56    18    1
    57    57    19    1
    58    58    19    1
    59    59    38    1
    60    60    38    1
    61    61    38    1
    62    62    39    1
    63    63    39    1
    64    64    39    1
    65    16    17    1
    66    22    27   ar
    67    26    27   ar
    68    31    32   ar
    69    36    37   ar
    70    65    66   ar
    71    66    67   ar
    72    67    68   ar
    73    68    69   ar
    74    69    70   ar
    75    70    65   ar
    76    71    66    1
    77    72    67    1
    78    73    68    1
    79    74    69    1
    80    75    70    1
@<TRIPOS>SUBSTRUCTURE
     1 RES1        1 GROUP             0 ****  ****    0  
     2 RES2       65 GROUP             0 ****  ****    0  
@<TRIPOS>CRYSIN
    9.8660   19.4910   16.9920   90.0000   95.1900   90.0000    14     1
