@<TRIPOS>MOLECULE
JIRQEJ
   154   163     7     0     0
SMALL
USER_CHARGES
****
Generated from the CSD

@<TRIPOS>ATOM
     1 C1       0.1128  13.9208  19.5402   C.3       1 RES1   0.0000
     2 C2      -0.1277  13.7121  20.9083   C.2       1 RES1   0.0000
     3 C3       1.5158  15.3180  21.8929   C.3       1 RES1   0.0000
     4 H1       1.8762  15.3473  20.9823   H         1 RES1   0.0000
     5 H2       2.2341  15.1010  22.5226   H         1 RES1   0.0000
     6 H3       1.1318  16.1914  22.1224   H         1 RES1   0.0000
     7 C4       0.1831  13.5790  23.1276   C.ar      1 RES1   0.0000
     8 C5       0.6386  13.7539  24.4310   C.ar      1 RES1   0.0000
     9 H4       1.2065  14.4784  24.6694   H         1 RES1   0.0000
    10 C6       0.2229  12.8225  25.3582   C.ar      1 RES1   0.0000
    11 H5       0.4972  12.9121  26.2625   H         1 RES1   0.0000
    12 C7      -0.5899  11.7499  24.9958   C.ar      1 RES1   0.0000
    13 H6      -0.8346  11.1189  25.6610   H         1 RES1   0.0000
    14 C8      -1.0553  11.5697  23.7007   C.ar      1 RES1   0.0000
    15 H7      -1.6132  10.8367  23.4638   H         1 RES1   0.0000
    16 C9      -0.6564  12.5247  22.7687   C.ar      1 RES1   0.0000
    17 C10     -1.8203  11.9522  20.6020   C.ar      1 RES1   0.0000
    18 C11     -2.9974  11.5102  21.1915   C.ar      1 RES1   0.0000
    19 H8      -3.1573  11.6530  22.1174   H         1 RES1   0.0000
    20 C12     -3.9275  10.8624  20.4095   C.ar      1 RES1   0.0000
    21 H9      -4.7201  10.5101  20.7961   H         1 RES1   0.0000
    22 C13     -3.6941  10.7332  19.0519   C.ar      1 RES1   0.0000
    23 H10     -4.3338  10.3109  18.4907   H         1 RES1   0.0000
    24 C14     -2.5242  11.2252  18.5267   C.ar      1 RES1   0.0000
    25 H11     -2.3873  11.1687  17.5872   H         1 RES1   0.0000
    26 C15      0.3130  15.1600  18.9284   C.2       1 RES1   0.0000
    27 C16     -1.3121  16.5901  20.1863   C.3       1 RES1   0.0000
    28 H12     -1.7697  15.7514  20.4009   H         1 RES1   0.0000
    29 H13     -1.9647  17.2429  19.8573   H         1 RES1   0.0000
    30 H14     -0.8773  16.9413  20.9924   H         1 RES1   0.0000
    31 C17     -0.0807  17.2033  18.0737   C.ar      1 RES1   0.0000
    32 C18     -0.6089  18.4605  17.8134   C.ar      1 RES1   0.0000
    33 H15     -1.1508  18.9171  18.4454   H         1 RES1   0.0000
    34 C19     -0.2993  19.0079  16.5825   C.ar      1 RES1   0.0000
    35 H16     -0.6311  19.8718  16.3691   H         1 RES1   0.0000
    36 C20      0.4808  18.3346  15.6440   C.ar      1 RES1   0.0000
    37 H17      0.6422  18.7373  14.7986   H         1 RES1   0.0000
    38 C21      1.0260  17.0885  15.9171   C.ar      1 RES1   0.0000
    39 H18      1.5660  16.6314  15.2843   H         1 RES1   0.0000
    40 C22      0.7415  16.5411  17.1722   C.ar      1 RES1   0.0000
    41 C23      2.0282  14.3829  17.3408   C.ar      1 RES1   0.0000
    42 C24      3.1706  14.8733  16.7202   C.ar      1 RES1   0.0000
    43 H19      3.2584  15.8012  16.5327   H         1 RES1   0.0000
    44 C25      4.1684  13.9955  16.3847   C.ar      1 RES1   0.0000
    45 H20      4.9408  14.2985  15.9211   H         1 RES1   0.0000
    46 C26      4.0381  12.6589  16.7305   C.ar      1 RES1   0.0000
    47 H21      4.7252  12.0349  16.5251   H         1 RES1   0.0000
    48 C27      2.8923  12.2555  17.3760   C.ar      1 RES1   0.0000
    49 H22      2.8221  11.3458  17.6451   H         1 RES1   0.0000
    50 C28      0.2160  10.7858  17.2993   C.3       1 RES1   1.0000
    51 C29      0.6132  10.9822  15.9588   C.2       1 RES1   0.0000
    52 C30      1.9607   8.8943  15.4867   C.3       1 RES1   0.0000
    53 H23      1.7595   8.6699  16.4194   H         1 RES1   0.0000
    54 H24      2.9325   8.9272  15.3598   H         1 RES1   0.0000
    55 H25      1.5774   8.2133  14.8968   H         1 RES1   0.0000
    56 C31      1.8004  10.9153  14.0554   C.ar      1 RES1   0.0000
    57 C32      2.6691  10.5350  13.0376   C.ar      1 RES1   0.0000
    58 H26      3.0054   9.6495  12.9689   H         1 RES1   0.0000
    59 C33      3.0139  11.5213  12.1306   C.ar      1 RES1   0.0000
    60 H27      3.6015  11.3099  11.4135   H         1 RES1   0.0000
    61 C34      2.5182  12.8205  12.2441   C.ar      1 RES1   0.0000
    62 H28      2.7925  13.4739  11.6099   H         1 RES1   0.0000
    63 C35      1.6360  13.1927  13.2538   C.ar      1 RES1   0.0000
    64 H29      1.3025  14.0799  13.3263   H         1 RES1   0.0000
    65 C36      1.2677  12.1976  14.1518   C.ar      1 RES1   0.0000
    66 C37     -0.4693  13.1891  15.6702   C.ar      1 RES1   0.0000
    67 C38     -1.0057  14.0138  14.6836   C.ar      1 RES1   0.0000
    68 H30     -0.7172  13.9416  13.7818   H         1 RES1   0.0000
    69 C39     -1.9660  14.9405  15.0417   C.ar      1 RES1   0.0000
    70 H31     -2.3120  15.5493  14.4010   H         1 RES1   0.0000
    71 C40     -2.4159  14.9646  16.3497   C.ar      1 RES1   0.0000
    72 H32     -3.1024  15.5660  16.6132   H         1 RES1   0.0000
    73 C41     -1.8532  14.1054  17.2625   C.ar      1 RES1   0.0000
    74 H33     -2.1961  14.0993  18.1484   H         1 RES1   0.0000
    75 C42     -0.1065   9.5369  17.8754   C.2       1 RES1   0.0000
    76 C43     -1.2053   8.2960  15.9739   C.3       1 RES1   0.0000
    77 H34     -1.0588   9.1293  15.4781   H         1 RES1   0.0000
    78 H35     -2.1634   8.0943  15.9991   H         1 RES1   0.0000
    79 H36     -0.7300   7.5630  15.5310   H         1 RES1   0.0000
    80 C44     -1.0026   7.5295  18.3374   C.ar      1 RES1   0.0000
    81 C45     -1.6180   6.2875  18.2476   C.ar      1 RES1   0.0000
    82 H37     -1.8622   5.9081  17.4110   H         1 RES1   0.0000
    83 C46     -1.8552   5.6334  19.4413   C.ar      1 RES1   0.0000
    84 H38     -2.2477   4.7680  19.4295   H         1 RES1   0.0000
    85 C47     -1.5266   6.2225  20.6614   C.ar      1 RES1   0.0000
    86 H39     -1.7336   5.7559  21.4630   H         1 RES1   0.0000
    87 C48     -0.9134   7.4575  20.7528   C.ar      1 RES1   0.0000
    88 H40     -0.7069   7.8535  21.5914   H         1 RES1   0.0000
    89 C49     -0.6136   8.0918  19.5505   C.ar      1 RES1   0.0000
    90 C50      0.8879  10.0214  20.0858   C.ar      1 RES1   0.0000
    91 C51      1.4818   9.3517  21.1499   C.ar      1 RES1   0.0000
    92 H41      1.2629   8.4457  21.3296   H         1 RES1   0.0000
    93 C52      2.3930  10.0189  21.9392   C.ar      1 RES1   0.0000
    94 H42      2.7711   9.5969  22.7013   H         1 RES1   0.0000
    95 C53      2.7493  11.3182  21.6057   C.ar      1 RES1   0.0000
    96 H43      3.3960  11.7914  22.1149   H         1 RES1   0.0000
    97 C54      2.1396  11.9062  20.5154   C.ar      1 RES1   0.0000
    98 H44      2.4143  12.7793  20.2625   H         1 RES1   0.0000
    99 Fe1      0.1624  12.3473  18.4185   Fe        1 RES1   3.0000
   100 N1       0.4776  14.2960  21.9709   N.pl3     1 RES1   0.0000
   101 N2      -0.8622  12.6487  21.3784   N.pl3     1 RES1   0.0000
   102 N3      -1.5529  11.7883  19.2925   N.ar      1 RES1   0.0000
   103 N4      -0.3041  16.3463  19.1551   N.pl3     1 RES1   0.0000
   104 N5       1.0155  15.2851  17.7374   N.pl3     1 RES1   0.0000
   105 N6       1.8601  13.0881  17.6468   N.ar      1 RES1   0.0000
   106 N7       1.3855  10.1952  15.1658   N.pl3     1 RES1   0.0000
   107 N8       0.4875  12.2054  15.3171   N.pl3     1 RES1   0.0000
   108 N9      -0.8342  13.2672  16.9593   N.ar      1 RES1   0.0000
   109 N10     -0.7025   8.4474  17.3348   N.pl3     1 RES1   0.0000
   110 N11     -0.0160   9.3224  19.2410   N.pl3     1 RES1   0.0000
   111 N12      1.1668  11.2996  19.7878   N.ar      1 RES1   0.0000
   112 C55      5.1973  16.3795  21.0092   C.3       2 RES2   0.0000
   113 F1       4.1012  16.8195  21.6543   F         2 RES2   0.0000
   114 F2       6.2208  16.5707  21.8554   F         2 RES2   0.0000
   115 F3       5.4079  17.1851  19.9779   F         2 RES2   0.0000
   116 O1       4.8571  13.9474  21.7504   O.2       2 RES2   0.0000
   117 O2       3.8852  14.6597  19.6555   O.3       2 RES2  -1.0000
   118 O3       6.3016  14.4037  19.8399   O.2       2 RES2   0.0000
   119 S1       5.0501  14.6444  20.5051   S.o2      2 RES2   0.0000
   120 C56      6.9364  20.9306  20.0999   C.3       3 RES3   0.0000
   121 F4       6.7684  19.6867  19.6567   F         3 RES3   0.0000
   122 F5       5.7274  21.4865  20.1598   F         3 RES3   0.0000
   123 F6       7.3891  20.8567  21.3480   F         3 RES3   0.0000
   124 O4       9.3311  21.2677  19.2301   O.3       3 RES3  -1.0000
   125 O5       7.9542  23.2191  19.5422   O.2       3 RES3   0.0000
   126 O6       7.4725  21.6941  17.7236   O.2       3 RES3   0.0000
   127 S2       8.0491  21.8839  19.0192   S.o2      3 RES3   0.0000
   128 C57      6.4353   9.6257  13.4954   C.3       4 RES4   0.0000
   129 F7       5.6862   9.0681  14.4500   F         4 RES4   0.0000
   130 F8       7.4660   8.8049  13.2724   F         4 RES4   0.0000
   131 F9       5.7024   9.6539  12.3772   F         4 RES4   0.0000
   132 O7       7.7350  11.0450  15.1940   O.3       4 RES4  -1.0000
   133 O8       5.7768  12.0122  14.1475   O.2       4 RES4   0.0000
   134 O9       7.8090  11.6956  12.8541   O.2       4 RES4   0.0000
   135 S3       7.0011  11.2922  13.9766   S.o2      4 RES4   0.0000
   136 C58      5.7463  18.3529  15.8796   C.1       5 RES5   0.0000
   137 C59      6.2758  19.6416  15.4739   C.3       5 RES5   0.0000
   138 H45      5.6128  20.1098  14.9244   H         5 RES5   0.0000
   139 H46      7.0962  19.5093  14.9546   H         5 RES5   0.0000
   140 H47      6.4764  20.1762  16.2684   H         5 RES5   0.0000
   141 N13      5.3043  17.3663  16.1856   N.1       5 RES5   0.0000
   142 C60      6.5768   5.8146  12.4218   C.1       6 RES6   0.0000
   143 C61      6.6469   5.5946  13.8629   C.3       6 RES6   0.0000
   144 H48      7.5789   5.4405  14.1241   H         6 RES6   0.0000
   145 H49      6.1069   4.8123  14.1015   H         6 RES6   0.0000
   146 H50      6.3012   6.3841  14.3305   H         6 RES6   0.0000
   147 N14      6.5366   6.0114  11.3068   N.1       6 RES6   0.0000
   148 Cl1      0.7961   5.2241  15.4648   Cl        7 RES7   0.0000
   149 Cl2     -0.0945   6.7818  12.6644   Cl        7 RES7   0.0000
   150 Cl3     -0.6341   3.5050  12.9342   Cl        7 RES7   0.0000
   151 Cl4      1.7519   4.5876  10.8646   Cl        7 RES7   0.0000
   152 Cl5      2.5878   3.0365  13.7212   Cl        7 RES7   0.0000
   153 Cl6      3.1506   6.3224  13.3082   Cl        7 RES7  -1.0000
   154 Sb1      1.2682   4.9080  13.1541   Sb        7 RES7   0.0000
@<TRIPOS>BOND
     1     1     2    1
     2     2   100    1
     3     3     4    1
     4     5     3    1
     5     6     3    1
     6     7     8   ar
     7     8     9    1
     8    10     8   ar
     9    11    10    1
    10    12    10   ar
    11    13    12    1
    12    14    12   ar
    13    15    14    1
    14    16     7   ar
    15    17    18   ar
    16    18    19    1
    17    20    18   ar
    18    21    20    1
    19    22    20   ar
    20    23    22    1
    21    24    22   ar
    22    25    24    1
    23    26     1    1
    24    27    28    1
    25    29    27    1
    26    30    27    1
    27    31    32   ar
    28    32    33    1
    29    34    32   ar
    30    35    34    1
    31    36    34   ar
    32    37    36    1
    33    38    36   ar
    34    39    38    1
    35    40    31   ar
    36    41    42   ar
    37    42    43    1
    38    44    42   ar
    39    45    44    1
    40    46    44   ar
    41    47    46    1
    42    48    46   ar
    43    49    48    1
    44    50    51    1
    45    51   106    1
    46    52    53    1
    47    54    52    1
    48    55    52    1
    49    56    57   ar
    50    57    58    1
    51    59    57   ar
    52    60    59    1
    53    61    59   ar
    54    62    61    1
    55    63    61   ar
    56    64    63    1
    57    65    56   ar
    58    66    67   ar
    59    67    68    1
    60    69    67   ar
    61    70    69    1
    62    71    69   ar
    63    72    71    1
    64    73    71   ar
    65    74    73    1
    66    75    50    1
    67    76    77    1
    68    78    76    1
    69    79    76    1
    70    80    81   ar
    71    81    82    1
    72    83    81   ar
    73    84    83    1
    74    85    83   ar
    75    86    85    1
    76    87    85   ar
    77    88    87    1
    78    89    80   ar
    79    90    91   ar
    80    91    92    1
    81    93    91   ar
    82    94    93    1
    83    95    93   ar
    84    96    95    1
    85    97    95   ar
    86    98    97    1
    87    99     1    1
    88   100     3    1
    89   101     2    1
    90   102    17   ar
    91   103    26    1
    92   104    26    1
    93   105    41   ar
    94   106    52    1
    95   107    51    1
    96   108    66   ar
    97   109    75    1
    98   110    75    1
    99   111    90   ar
   100     7   100    1
   101    14    16   ar
   102    16   101    1
   103    17   101    1
   104    24   102   ar
   105    27   103    1
   106    31   103    1
   107    38    40   ar
   108    40   104    1
   109    41   104    1
   110    48   105   ar
   111    50    99    1
   112    56   106    1
   113    63    65   ar
   114    65   107    1
   115    66   107    1
   116    73   108   ar
   117    76   109    1
   118    80   109    1
   119    87    89   ar
   120    89   110    1
   121    90   110    1
   122    97   111   ar
   123    99   102    1
   124    99   105    1
   125    99   108    1
   126    99   111    1
   127   112   113    1
   128   114   112    1
   129   115   112    1
   130   116   119    2
   131   117   119    1
   132   118   119    2
   133   119   112    1
   134   120   121    1
   135   122   120    1
   136   123   120    1
   137   124   127    1
   138   125   127    2
   139   126   127    2
   140   127   120    1
   141   128   129    1
   142   130   128    1
   143   131   128    1
   144   132   135    1
   145   133   135    2
   146   134   135    2
   147   135   128    1
   148   136   137    1
   149   137   138    1
   150   139   137    1
   151   140   137    1
   152   141   136    3
   153   142   143    1
   154   143   144    1
   155   145   143    1
   156   146   143    1
   157   147   142    3
   158   148   154    1
   159   149   154    1
   160   150   154    1
   161   151   154    1
   162   152   154    1
   163   153   154    1
@<TRIPOS>SUBSTRUCTURE
     1 RES1        1 GROUP             0 ****  ****    0  
     2 RES2      112 GROUP             0 ****  ****    0  
     3 RES3      120 GROUP             0 ****  ****    0  
     4 RES4      128 GROUP             0 ****  ****    0  
     5 RES5      136 GROUP             0 ****  ****    0  
     6 RES6      142 GROUP             0 ****  ****    0  
     7 RES7      148 GROUP             0 ****  ****    0  
@<TRIPOS>CRYSIN
   10.1456   27.6728   25.2809   90.0000   95.4242   90.0000   231     1
