@<TRIPOS>MOLECULE
JIYGUU
    82    87     4     0     0
SMALL
NO_CHARGES
****
Generated from the CSD

@<TRIPOS>ATOM
     1 Fe1     -0.6091   0.6266   4.5351   Fe        1 RES1   0.0000
     2 O1      -1.9691   1.7396   3.7198   O.3       1 RES1   0.0000
     3 O2      -3.1156   3.4298   1.9177   O.2       1 RES1   0.0000
     4 O3      -3.1462   4.3958   5.8737   O.3       1 RES1   0.0000
     5 O5      -0.1069  -0.3663   2.9787   O.3       1 RES1   0.0000
     6 O6       0.6786  -2.3601   1.3161   O.2       1 RES1   0.0000
     7 O7       1.9521   1.4346   0.6255   O.3       1 RES1   0.0000
     8 O9      -1.7974  -0.6096   5.3919   O.3       1 RES1   0.0000
     9 O10     -3.8165  -1.7861   6.8960   O.2       1 RES1   0.0000
    10 O11     -0.0532  -3.3238   7.0490   O.3       1 RES1   0.0000
    11 O13     -5.6015   6.0495   6.1191   O.3       1 RES1   0.0000
    12 O14      3.6235  -0.0020  -2.1893   O.3       1 RES1   0.0000
    13 O15     -1.7082  -5.8123   8.9728   O.3       1 RES1   0.0000
    14 N1      -0.6187   1.9485   6.3203   N.3       1 RES1   0.0000
    15 N2       0.9874   2.0984   4.0252   N.3       1 RES1   0.0000
    16 N3       1.0663  -0.2311   5.6496   N.3       1 RES1   0.0000
    17 C1      -2.5621   3.2276   5.4495   C.2       1 RES1   0.0000
    18 C2      -2.5175   2.8798   4.1359   C.2       1 RES1   0.0000
    19 C3      -3.1147   3.7598   3.1216   C.2       1 RES1   0.0000
    20 C4      -3.6875   4.9582   3.6356   C.2       1 RES1   0.0000
    21 C5      -3.6945   5.2320   4.9622   C.2       1 RES1   0.0000
    22 C6       1.2013   1.1436   1.7245   C.2       1 RES1   0.0000
    23 C7       0.6969  -0.0912   1.9628   C.2       1 RES1   0.0000
    24 C8       1.0598  -1.1852   1.0707   C.2       1 RES1   0.0000
    25 C9       1.8388  -0.8201  -0.0703   C.2       1 RES1   0.0000
    26 C10      2.2323   0.4516  -0.2650   C.2       1 RES1   0.0000
    27 C11     -0.3149  -2.2074   6.2978   C.2       1 RES1   0.0000
    28 C12     -1.5639  -1.6793   6.1489   C.2       1 RES1   0.0000
    29 C13     -2.6744  -2.2738   6.8796   C.2       1 RES1   0.0000
    30 C14     -2.3373  -3.4806   7.6069   C.2       1 RES1   0.0000
    31 C15     -1.0749  -3.9474   7.6692   C.2       1 RES1   0.0000
    32 C16     -2.0331   2.3800   6.5662   C.3       1 RES1   0.0000
    33 C17      0.2906   3.1297   6.1770   C.3       1 RES1   0.0000
    34 C18      0.6478   3.3752   4.7179   C.3       1 RES1   0.0000
    35 C19     -4.3463   6.4235   5.6020   C.3       1 RES1   0.0000
    36 C20      0.9626   2.3642   2.5607   C.3       1 RES1   0.0000
    37 C21      2.3145   1.5808   4.4889   C.3       1 RES1   0.0000
    38 C22      2.2853   0.1092   4.8629   C.3       1 RES1   0.0000
    39 C23      2.9539   1.0068  -1.4602   C.3       1 RES1   0.0000
    40 C24      0.9326  -1.7179   5.6380   C.3       1 RES1   0.0000
    41 C25      1.1285   0.3233   7.0367   C.3       1 RES1   0.0000
    42 C26     -0.1711   1.0433   7.4163   C.3       1 RES1   0.0000
    43 C27     -0.5979  -5.1461   8.4270   C.3       1 RES1   0.0000
    44 H1      -4.0759   5.5820   3.0321   H         1 RES1   0.0000
    45 H2       2.0833  -1.4864  -0.7009   H         1 RES1   0.0000
    46 H3      -3.0270  -3.9576   8.0528   H         1 RES1   0.0000
    47 H4      -2.6062   1.5778   6.6670   H         1 RES1   0.0000
    48 H5      -2.0758   2.8915   7.4125   H         1 RES1   0.0000
    49 H6       1.1189   2.9728   6.6955   H         1 RES1   0.0000
    50 H7      -0.1537   3.9332   6.5475   H         1 RES1   0.0000
    51 H8      -0.1174   3.8053   4.2592   H         1 RES1   0.0000
    52 H9       1.4203   3.9921   4.6676   H         1 RES1   0.0000
    53 H10     -5.5193   5.8419   6.9292   H         1 RES1   0.0000
    54 H11     -3.7730   6.7679   6.3317   H         1 RES1   0.0000
    55 H12     -4.4613   7.1435   4.9316   H         1 RES1   0.0000
    56 H15      1.6555   3.0377   2.3472   H         1 RES1   0.0000
    57 H16      0.0829   2.7494   2.3204   H         1 RES1   0.0000
    58 H17      2.6070   2.1057   5.2758   H         1 RES1   0.0000
    59 H18      2.9811   1.7158   3.7705   H         1 RES1   0.0000
    60 H19      2.3064  -0.4386   4.0380   H         1 RES1   0.0000
    61 H20      3.0906  -0.1097   5.3953   H         1 RES1   0.0000
    62 H21      3.0621  -0.4548  -2.6201   H         1 RES1   0.0000
    63 H22      2.3025   1.4600  -2.0529   H         1 RES1   0.0000
    64 H23      3.6121   1.6813  -1.1593   H         1 RES1   0.0000
    65 H26      1.7150  -2.1138   6.0980   H         1 RES1   0.0000
    66 H27      0.9432  -2.0326   4.6997   H         1 RES1   0.0000
    67 H28      1.8853   0.9584   7.1022   H         1 RES1   0.0000
    68 H29      1.2922  -0.4142   7.6765   H         1 RES1   0.0000
    69 H30     -0.8766   0.3736   7.5998   H         1 RES1   0.0000
    70 H31     -0.0265   1.5717   8.2419   H         1 RES1   0.0000
    71 H32     -1.4452  -6.4613   9.4387   H         1 RES1   0.0000
    72 H33     -0.1052  -5.7546   7.8210   H         1 RES1   0.0000
    73 H34      0.0153  -4.8652   9.1515   H         1 RES1   0.0000
    74 O4      -0.5799  -3.8035   3.4922   O.3       2 RES2   0.0000
    75 H13     -0.2082  -3.2692   2.7824   H         2 RES2   0.0000
    76 H14     -1.4996  -3.4926   3.4780   H         2 RES2   0.0000
    77 O8      -5.5936   5.5694   8.7668   O.3       3 RES3   0.0000
    78 H24     -5.1897   6.0653   9.4511   H         3 RES3   0.0000
    79 H25     -6.4948   5.8562   8.8465   H         3 RES3   0.0000
    80 O12     -5.3225  -2.6789   9.2558   O.3       4 RES4   0.0000
    81 H35     -4.9162  -2.3311   8.4844   H         4 RES4   0.0000
    82 H36     -5.1686  -3.5758   9.0427   H         4 RES4   0.0000
@<TRIPOS>BOND
     1     1     2    1
     2     2    18    1
     3     3    19    2
     4     4    17    1
     5     5     1    1
     6     6    24    2
     7     7    22    1
     8     8     1    1
     9     9    29    2
    10    10    27    1
    11    11    35    1
    12    12    39    1
    13    13    43    1
    14    14     1    1
    15    15     1    1
    16    16     1    1
    17    17    18    2
    18    18    19    1
    19    19    20    1
    20    20    21    2
    21    21     4    1
    22    22    23    2
    23    23     5    1
    24    24    23    1
    25    25    24    1
    26    26     7    1
    27    27    28    2
    28    28     8    1
    29    29    28    1
    30    30    29    1
    31    31    10    1
    32    32    14    1
    33    33    14    1
    34    34    15    1
    35    35    21    1
    36    36    15    1
    37    37    15    1
    38    38    16    1
    39    39    26    1
    40    40    16    1
    41    41    16    1
    42    42    14    1
    43    43    31    1
    44    44    20    1
    45    45    25    1
    46    46    30    1
    47    47    32    1
    48    48    32    1
    49    49    33    1
    50    50    33    1
    51    51    34    1
    52    52    34    1
    53    53    11    1
    54    54    35    1
    55    55    35    1
    56    56    36    1
    57    57    36    1
    58    58    37    1
    59    59    37    1
    60    60    38    1
    61    61    38    1
    62    62    12    1
    63    63    39    1
    64    64    39    1
    65    65    40    1
    66    66    40    1
    67    67    41    1
    68    68    41    1
    69    69    42    1
    70    70    42    1
    71    71    13    1
    72    72    43    1
    73    73    43    1
    74    17    32    1
    75    22    36    1
    76    25    26    2
    77    27    40    1
    78    30    31    2
    79    33    34    1
    80    37    38    1
    81    41    42    1
    82    74    75    1
    83    76    74    1
    84    77    78    1
    85    79    77    1
    86    80    81    1
    87    82    80    1
@<TRIPOS>SUBSTRUCTURE
     1 RES1        1 GROUP             0 ****  ****    0  
     2 RES2       74 GROUP             0 ****  ****    0  
     3 RES3       77 GROUP             0 ****  ****    0  
     4 RES4       80 GROUP             0 ****  ****    0  
@<TRIPOS>CRYSIN
    7.8566   20.3057   17.9823   90.0000   97.3210   90.0000    14     1
