@<TRIPOS>MOLECULE
JIZSOC
    85    92     3     0     0
SMALL
USER_CHARGES
****
Generated from the CSD

@<TRIPOS>ATOM
     1 Fe1      9.0756  16.9244  13.3340   Fe        1 RES1   1.0000
     2 N1       9.0874  18.7714  13.3961   N.ar      1 RES1   0.0000
     3 N2       7.7128  18.6948  11.5635   N.2       1 RES1   0.0000
     4 N3       7.8540  17.4251  11.8587   N.2       1 RES1   0.0000
     5 N4      10.5141  18.5329  15.1759   N.2       1 RES1   0.0000
     6 N5      10.3822  17.3059  14.7599   N.2       1 RES1   0.0000
     7 C1       8.3637  19.4717  12.4929   C.ar      1 RES1   0.0000
     8 C2       9.0878  21.5078  13.5188   C.ar      1 RES1   0.0000
     9 H1       9.0872  22.4377  13.5624   H         1 RES1   0.0000
    10 C3       9.8139  19.3918  14.3544   C.ar      1 RES1   0.0000
    11 C4       8.3340  20.8671  12.5401   C.ar      1 RES1   0.0000
    12 H2       7.8239  21.3545  11.9352   H         1 RES1   0.0000
    13 C5       9.8454  20.7791  14.4380   C.ar      1 RES1   0.0000
    14 H3      10.3549  21.2083  15.0879   H         1 RES1   0.0000
    15 C6      11.1105  16.4166  16.9379   C.ar      1 RES1   0.0000
    16 H4      10.6163  17.0679  17.3811   H         1 RES1   0.0000
    17 C7      11.0987  16.3441  15.5436   C.ar      1 RES1   0.0000
    18 C8      11.8227  15.3606  14.8731   C.ar      1 RES1   0.0000
    19 H5      11.7983  15.3132  13.9463   H         1 RES1   0.0000
    20 C9       7.3697  16.5252  10.8736   C.ar      1 RES1   0.0000
    21 C10     12.6096  14.5300  16.9911   C.ar      1 RES1   0.0000
    22 H6      13.1255  13.9294  17.4796   H         1 RES1   0.0000
    23 C11     12.5832  14.4507  15.6040   C.ar      1 RES1   0.0000
    24 H7      13.0718  13.7913  15.1634   H         1 RES1   0.0000
    25 C12     11.8714  15.5016  17.6528   C.ar      1 RES1   0.0000
    26 H8      11.8869  15.5406  18.5819   H         1 RES1   0.0000
    27 C13      6.8339  15.3143  11.3010   C.ar      1 RES1   0.0000
    28 H9       6.7697  15.1263  12.2108   H         1 RES1   0.0000
    29 C14      6.3966  14.3901  10.3654   C.ar      1 RES1   0.0000
    30 H10      6.0233  13.5855  10.6426   H         1 RES1   0.0000
    31 C15      7.4607  16.8242   9.5107   C.ar      1 RES1   0.0000
    32 H11      7.7992  17.6420   9.2286   H         1 RES1   0.0000
    33 C16      6.5182  14.6736   9.0091   C.ar      1 RES1   0.0000
    34 H12      6.2455  14.0432   8.3822   H         1 RES1   0.0000
    35 C17      7.0373  15.8783   8.5817   C.ar      1 RES1   0.0000
    36 H13      7.1051  16.0578   7.6703   H         1 RES1   0.0000
    37 N1A      9.0639  15.0773  13.3961   N.ar      1 RES1   0.0000
    38 N2A     10.4384  15.1539  11.5635   N.2       1 RES1   0.0000
    39 N3A     10.2973  16.4237  11.8587   N.2       1 RES1   0.0000
    40 N4A      7.6372  15.3159  15.1759   N.2       1 RES1   0.0000
    41 N5A      7.7690  16.5428  14.7599   N.2       1 RES1   0.0000
    42 C1A      9.7876  14.3771  12.4929   C.ar      1 RES1   0.0000
    43 C2A      9.0634  12.3410  13.5188   C.ar      1 RES1   0.0000
    44 H1A      9.0640  11.4111  13.5624   H         1 RES1   0.0000
    45 C3A      8.3374  14.4569  14.3544   C.ar      1 RES1   0.0000
    46 C4A      9.8172  12.9817  12.5401   C.ar      1 RES1   0.0000
    47 H2A     10.3273  12.4943  11.9352   H         1 RES1   0.0000
    48 C5A      8.3059  13.0697  14.4380   C.ar      1 RES1   0.0000
    49 H3A      7.7963  12.6405  15.0879   H         1 RES1   0.0000
    50 C6A      7.0408  17.4321  16.9379   C.ar      1 RES1   0.0000
    51 H4A      7.5349  16.7809  17.3811   H         1 RES1   0.0000
    52 C7A      7.0526  17.5047  15.5436   C.ar      1 RES1   0.0000
    53 C8A      6.3285  18.4882  14.8731   C.ar      1 RES1   0.0000
    54 H5A      6.3529  18.5356  13.9463   H         1 RES1   0.0000
    55 C9A     10.7816  17.3235  10.8736   C.ar      1 RES1   0.0000
    56 C10A     5.5416  19.3187  16.9911   C.ar      1 RES1   0.0000
    57 H6A      5.0257  19.9193  17.4796   H         1 RES1   0.0000
    58 C11A     5.5681  19.3980  15.6040   C.ar      1 RES1   0.0000
    59 H7A      5.0794  20.0574  15.1634   H         1 RES1   0.0000
    60 C12A     6.2799  18.3471  17.6528   C.ar      1 RES1   0.0000
    61 H8A      6.2644  18.3081  18.5819   H         1 RES1   0.0000
    62 C13A    11.3174  18.5345  11.3010   C.ar      1 RES1   0.0000
    63 H9A     11.3816  18.7224  12.2108   H         1 RES1   0.0000
    64 C14A    11.7546  19.4587  10.3654   C.ar      1 RES1   0.0000
    65 H10A    12.1279  20.2632  10.6426   H         1 RES1   0.0000
    66 C15A    10.6905  17.0246   9.5107   C.ar      1 RES1   0.0000
    67 H11A    10.3520  16.2068   9.2286   H         1 RES1   0.0000
    68 C16A    11.6331  19.1752   9.0091   C.ar      1 RES1   0.0000
    69 H12A    11.9058  19.8056   8.3822   H         1 RES1   0.0000
    70 C17A    11.1139  17.9704   8.5817   C.ar      1 RES1   0.0000
    71 H13A    11.0461  17.7909   7.6703   H         1 RES1   0.0000
    72 P1       9.0756  16.9244  20.5044   P.3       2 RES2  -1.0000
    73 F1       9.0639  18.0530  21.6398   F         2 RES2   0.0000
    74 F2       7.4734  16.9244  20.5044   F         2 RES2   0.0000
    75 F1A      9.0874  15.7957  21.6398   F         2 RES2   0.0000
    76 F2A     10.6779  16.9244  20.5044   F         2 RES2   0.0000
    77 F1B      9.0639  15.7957  19.3689   F         2 RES2   0.0000
    78 F1C      9.0874  18.0530  19.3689   F         2 RES2   0.0000
    79 P2       1.8151  16.9244  20.5044   P.3       3 RES3  -1.0000
    80 F3       1.8209  15.7678  19.4503   F         3 RES3   0.0000
    81 F4       3.3863  16.9244  20.5044   F         3 RES3   0.0000
    82 F3A      1.8093  18.0809  19.4503   F         3 RES3   0.0000
    83 F4A      0.2440  16.9244  20.5044   F         3 RES3   0.0000
    84 F3B      1.8209  18.0809  21.5585   F         3 RES3   0.0000
    85 F3C      1.8093  15.7678  21.5585   F         3 RES3   0.0000
@<TRIPOS>BOND
     1     1     2    1
     2     2     7   ar
     3     3     4    2
     4     4     1    1
     5     5     6    2
     6     6     1    1
     7     7     3    1
     8     8     9    1
     9    10     2   ar
    10    11     7   ar
    11    12    11    1
    12    13     8   ar
    13    14    13    1
    14    15    16    1
    15    17     6    1
    16    18    17   ar
    17    19    18    1
    18    20     4    1
    19    21    22    1
    20    23    18   ar
    21    24    23    1
    22    25    15   ar
    23    26    25    1
    24    27    20   ar
    25    28    27    1
    26    29    27   ar
    27    30    29    1
    28    31    20   ar
    29    32    31    1
    30    33    29   ar
    31    34    33    1
    32    35    31   ar
    33    36    35    1
    34    37     1    1
    35    38    39    2
    36    39     1    1
    37    40    41    2
    38    41     1    1
    39    42    37   ar
    40    43    44    1
    41    45    37   ar
    42    46    42   ar
    43    47    46    1
    44    48    43   ar
    45    49    48    1
    46    50    51    1
    47    52    41    1
    48    53    52   ar
    49    54    53    1
    50    55    39    1
    51    56    57    1
    52    58    53   ar
    53    59    58    1
    54    60    50   ar
    55    61    60    1
    56    62    55   ar
    57    63    62    1
    58    64    62   ar
    59    65    64    1
    60    66    55   ar
    61    67    66    1
    62    68    64   ar
    63    69    68    1
    64    70    66   ar
    65    71    70    1
    66     5    10    1
    67     8    11   ar
    68    10    13   ar
    69    15    17   ar
    70    21    23   ar
    71    21    25   ar
    72    33    35   ar
    73    38    42    1
    74    40    45    1
    75    43    46   ar
    76    45    48   ar
    77    50    52   ar
    78    56    58   ar
    79    56    60   ar
    80    68    70   ar
    81    72    73    1
    82    74    72    1
    83    75    72    1
    84    76    72    1
    85    77    72    1
    86    78    72    1
    87    79    80    1
    88    81    79    1
    89    82    79    1
    90    83    79    1
    91    84    79    1
    92    85    79    1
@<TRIPOS>SUBSTRUCTURE
     1 RES1        1 GROUP             0 ****  ****    0  
     2 RES2       72 GROUP             0 ****  ****    0  
     3 RES3       79 GROUP             0 ****  ****    0  
