@<TRIPOS>MOLECULE
JOBHOZ
    80    89     3     0     0
SMALL
USER_CHARGES
****
Generated from the CSD

@<TRIPOS>ATOM
     1 Fe1      1.9153   6.8602   5.3477   Fe        1 RES1   2.0000
     2 N1       3.4578   5.7030   4.9503   N.2       1 RES1   0.0000
     3 N2       2.3540   6.6415   7.2564   N.2       1 RES1   0.0000
     4 N3       0.8314   5.2061   5.5164   N.2       1 RES1   0.0000
     5 N4       3.6419   4.5877   5.7112   N.pl3     1 RES1   0.0000
     6 N5       2.6603   5.3918   7.7078   N.pl3     1 RES1   0.0000
     7 N6       1.3756   4.1417   6.1805   N.pl3     1 RES1   0.0000
     8 C1       4.4353   5.6690   4.0493   C.2       1 RES1   0.0000
     9 C2       5.2367   4.5419   4.2282   C.2       1 RES1   0.0000
    10 C3       4.7005   3.8640   5.2844   C.2       1 RES1   0.0000
    11 C4       2.3110   7.4049   8.3396   C.2       1 RES1   0.0000
    12 C5       2.5685   6.6490   9.4830   C.2       1 RES1   0.0000
    13 C6       2.7823   5.3751   9.0531   C.2       1 RES1   0.0000
    14 C7      -0.3507   4.7681   5.1018   C.2       1 RES1   0.0000
    15 C8      -0.5650   3.4459   5.4920   C.2       1 RES1   0.0000
    16 C9       0.5537   3.0741   6.1664   C.2       1 RES1   0.0000
    17 C10      2.6871   4.3058   6.7557   C.3       1 RES1   0.0000
    18 H1       5.9843   4.3005   3.7295   H         1 RES1   0.0000
    19 H2       5.0047   3.0607   5.6407   H         1 RES1   0.0000
    20 H3       2.1341   8.3183   8.3370   H         1 RES1   0.0000
    21 H4       2.5887   6.9540  10.3617   H         1 RES1   0.0000
    22 H5       2.9759   4.6361   9.5830   H         1 RES1   0.0000
    23 H6      -0.9581   5.2763   4.6140   H         1 RES1   0.0000
    24 H7      -1.3184   2.9259   5.3252   H         1 RES1   0.0000
    25 H8       0.7202   2.2421   6.5466   H         1 RES1   0.0000
    26 H9       2.9443   3.4797   7.2151   H         1 RES1   0.0000
    27 H10      4.5669   6.3107   3.3894   H         1 RES1   0.0000
    28 N1A      0.3729   8.0173   5.7450   N.2       1 RES1   0.0000
    29 N2A      1.4767   7.0788   3.4390   N.2       1 RES1   0.0000
    30 N3A      2.9993   8.5142   5.1789   N.2       1 RES1   0.0000
    31 N4A      0.1888   9.1327   4.9841   N.pl3     1 RES1   0.0000
    32 N5A      1.1704   8.3285   2.9875   N.pl3     1 RES1   0.0000
    33 N6A      2.4551   9.5786   4.5148   N.pl3     1 RES1   0.0000
    34 C1A     -0.6046   8.0513   6.6461   C.2       1 RES1   0.0000
    35 C2A     -1.4060   9.1784   6.4672   C.2       1 RES1   0.0000
    36 C3A     -0.8699   9.8563   5.4110   C.2       1 RES1   0.0000
    37 C4A      1.5197   6.3154   2.3558   C.2       1 RES1   0.0000
    38 C5A      1.2622   7.0713   1.2123   C.2       1 RES1   0.0000
    39 C6A      1.0483   8.3452   1.6423   C.2       1 RES1   0.0000
    40 C7A      4.1814   8.9522   5.5936   C.2       1 RES1   0.0000
    41 C8A      4.3957  10.2744   5.2034   C.2       1 RES1   0.0000
    42 C9A      3.2770  10.6463   4.5289   C.2       1 RES1   0.0000
    43 C10A     1.1436   9.4145   3.9396   C.3       1 RES1   0.0000
    44 H1A     -2.1536   9.4198   6.9659   H         1 RES1   0.0000
    45 H2A     -1.1740  10.6596   5.0546   H         1 RES1   0.0000
    46 H3A      1.6966   5.4020   2.3583   H         1 RES1   0.0000
    47 H4A      1.2420   6.7663   0.3337   H         1 RES1   0.0000
    48 H5A      0.8548   9.0842   1.1123   H         1 RES1   0.0000
    49 H6A      4.7888   8.4440   6.0814   H         1 RES1   0.0000
    50 H7A      5.1491  10.7944   5.3701   H         1 RES1   0.0000
    51 H8A      3.1105  11.4782   4.1487   H         1 RES1   0.0000
    52 H9A      0.8864  10.2406   3.4803   H         1 RES1   0.0000
    53 H10A    -0.7362   7.4096   7.3060   H         1 RES1   0.0000
    54 S1       2.7089   8.7568  -2.1416   S.o2      2 RES2   0.0000
    55 O1       1.7052   9.7594  -1.8567   O.3       2 RES2  -1.0000
    56 O2       2.1526   7.4220  -2.2320   O.2       2 RES2   0.0000
    57 O3       3.5320   9.0797  -3.2894   O.2       2 RES2   0.0000
    58 C11      3.8001   8.7449  -0.7384   C.ar      2 RES2   0.0000
    59 C12      3.8211   9.8242   0.1585   C.ar      2 RES2   0.0000
    60 C13      4.6652   9.8017   1.2269   C.ar      2 RES2   0.0000
    61 C14      5.5193   8.6999   1.4602   C.ar      2 RES2   0.0000
    62 C15      6.4080   8.6470   2.5650   C.ar      2 RES2   0.0000
    63 C16      7.2028   7.5593   2.7658   C.ar      2 RES2   0.0000
    64 C17      7.1804   6.4780   1.8717   C.ar      2 RES2   0.0000
    65 C18      6.3550   6.5101   0.7879   C.ar      2 RES2   0.0000
    66 C19      5.4968   7.6122   0.5540   C.ar      2 RES2   0.0000
    67 C20      4.6173   7.6649  -0.5564   C.ar      2 RES2   0.0000
    68 H11      3.2604  10.5533   0.0235   H         2 RES2   0.0000
    69 H12      4.6800  10.5239   1.8129   H         2 RES2   0.0000
    70 H13      6.4484   9.3619   3.1583   H         2 RES2   0.0000
    71 H14      7.7670   7.5324   3.5049   H         2 RES2   0.0000
    72 H15      7.7285   5.7410   2.0193   H         2 RES2   0.0000
    73 H16      6.3562   5.7962   0.1914   H         2 RES2   0.0000
    74 H17      4.5960   6.9606  -1.1637   H         2 RES2   0.0000
    75 O4       1.5727   2.9692   3.0641   O.3       3 RES3   0.0000
    76 C21      2.2539   2.6658   1.8974   C.3       3 RES3   0.0000
    77 H18      0.7804   3.0892   2.8942   H         3 RES3   0.0000
    78 H19      2.0610   1.7614   1.6396   H         3 RES3   0.0000
    79 H20      3.1986   2.7617   2.0439   H         3 RES3   0.0000
    80 H21      1.9760   3.2640   1.2000   H         3 RES3   0.0000
@<TRIPOS>BOND
     1     1     2    1
     2     2     5    1
     3     3     1    1
     4     4     1    1
     5     5    10    1
     6     6     3    1
     7     7     4    1
     8     8     2    2
     9     9     8    1
    10    10     9    2
    11    11     3    2
    12    12    11    1
    13    13     6    1
    14    14     4    2
    15    15    14    1
    16    16     7    1
    17    17     5    1
    18    18     9    1
    19    19    10    1
    20    20    11    1
    21    21    12    1
    22    22    13    1
    23    23    14    1
    24    24    15    1
    25    25    16    1
    26    26    17    1
    27    27     8    1
    28    28     1    1
    29    29     1    1
    30    30     1    1
    31    31    28    1
    32    32    29    1
    33    33    30    1
    34    34    28    2
    35    35    34    1
    36    36    31    1
    37    37    29    2
    38    38    37    1
    39    39    32    1
    40    40    30    2
    41    41    40    1
    42    42    33    1
    43    43    31    1
    44    44    35    1
    45    45    36    1
    46    46    37    1
    47    47    38    1
    48    48    39    1
    49    49    40    1
    50    50    41    1
    51    51    42    1
    52    52    43    1
    53    53    34    1
    54     6    17    1
    55     7    17    1
    56    12    13    2
    57    15    16    2
    58    32    43    1
    59    33    43    1
    60    35    36    2
    61    38    39    2
    62    41    42    2
    63    54    55    1
    64    56    54    2
    65    57    54    2
    66    58    54    1
    67    59    58   ar
    68    60    59   ar
    69    61    60   ar
    70    62    61   ar
    71    63    62   ar
    72    64    63   ar
    73    65    64   ar
    74    66    61   ar
    75    67    58   ar
    76    68    59    1
    77    69    60    1
    78    70    62    1
    79    71    63    1
    80    72    64    1
    81    73    65    1
    82    74    67    1
    83    65    66   ar
    84    66    67   ar
    85    75    76    1
    86    76    78    1
    87    77    75    1
    88    79    76    1
    89    80    76    1
@<TRIPOS>SUBSTRUCTURE
     1 RES1        1 GROUP             0 ****  ****    0  
     2 RES2       54 GROUP             0 ****  ****    0  
     3 RES3       75 GROUP             0 ****  ****    0  
@<TRIPOS>CRYSIN
    9.3886   10.6281   11.5141   72.9455   75.4527   84.9335     2     1
