@<TRIPOS>MOLECULE
JOBYIK
    97   108     2     0     0
SMALL
NO_CHARGES
****
Generated from the CSD

@<TRIPOS>ATOM
     1 Fe1      1.2242   6.3952   4.7427   Fe        1 RES1   0.0000
     2 P1      -1.8126   3.9401   2.4484   P.3       1 RES1   0.0000
     3 S1      -1.3674   4.4821   0.6334   S.2       1 RES1   0.0000
     4 Cl1     -3.1469   6.6145   4.5340   Cl        1 RES1   0.0000
     5 F1      -0.5075   9.4394   7.3251   F         1 RES1   0.0000
     6 F2       2.9486   3.3951   2.1239   F         1 RES1   0.0000
     7 O1      -0.9760   8.1320   5.4822   O.3       1 RES1   0.0000
     8 O2       0.9741   4.0515   3.1256   O.3       1 RES1   0.0000
     9 O3       0.3406   7.2870   7.3554   O.3       1 RES1   0.0000
    10 O4       3.1171   4.2445   4.2687   O.3       1 RES1   0.0000
    11 O5       1.2525   9.0402   5.9088   O.3       1 RES1   0.0000
    12 O6       2.6249   5.6492   2.3210   O.3       1 RES1   0.0000
    13 C1      -1.4993   6.2599   4.2934   C.2       1 RES1   0.0000
    14 C2      -0.9932   5.0737   3.6338   C.2       1 RES1   0.0000
    15 C3       1.7752   5.4962   7.3346   C.2       1 RES1   0.0000
    16 C4       2.5802   4.6524   6.4637   C.2       1 RES1   0.0000
    17 C5       2.5393   8.7719   4.0236   C.2       1 RES1   0.0000
    18 C6       2.9381   7.7872   3.0255   C.2       1 RES1   0.0000
    19 C7       1.8255   5.4537   8.8124   C.ar      1 RES1   0.0000
    20 C8       0.6920   5.2048   9.5463   C.ar      1 RES1   0.0000
    21 H1      -0.1430   5.1053   9.1051   H         1 RES1   0.0000
    22 C9       0.7576   5.0992  10.9299   C.ar      1 RES1   0.0000
    23 H2      -0.0274   4.9135  11.4310   H         1 RES1   0.0000
    24 C10      1.9623   5.2668  11.5710   C.ar      1 RES1   0.0000
    25 H3       2.0085   5.2036  12.5190   H         1 RES1   0.0000
    26 C11      3.0981   5.5229  10.8442   C.ar      1 RES1   0.0000
    27 H4       3.9266   5.6456  11.2925   H         1 RES1   0.0000
    28 C12      3.0414   5.6055   9.4678   C.ar      1 RES1   0.0000
    29 H5       3.8338   5.7645   8.9681   H         1 RES1   0.0000
    30 C13      3.3430   3.4954   6.9691   C.ar      1 RES1   0.0000
    31 C14      2.7379   2.5921   7.8372   C.ar      1 RES1   0.0000
    32 H6       1.8180   2.6917   8.0528   H         1 RES1   0.0000
    33 C15      3.4628   1.5480   8.3898   C.ar      1 RES1   0.0000
    34 H7       3.0392   0.9349   8.9795   H         1 RES1   0.0000
    35 C16      4.8010   1.4011   8.0842   C.ar      1 RES1   0.0000
    36 H8       5.2999   0.6933   8.4769   H         1 RES1   0.0000
    37 C17      5.4205   2.2716   7.2147   C.ar      1 RES1   0.0000
    38 H9       6.3388   2.1587   7.0005   H         1 RES1   0.0000
    39 C18      4.6930   3.3266   6.6436   C.ar      1 RES1   0.0000
    40 H10      5.1160   3.9240   6.0382   H         1 RES1   0.0000
    41 C19      2.8562  10.2154   3.9265   C.ar      1 RES1   0.0000
    42 C20      2.9276  10.7970   2.6600   C.ar      1 RES1   0.0000
    43 H11      2.7826  10.2616   1.8876   H         1 RES1   0.0000
    44 C21      3.2078  12.1459   2.5158   C.ar      1 RES1   0.0000
    45 H12      3.2424  12.5380   1.6505   H         1 RES1   0.0000
    46 C22      3.4376  12.9180   3.6423   C.ar      1 RES1   0.0000
    47 H13      3.6510  13.8395   3.5481   H         1 RES1   0.0000
    48 C23      3.3577  12.3547   4.9002   C.ar      1 RES1   0.0000
    49 H14      3.4985  12.8950   5.6684   H         1 RES1   0.0000
    50 C24      3.0715  11.0022   5.0487   C.ar      1 RES1   0.0000
    51 H15      3.0221  10.6173   5.9168   H         1 RES1   0.0000
    52 C25      4.0437   7.9621   2.0489   C.ar      1 RES1   0.0000
    53 C26      5.2765   8.4125   2.5015   C.ar      1 RES1   0.0000
    54 H16      5.3898   8.6407   3.4167   H         1 RES1   0.0000
    55 C27      6.3359   8.5303   1.6320   C.ar      1 RES1   0.0000
    56 H17      7.1842   8.8047   1.9575   H         1 RES1   0.0000
    57 C28      6.1743   8.2522   0.2841   C.ar      1 RES1   0.0000
    58 H18      6.9035   8.3530  -0.3155   H         1 RES1   0.0000
    59 C29      4.9454   7.8261  -0.1813   C.ar      1 RES1   0.0000
    60 H19      4.8238   7.6488  -1.1066   H         1 RES1   0.0000
    61 C30      3.8986   7.6598   0.6896   C.ar      1 RES1   0.0000
    62 H20      3.0651   7.3368   0.3669   H         1 RES1   0.0000
    63 C31     -1.2209   2.3019   2.9641   C.ar      1 RES1   0.0000
    64 C32     -1.0009   1.9984   4.3034   C.ar      1 RES1   0.0000
    65 H21     -1.1816   2.6443   4.9759   H         1 RES1   0.0000
    66 C33     -0.5162   0.7467   4.6518   C.ar      1 RES1   0.0000
    67 H22     -0.3652   0.5354   5.5656   H         1 RES1   0.0000
    68 C34     -0.2516  -0.1894   3.6809   C.ar      1 RES1   0.0000
    69 H23      0.0763  -1.0453   3.9279   H         1 RES1   0.0000
    70 C35     -0.4619   0.1056   2.3445   C.ar      1 RES1   0.0000
    71 H24     -0.2673  -0.5427   1.6791   H         1 RES1   0.0000
    72 C36     -0.9583   1.3561   1.9775   C.ar      1 RES1   0.0000
    73 H25     -1.1167   1.5601   1.0623   H         1 RES1   0.0000
    74 C37     -3.5926   3.9859   2.7985   C.ar      1 RES1   0.0000
    75 C38     -4.4123   4.8091   2.0104   C.ar      1 RES1   0.0000
    76 H26     -4.0253   5.3457   1.3293   H         1 RES1   0.0000
    77 C39     -5.7636   4.8467   2.2160   C.ar      1 RES1   0.0000
    78 H27     -6.3105   5.4270   1.6991   H         1 RES1   0.0000
    79 C40     -6.3280   4.0381   3.1812   C.ar      1 RES1   0.0000
    80 H28     -7.2675   4.0612   3.3225   H         1 RES1   0.0000
    81 C41     -5.5396   3.1919   3.9465   C.ar      1 RES1   0.0000
    82 H29     -5.9385   2.6273   4.5975   H         1 RES1   0.0000
    83 C42     -4.1632   3.1712   3.7566   C.ar      1 RES1   0.0000
    84 H30     -3.6171   2.6006   4.2834   H         1 RES1   0.0000
    85 N1      -0.5748   7.0563   4.7503   N.2       1 RES1   0.0000
    86 N2       0.3208   5.0094   3.8137   N.2       1 RES1   0.0000
    87 N3       1.0362   6.3279   6.6493   N.2       1 RES1   0.0000
    88 N4       2.5139   5.0446   5.2101   N.2       1 RES1   0.0000
    89 N5       1.8033   8.2097   4.9602   N.2       1 RES1   0.0000
    90 N6       2.2699   6.6727   3.1612   N.2       1 RES1   0.0000
    91 B1       0.0240   8.4817   6.5222   B         1 RES1   0.0000
    92 B2       2.4214   4.3368   2.9541   B         1 RES1   0.0000
    93 Cl2      9.7910   8.3235   1.0027   Cl        2 RES2   0.0000
    94 Cl3     12.5964   8.3034   1.7328   Cl        2 RES2   0.0000
    95 C43     11.4418   8.3154   0.4098   C.3       2 RES2   0.0000
    96 H31     11.5931   9.1179  -0.1499   H         2 RES2   0.0000
    97 H32     11.5827   7.5165  -0.1556   H         2 RES2   0.0000
@<TRIPOS>BOND
     1     1    85    1
     2     2     3    2
     3     4    13    1
     4     5    91    1
     5     6    92    1
     6     7    85    1
     7     8    86    1
     8     9    87    1
     9    10    88    1
    10    11    89    1
    11    12    90    1
    12    13    14    1
    13    14     2    1
    14    15    16    1
    15    16    30    1
    16    17    18    1
    17    18    52    1
    18    19    15    1
    19    20    19   ar
    20    21    20    1
    21    22    20   ar
    22    23    22    1
    23    24    22   ar
    24    25    24    1
    25    26    24   ar
    26    27    26    1
    27    28    19   ar
    28    29    28    1
    29    30    31   ar
    30    31    32    1
    31    33    31   ar
    32    34    33    1
    33    35    33   ar
    34    36    35    1
    35    37    35   ar
    36    38    37    1
    37    39    30   ar
    38    40    39    1
    39    41    17    1
    40    42    41   ar
    41    43    42    1
    42    44    42   ar
    43    45    44    1
    44    46    44   ar
    45    47    46    1
    46    48    46   ar
    47    49    48    1
    48    50    41   ar
    49    51    50    1
    50    52    53   ar
    51    53    54    1
    52    55    53   ar
    53    56    55    1
    54    57    55   ar
    55    58    57    1
    56    59    57   ar
    57    60    59    1
    58    61    52   ar
    59    62    61    1
    60    63     2    1
    61    64    63   ar
    62    65    64    1
    63    66    64   ar
    64    67    66    1
    65    68    66   ar
    66    69    68    1
    67    70    68   ar
    68    71    70    1
    69    72    63   ar
    70    73    72    1
    71    74     2    1
    72    75    74   ar
    73    76    75    1
    74    77    75   ar
    75    78    77    1
    76    79    77   ar
    77    80    79    1
    78    81    79   ar
    79    82    81    1
    80    83    74   ar
    81    84    83    1
    82    85    13    2
    83    86     1    1
    84    87     1    1
    85    88     1    1
    86    89     1    1
    87    90     1    1
    88    91     7    1
    89    92     8    1
    90     9    91    1
    91    10    92    1
    92    11    91    1
    93    12    92    1
    94    14    86    2
    95    15    87    2
    96    16    88    2
    97    17    89    2
    98    18    90    2
    99    26    28   ar
   100    37    39   ar
   101    48    50   ar
   102    59    61   ar
   103    70    72   ar
   104    81    83   ar
   105    93    95    1
   106    94    95    1
   107    95    96    1
   108    97    95    1
@<TRIPOS>SUBSTRUCTURE
     1 RES1        1 GROUP             0 ****  ****    0  
     2 RES2       93 GROUP             0 ****  ****    0  
@<TRIPOS>CRYSIN
   12.8630   12.1410   14.5710   90.0000  101.5080   90.0000     4     1
