@<TRIPOS>MOLECULE
JOHCUF
   113   118     1     0     0
SMALL
NO_CHARGES
****
Generated from the CSD

@<TRIPOS>ATOM
     1 Fe1      5.2593   5.7058   0.0000   Fe        1 RES1   0.0000
     2 S1       8.1683   3.1855  -5.1142   S.2       1 RES1   0.0000
     3 S2       7.1682   1.2302  -7.1694   S.3       1 RES1   0.0000
     4 S3       7.5374  -0.3275  -2.5983   S.2       1 RES1   0.0000
     5 S4       4.9914  -1.3657  -1.3888   S.3       1 RES1   0.0000
     6 S5       4.4885   3.5294  -0.9891   S.2       1 RES1   0.0000
     7 S6       2.9532   5.0254  -3.1366   S.3       1 RES1   0.0000
     8 N1       5.9843   1.5641  -4.9749   N.am      1 RES1   0.0000
     9 N2       5.2287   0.6064  -5.6342   N.2       1 RES1   0.0000
    10 N3       5.0435   0.7204  -2.7962   N.am      1 RES1   0.0000
    11 N4       3.7058   0.5611  -2.4707   N.2       1 RES1   0.0000
    12 N5       4.4353   3.0574  -3.6443   N.am      1 RES1   0.0000
    13 N6       3.9274   3.4322  -4.8786   N.2       1 RES1   0.0000
    14 B1       5.5631   1.9734  -3.5522   B         1 RES1   0.0000
    15 C1       7.0628   2.0374  -5.6229   C.2       1 RES1   0.0000
    16 C2       5.7291   0.3196  -6.7859   C.2       1 RES1   0.0000
    17 C3       5.1381  -0.7009  -7.7018   C.3       1 RES1   0.0000
    18 C4       5.8874  -0.2205  -2.3461   C.2       1 RES1   0.0000
    19 C5       3.5297  -0.4857  -1.7373   C.2       1 RES1   0.0000
    20 C6       2.1974  -0.9221  -1.2252   C.3       1 RES1   0.0000
    21 C7       4.0441   3.7903  -2.5991   C.2       1 RES1   0.0000
    22 C8       3.1430   4.4552  -4.7689   C.2       1 RES1   0.0000
    23 C9       2.4920   5.1362  -5.9160   C.3       1 RES1   0.0000
    24 H1       6.4077   2.4034  -3.0101   H         1 RES1   0.0000
    25 H2       4.2619  -0.9420  -7.3896   H         1 RES1   0.0000
    26 H3       5.6853  -1.4823  -7.7316   H         1 RES1   0.0000
    27 H4       5.0856  -0.3449  -8.5834   H         1 RES1   0.0000
    28 H5       2.1689  -0.8958  -0.2818   H         1 RES1   0.0000
    29 H6       1.5523  -0.3677  -1.5371   H         1 RES1   0.0000
    30 H7       1.9814  -1.7990  -1.5230   H         1 RES1   0.0000
    31 H8       2.7868   4.7206  -6.7517   H         1 RES1   0.0000
    32 H9       2.7567   6.0497  -5.9639   H         1 RES1   0.0000
    33 H10      1.5567   5.0865  -5.8602   H         1 RES1   0.0000
    34 O1       4.4698   5.0714   1.8890   O.2       1 RES1   0.0000
    35 N7       4.1838   3.9007   3.8051   N.am      1 RES1   0.0000
    36 C10      4.8758   4.2718   2.7406   C.2       1 RES1   0.0000
    37 C11      2.8222   4.3806   3.9940   C.3       1 RES1   0.0000
    38 C12      4.6598   2.8343   4.6811   C.3       1 RES1   0.0000
    39 H11      5.7864   3.8586   2.6476   H         1 RES1   0.0000
    40 H12      2.6254   4.4276   4.9315   H         1 RES1   0.0000
    41 H13      2.7136   5.3210   3.5737   H         1 RES1   0.0000
    42 H14      2.2579   3.7936   3.5994   H         1 RES1   0.0000
    43 H15      4.1190   2.0666   4.5972   H         1 RES1   0.0000
    44 H16      4.6274   3.0997   5.5719   H         1 RES1   0.0000
    45 H17      5.5183   2.5775   4.3807   H         1 RES1   0.0000
    46 O2       3.3930   6.5809  -0.3496   O.2       1 RES1   0.0000
    47 N8       1.5976   7.8121   0.2753   N.am      1 RES1   0.0000
    48 C13      2.8055   7.3305   0.4627   C.2       1 RES1   0.0000
    49 C14      0.8260   7.4807  -0.9207   C.3       1 RES1   0.0000
    50 C15      1.0575   8.8457   1.1529   C.3       1 RES1   0.0000
    51 H18      3.2096   7.6316   1.2796   H         1 RES1   0.0000
    52 H19      0.8444   8.2222  -1.4935   H         1 RES1   0.0000
    53 H20      1.1949   6.7358  -1.3629   H         1 RES1   0.0000
    54 H21     -0.0950   7.3263  -0.7032   H         1 RES1   0.0000
    55 H22      1.0685   9.7193   0.6533   H         1 RES1   0.0000
    56 H23      0.1756   8.6221   1.3847   H         1 RES1   0.0000
    57 H24      1.6236   8.9676   1.9086   H         1 RES1   0.0000
    58 S1A      2.3503   8.2260   5.1142   S.2       1 RES1   0.0000
    59 S2A      3.3503  10.1813   7.1694   S.3       1 RES1   0.0000
    60 S3A      2.9812  11.7390   2.5983   S.2       1 RES1   0.0000
    61 S4A      5.5271  12.7772   1.3888   S.3       1 RES1   0.0000
    62 S5A      6.0301   7.8821   0.9891   S.2       1 RES1   0.0000
    63 S6A      7.5653   6.3861   3.1366   S.3       1 RES1   0.0000
    64 N1A      4.5343   9.8474   4.9749   N.am      1 RES1   0.0000
    65 N2A      5.2899  10.8052   5.6342   N.2       1 RES1   0.0000
    66 N3A      5.4750  10.6911   2.7962   N.am      1 RES1   0.0000
    67 N4A      6.8127  10.8504   2.4707   N.2       1 RES1   0.0000
    68 N5A      6.0832   8.3541   3.6443   N.am      1 RES1   0.0000
    69 N6A      6.5911   7.9793   4.8786   N.2       1 RES1   0.0000
    70 B1A      4.9555   9.4381   3.5522   B         1 RES1   0.0000
    71 C1A      3.4557   9.3741   5.6229   C.2       1 RES1   0.0000
    72 C2A      4.7895  11.0919   6.7859   C.2       1 RES1   0.0000
    73 C3A      5.3804  12.1124   7.7018   C.3       1 RES1   0.0000
    74 C4A      4.6312  11.6320   2.3461   C.2       1 RES1   0.0000
    75 C5A      6.9889  11.8972   1.7373   C.2       1 RES1   0.0000
    76 C6A      8.3212  12.3336   1.2252   C.3       1 RES1   0.0000
    77 C7A      6.4745   7.6212   2.5991   C.2       1 RES1   0.0000
    78 C8A      7.3756   6.9563   4.7689   C.2       1 RES1   0.0000
    79 C9A      8.0265   6.2754   5.9160   C.3       1 RES1   0.0000
    80 H1A      4.1109   9.0081   3.0101   H         1 RES1   0.0000
    81 H2A      6.2567  12.3535   7.3896   H         1 RES1   0.0000
    82 H3A      4.8333  12.8938   7.7316   H         1 RES1   0.0000
    83 H4A      5.4330  11.7564   8.5834   H         1 RES1   0.0000
    84 H5A      8.3496  12.3073   0.2818   H         1 RES1   0.0000
    85 H6A      8.9662  11.7793   1.5371   H         1 RES1   0.0000
    86 H7A      8.5372  13.2105   1.5230   H         1 RES1   0.0000
    87 H8A      7.7317   6.6909   6.7517   H         1 RES1   0.0000
    88 H9A      7.7619   5.3618   5.9639   H         1 RES1   0.0000
    89 H10A     8.9619   6.3250   5.8602   H         1 RES1   0.0000
    90 O1A      6.0487   6.3401  -1.8890   O.2       1 RES1   0.0000
    91 N7A      6.3348   7.5108  -3.8051   N.am      1 RES1   0.0000
    92 C10A     5.6428   7.1397  -2.7406   C.2       1 RES1   0.0000
    93 C11A     7.6963   7.0309  -3.9940   C.3       1 RES1   0.0000
    94 C12A     5.8587   8.5772  -4.6811   C.3       1 RES1   0.0000
    95 H11A     4.7321   7.5529  -2.6476   H         1 RES1   0.0000
    96 H12A     7.8932   6.9839  -4.9315   H         1 RES1   0.0000
    97 H13A     7.8050   6.0905  -3.5737   H         1 RES1   0.0000
    98 H14A     8.2607   7.6179  -3.5994   H         1 RES1   0.0000
    99 H15A     6.3995   9.3449  -4.5972   H         1 RES1   0.0000
   100 H16A     5.8912   8.3118  -5.5719   H         1 RES1   0.0000
   101 H17A     5.0003   8.8340  -4.3807   H         1 RES1   0.0000
   102 O2A      7.1256   4.8307   0.3496   O.2       1 RES1   0.0000
   103 N8A      8.9210   3.5994  -0.2753   N.am      1 RES1   0.0000
   104 C13A     7.7131   4.0810  -0.4627   C.2       1 RES1   0.0000
   105 C14A     9.6926   3.9308   0.9207   C.3       1 RES1   0.0000
   106 C15A     9.4611   2.5658  -1.1529   C.3       1 RES1   0.0000
   107 H18A     7.3090   3.7799  -1.2796   H         1 RES1   0.0000
   108 H19A     9.6741   3.1893   1.4935   H         1 RES1   0.0000
   109 H20A     9.3237   4.6757   1.3629   H         1 RES1   0.0000
   110 H21A    10.6136   4.0852   0.7032   H         1 RES1   0.0000
   111 H22A     9.4501   1.6922  -0.6533   H         1 RES1   0.0000
   112 H23A    10.3430   2.7894  -1.3847   H         1 RES1   0.0000
   113 H24A     8.8950   2.4439  -1.9086   H         1 RES1   0.0000
@<TRIPOS>BOND
     1     1     6    1
     2     2    15    2
     3     3    15    1
     4     4    18    2
     5     5    18    1
     6     6    21    2
     7     7    21    1
     8     8     9    1
     9     9    16    2
    10    10    11    1
    11    11    19    2
    12    12    13    1
    13    13    22    2
    14    14     8    1
    15    15     8   am
    16    16     3    1
    17    17    16    1
    18    18    10   am
    19    19     5    1
    20    20    19    1
    21    21    12   am
    22    22     7    1
    23    23    22    1
    24    24    14    1
    25    25    17    1
    26    26    17    1
    27    27    17    1
    28    28    20    1
    29    29    20    1
    30    30    20    1
    31    31    23    1
    32    32    23    1
    33    33    23    1
    34    34     1    1
    35    35    36   am
    36    36    34    2
    37    37    35    1
    38    38    35    1
    39    39    36    1
    40    40    37    1
    41    41    37    1
    42    42    37    1
    43    43    38    1
    44    44    38    1
    45    45    38    1
    46    46     1    1
    47    47    48   am
    48    48    46    2
    49    49    47    1
    50    50    47    1
    51    51    48    1
    52    52    49    1
    53    53    49    1
    54    54    49    1
    55    55    50    1
    56    56    50    1
    57    57    50    1
    58    58    71    2
    59    59    71    1
    60    60    74    2
    61    61    74    1
    62    62     1    1
    63    63    77    1
    64    64    65    1
    65    65    72    2
    66    66    67    1
    67    67    75    2
    68    68    69    1
    69    69    78    2
    70    70    64    1
    71    71    64   am
    72    72    59    1
    73    73    72    1
    74    74    66   am
    75    75    61    1
    76    76    75    1
    77    77    62    2
    78    78    63    1
    79    79    78    1
    80    80    70    1
    81    81    73    1
    82    82    73    1
    83    83    73    1
    84    84    76    1
    85    85    76    1
    86    86    76    1
    87    87    79    1
    88    88    79    1
    89    89    79    1
    90    90     1    1
    91    91    92   am
    92    92    90    2
    93    93    91    1
    94    94    91    1
    95    95    92    1
    96    96    93    1
    97    97    93    1
    98    98    93    1
    99    99    94    1
   100   100    94    1
   101   101    94    1
   102   102     1    1
   103   103   104   am
   104   104   102    2
   105   105   103    1
   106   106   103    1
   107   107   104    1
   108   108   105    1
   109   109   105    1
   110   110   105    1
   111   111   106    1
   112   112   106    1
   113   113   106    1
   114    10    14    1
   115    12    14    1
   116    66    70    1
   117    68    70    1
   118    68    77   am
@<TRIPOS>SUBSTRUCTURE
     1 RES1        1 GROUP             0 ****  ****    0  
@<TRIPOS>CRYSIN
    8.7128   11.5535   12.9955   84.9810   81.0120   81.0080     2     1
