@<TRIPOS>MOLECULE
JOHCOZ
    89    89     3     0     0
SMALL
USER_CHARGES
****
Generated from the CSD

@<TRIPOS>ATOM
     1 Fe1      5.5057  -3.4744   5.6749   Fe        1 RES1   2.0000
     2 S1       2.6461  -3.1375   3.7573   S.o       1 RES1   0.0000
     3 S2       7.2359  -5.6098   4.1272   S.o       1 RES1   0.0000
     4 S3       6.4055  -0.9322   4.0762   S.o       1 RES1   0.0000
     5 O1       3.9379  -2.6775   4.4077   O.2       1 RES1   0.0000
     6 O2       5.8111  -5.2178   4.5106   O.2       1 RES1   0.0000
     7 O3       6.8757  -2.2967   4.5898   O.2       1 RES1   0.0000
     8 C1       2.9472  -4.8099   3.2165   C.3       1 RES1   0.0000
     9 C2       1.5064  -3.4833   5.0847   C.3       1 RES1   0.0000
    10 C3       7.5909  -7.1022   5.0485   C.3       1 RES1   0.0000
    11 C4       7.0521  -6.3437   2.5133   C.3       1 RES1   0.0000
    12 C5       7.4124   0.2686   4.9333   C.3       1 RES1   0.0000
    13 C6       7.1624  -0.8064   2.4655   C.3       1 RES1   0.0000
    14 H1       3.5336  -4.7485   2.4856   H         1 RES1   0.0000
    15 H2       2.0910  -5.2128   2.9850   H         1 RES1   0.0000
    16 H3       3.3712  -5.3035   3.9838   H         1 RES1   0.0000
    17 H4       1.2607  -2.6518   5.4592   H         1 RES1   0.0000
    18 H5       1.9191  -4.0047   5.7089   H         1 RES1   0.0000
    19 H6       0.7491  -3.9158   4.6761   H         1 RES1   0.0000
    20 H7       6.8695  -7.7640   4.9144   H         1 RES1   0.0000
    21 H8       7.6183  -6.8226   5.9473   H         1 RES1   0.0000
    22 H9       8.3985  -7.4673   4.7442   H         1 RES1   0.0000
    23 H10      6.3873  -7.0509   2.5662   H         1 RES1   0.0000
    24 H11      7.9055  -6.6788   2.2359   H         1 RES1   0.0000
    25 H12      6.7298  -5.6508   1.9068   H         1 RES1   0.0000
    26 H13      8.2907  -0.0129   4.9031   H         1 RES1   0.0000
    27 H14      7.1132   0.2726   5.8792   H         1 RES1   0.0000
    28 H15      7.2903   1.0969   4.5513   H         1 RES1   0.0000
    29 H16      6.9523   0.0705   2.1224   H         1 RES1   0.0000
    30 H17      8.0864  -0.9678   2.5423   H         1 RES1   0.0000
    31 H18      6.7425  -1.4473   1.9385   H         1 RES1   0.0000
    32 S1A      8.3653  -3.8113   7.5924   S.o       1 RES1   0.0000
    33 S2A      3.7755  -1.3390   7.2225   S.o       1 RES1   0.0000
    34 S3A      4.6058  -6.0167   7.2736   S.o       1 RES1   0.0000
    35 O1A      7.0734  -4.2713   6.9421   O.2       1 RES1   0.0000
    36 O2A      5.2003  -1.7311   6.8391   O.2       1 RES1   0.0000
    37 O3A      4.1357  -4.6522   6.7599   O.2       1 RES1   0.0000
    38 C1A      8.0642  -2.1389   8.1332   C.3       1 RES1   0.0000
    39 C2A      9.5049  -3.4655   6.2651   C.3       1 RES1   0.0000
    40 C3A      3.4204   0.1534   6.3013   C.3       1 RES1   0.0000
    41 C4A      3.9592  -0.6051   8.8365   C.3       1 RES1   0.0000
    42 C5A      3.5990  -7.2174   6.4165   C.3       1 RES1   0.0000
    43 C6A      3.8489  -6.1424   8.8843   C.3       1 RES1   0.0000
    44 H1A      7.4778  -2.2003   8.8642   H         1 RES1   0.0000
    45 H2A      8.9204  -1.7361   8.3648   H         1 RES1   0.0000
    46 H3A      7.6402  -1.6454   7.3660   H         1 RES1   0.0000
    47 H4A      9.7506  -4.2971   5.8905   H         1 RES1   0.0000
    48 H5A      9.0922  -2.9441   5.6408   H         1 RES1   0.0000
    49 H6A     10.2622  -3.0330   6.6737   H         1 RES1   0.0000
    50 H7A      4.1419   0.8152   6.4353   H         1 RES1   0.0000
    51 H8A      3.3930  -0.1262   5.4025   H         1 RES1   0.0000
    52 H9A      2.6128   0.5185   6.6056   H         1 RES1   0.0000
    53 H10A     4.6240   0.1020   8.7836   H         1 RES1   0.0000
    54 H11A     3.1058  -0.2700   9.1139   H         1 RES1   0.0000
    55 H12A     4.2815  -1.2980   9.4430   H         1 RES1   0.0000
    56 H13A     2.7206  -6.9359   6.4467   H         1 RES1   0.0000
    57 H14A     3.8982  -7.2214   5.4706   H         1 RES1   0.0000
    58 H15A     3.7210  -8.0457   6.7985   H         1 RES1   0.0000
    59 H16A     4.0591  -7.0193   9.2274   H         1 RES1   0.0000
    60 H17A     2.9249  -5.9810   8.8074   H         1 RES1   0.0000
    61 H18A     4.2688  -5.5016   9.4112   H         1 RES1   0.0000
    62 S4      12.5044  -1.8880   8.3105   S.2       2 RES2   0.0000
    63 S5      10.8098  -3.1758  10.4392   S.3       2 RES2   0.0000
    64 S6       8.4046   1.3986   8.4152   S.2       2 RES2   0.0000
    65 S7       8.1786   3.0407  10.9286   S.3       2 RES2   0.0000
    66 S8      13.4371   2.9077   8.4365   S.2       2 RES2   0.0000
    67 S9      14.9529   2.1054  10.9034   S.3       2 RES2   0.0000
    68 N1      10.9423  -0.6695  10.1700   N.am      2 RES2   0.0000
    69 N2      10.1055  -0.8628  11.2525   N.2       2 RES2   0.0000
    70 N3      10.2670   1.7465  10.3634   N.am      2 RES2   0.0000
    71 N4      10.5463   2.3368  11.5786   N.2       2 RES2   0.0000
    72 N5      12.7073   1.1045  10.3354   N.am      2 RES2   0.0000
    73 N6      13.0827   0.4824  11.5140   N.2       2 RES2   0.0000
    74 B1      11.3153   0.7770   9.7300   B         2 RES2  -1.0000
    75 C7      11.4466  -1.7793   9.5996   C.2       2 RES2   0.0000
    76 C8       9.9502  -2.1129  11.4941   C.2       2 RES2   0.0000
    77 C9       9.0488   1.9907   9.8429   C.2       2 RES2   0.0000
    78 C10      9.5454   3.0385  11.9852   C.2       2 RES2   0.0000
    79 C11     13.5744   2.0091   9.8331   C.2       2 RES2   0.0000
    80 C12     14.2264   0.9076  11.9134   C.2       2 RES2   0.0000
    81 H19     11.3010   0.8761   8.6474   H         2 RES2   0.0000
    82 H20      9.4005  -2.4179  12.1783   H         2 RES2   0.0000
    83 H21      9.5740   3.5087  12.7798   H         2 RES2   0.0000
    84 H22     14.6444   0.5911  12.7004   H         2 RES2   0.0000
    85 Cl1     18.8516   5.8027   8.0100   Cl        3 RES3   0.0000
    86 Cl2     16.7278   3.8082   8.0927   Cl        3 RES3   0.0000
    87 Cl3     18.4266   4.0313   5.7745   Cl        3 RES3   0.0000
    88 C13     18.3624   4.1707   7.5249   C.3       3 RES3   0.0000
    89 H23     18.9624   3.5288   7.8835   H         3 RES3   0.0000
@<TRIPOS>BOND
     1     1     5    1
     2     2     5    2
     3     3     6    2
     4     4     7    2
     5     6     1    1
     6     7     1    1
     7     8     2    1
     8     9     2    1
     9    10     3    1
    10    11     3    1
    11    12     4    1
    12    13     4    1
    13    14     8    1
    14    15     8    1
    15    16     8    1
    16    17     9    1
    17    18     9    1
    18    19     9    1
    19    20    10    1
    20    21    10    1
    21    22    10    1
    22    23    11    1
    23    24    11    1
    24    25    11    1
    25    26    12    1
    26    27    12    1
    27    28    12    1
    28    29    13    1
    29    30    13    1
    30    31    13    1
    31    32    35    2
    32    33    36    2
    33    34    37    2
    34    35     1    1
    35    36     1    1
    36    37     1    1
    37    38    32    1
    38    39    32    1
    39    40    33    1
    40    41    33    1
    41    42    34    1
    42    43    34    1
    43    44    38    1
    44    45    38    1
    45    46    38    1
    46    47    39    1
    47    48    39    1
    48    49    39    1
    49    50    40    1
    50    51    40    1
    51    52    40    1
    52    53    41    1
    53    54    41    1
    54    55    41    1
    55    56    42    1
    56    57    42    1
    57    58    42    1
    58    59    43    1
    59    60    43    1
    60    61    43    1
    61    62    75    2
    62    63    75    1
    63    64    77    2
    64    65    77    1
    65    66    79    2
    66    67    79    1
    67    68    69    1
    68    69    76    2
    69    70    71    1
    70    71    78    2
    71    72    73    1
    72    73    80    2
    73    74    68    1
    74    75    68   am
    75    76    63    1
    76    77    70   am
    77    78    65    1
    78    79    72   am
    79    80    67    1
    80    81    74    1
    81    82    76    1
    82    83    78    1
    83    84    80    1
    84    70    74    1
    85    72    74    1
    86    85    88    1
    87    86    88    1
    88    87    88    1
    89    88    89    1
@<TRIPOS>SUBSTRUCTURE
     1 RES1        1 GROUP             0 ****  ****    0  
     2 RES2       62 GROUP             0 ****  ****    0  
     3 RES3       85 GROUP             0 ****  ****    0  
@<TRIPOS>CRYSIN
   12.0552   12.4970   13.3489  116.0080   94.4850  115.0470     2     1
