@<TRIPOS>MOLECULE
JOHDAM
   117   117     3     0     0
SMALL
USER_CHARGES
****
Generated from the CSD

@<TRIPOS>ATOM
     1 Fe1      7.7261   2.5073   6.0405   Fe        1 RES1   2.0000
     2 O1       9.0441   1.7195   4.5586   O.2       1 RES1   0.0000
     3 O2       6.2097   2.8519   4.6343   O.2       1 RES1   0.0000
     4 O3       8.6124   4.3909   5.6093   O.2       1 RES1   0.0000
     5 N1      10.9729   2.6147   3.7416   N.am      1 RES1   0.0000
     6 N2       5.2603   4.1651   3.0438   N.am      1 RES1   0.0000
     7 N3       9.6806   6.2232   6.4165   N.am      1 RES1   0.0000
     8 C1       9.6881   2.2989   3.6654   C.2       1 RES1   0.0000
     9 C2      11.7676   2.2883   4.9182   C.3       1 RES1   0.0000
    10 C3      11.6828   3.2145   2.6192   C.3       1 RES1   0.0000
    11 C4       6.2893   3.7136   3.7387   C.2       1 RES1   0.0000
    12 C5       3.9121   3.6571   3.2740   C.3       1 RES1   0.0000
    13 C6       5.4212   5.2073   2.0345   C.3       1 RES1   0.0000
    14 C7       8.6399   5.4208   6.3159   C.2       1 RES1   0.0000
    15 C8      10.9291   5.9321   5.7337   C.3       1 RES1   0.0000
    16 C9       9.6656   7.4074   7.2728   C.3       1 RES1   0.0000
    17 H1       9.2765   2.5809   2.8149   H         1 RES1   0.0000
    18 H2      12.3897   1.5453   4.6995   H         1 RES1   0.0000
    19 H3      11.2260   2.0688   5.6056   H         1 RES1   0.0000
    20 H4      12.2877   3.0998   5.2190   H         1 RES1   0.0000
    21 H5      12.4361   2.6370   2.3582   H         1 RES1   0.0000
    22 H6      11.0819   3.3098   1.8484   H         1 RES1   0.0000
    23 H7      12.0468   4.0235   2.8874   H         1 RES1   0.0000
    24 H8       7.1685   4.1215   3.4902   H         1 RES1   0.0000
    25 H9       3.4760   3.3612   2.4162   H         1 RES1   0.0000
    26 H10      3.9283   2.9340   3.9022   H         1 RES1   0.0000
    27 H11      3.3654   4.3244   3.6122   H         1 RES1   0.0000
    28 H12      6.3967   5.4179   1.8967   H         1 RES1   0.0000
    29 H13      4.9423   5.9865   2.3196   H         1 RES1   0.0000
    30 H14      5.0749   4.9055   1.1356   H         1 RES1   0.0000
    31 H15      7.8743   5.7369   6.8198   H         1 RES1   0.0000
    32 H16     10.7685   5.1914   5.0499   H         1 RES1   0.0000
    33 H17     11.1949   6.7992   5.1949   H         1 RES1   0.0000
    34 H18     11.5850   5.7302   6.3184   H         1 RES1   0.0000
    35 H19     10.4049   7.3306   7.9252   H         1 RES1   0.0000
    36 H20      8.8369   7.4782   7.6594   H         1 RES1   0.0000
    37 H21      9.8415   8.2489   6.7050   H         1 RES1   0.0000
    38 O1A      6.4082   3.2951   7.5225   O.2       1 RES1   0.0000
    39 O2A      9.2426   2.1627   7.4468   O.2       1 RES1   0.0000
    40 O3A      6.8399   0.6237   6.4718   O.2       1 RES1   0.0000
    41 N1A      4.4794   2.3999   8.3395   N.am      1 RES1   0.0000
    42 N2A     10.1920   0.8495   9.0373   N.am      1 RES1   0.0000
    43 N3A      5.7716  -1.2086   5.6646   N.am      1 RES1   0.0000
    44 C1A      5.7642   2.7157   8.4157   C.2       1 RES1   0.0000
    45 C2A      3.6846   2.7263   7.1629   C.3       1 RES1   0.0000
    46 C3A      3.7695   1.8000   9.4619   C.3       1 RES1   0.0000
    47 C4A      9.1629   1.3010   8.3424   C.2       1 RES1   0.0000
    48 C5A     11.5402   1.3575   8.8071   C.3       1 RES1   0.0000
    49 C6A     10.0311  -0.1927  10.0466   C.3       1 RES1   0.0000
    50 C7A      6.8124  -0.4062   5.7652   C.2       1 RES1   0.0000
    51 C8A      4.5231  -0.9175   6.3474   C.3       1 RES1   0.0000
    52 C9A      5.7867  -2.3928   4.8083   C.3       1 RES1   0.0000
    53 H1A      6.1758   2.4337   9.2662   H         1 RES1   0.0000
    54 H2A      3.0625   3.4692   7.3816   H         1 RES1   0.0000
    55 H3A      4.2263   2.9458   6.4755   H         1 RES1   0.0000
    56 H4A      3.1646   1.9148   6.8621   H         1 RES1   0.0000
    57 H5A      3.0161   2.3776   9.7229   H         1 RES1   0.0000
    58 H6A      4.3703   1.7048  10.2327   H         1 RES1   0.0000
    59 H7A      3.4054   0.9911   9.1937   H         1 RES1   0.0000
    60 H8A      8.2838   0.8931   8.5909   H         1 RES1   0.0000
    61 H9A     11.9762   1.6534   9.6649   H         1 RES1   0.0000
    62 H10A    11.5239   2.0806   8.1789   H         1 RES1   0.0000
    63 H11A    12.0868   0.6902   8.4689   H         1 RES1   0.0000
    64 H12A     9.0556  -0.4033  10.1844   H         1 RES1   0.0000
    65 H13A    10.5100  -0.9719   9.7615   H         1 RES1   0.0000
    66 H14A    10.3773   0.1091  10.9455   H         1 RES1   0.0000
    67 H15A     7.5779  -0.7223   5.2613   H         1 RES1   0.0000
    68 H16A     4.6838  -0.1768   7.0312   H         1 RES1   0.0000
    69 H17A     4.2574  -1.7846   6.8862   H         1 RES1   0.0000
    70 H18A     3.8672  -0.7156   5.7627   H         1 RES1   0.0000
    71 H19A     5.0473  -2.3160   4.1559   H         1 RES1   0.0000
    72 H20A     6.6154  -2.4636   4.4217   H         1 RES1   0.0000
    73 H21A     5.6108  -3.2344   5.3761   H         1 RES1   0.0000
    74 S1       1.9244   6.9052   3.0714   S.2       2 RES2   0.0000
    75 S2       1.8980   5.5181   0.4035   S.3       2 RES2   0.0000
    76 S3       3.3929  12.1429   2.6570   S.2       2 RES2   0.0000
    77 S4       0.4637  12.0297   1.9278   S.3       2 RES2   0.0000
    78 S5       6.4683   8.5692   1.5047   S.2       2 RES2   0.0000
    79 S6       6.5460  10.5966  -0.6909   S.3       2 RES2   0.0000
    80 N4       2.8117   7.8497   0.6827   N.am      2 RES2   0.0000
    81 N5       2.9124   7.5884  -0.6832   N.2       2 RES2   0.0000
    82 N6       2.0654  10.1842   1.3164   N.am      2 RES2   0.0000
    83 N7       0.8386   9.7719   0.8033   N.2       2 RES2   0.0000
    84 N8       4.3611   9.8190   0.3083   N.am      2 RES2   0.0000
    85 N9       3.9906  10.6909  -0.7090   N.2       2 RES2   0.0000
    86 C10      2.2622   6.8829   1.4304   C.2       2 RES2   0.0000
    87 C11      2.4801   6.4076  -0.9713   C.2       2 RES2   0.0000
    88 C12      2.4140   5.8600  -2.3558   C.3       2 RES2   0.0000
    89 C13      2.0827  11.3696   1.9533   C.2       2 RES2   0.0000
    90 C14     -0.0954  10.6282   1.0542   C.2       2 RES2   0.0000
    91 C15     -1.5131  10.4376   0.6681   C.3       2 RES2   0.0000
    92 C16      5.6857   9.6060   0.4547   C.2       2 RES2   0.0000
    93 C17      5.0276  11.1699  -1.3142   C.2       2 RES2   0.0000
    94 C18      4.9561  12.1232  -2.4500   C.3       2 RES2   0.0000
    95 B1       3.2855   9.2228   1.2480   B         2 RES2  -1.0000
    96 H22      2.7784   6.4918  -3.0324   H         2 RES2   0.0000
    97 H23      1.5035   5.7143  -2.5974   H         2 RES2   0.0000
    98 H24      2.9223   5.0525  -2.4162   H         2 RES2   0.0000
    99 H25     -2.1017  10.1996   1.4618   H         2 RES2   0.0000
   100 H26     -1.8459  11.2413   0.3020   H         2 RES2   0.0000
   101 H27     -1.5957   9.7380   0.0242   H         2 RES2   0.0000
   102 H28      5.3459  13.0211  -2.1867   H         2 RES2   0.0000
   103 H29      5.4343  11.8238  -3.1773   H         2 RES2   0.0000
   104 H30      4.1033  12.2499  -2.7424   H         2 RES2   0.0000
   105 H31      3.7001   9.0845   2.2700   H         2 RES2   0.0000
   106 O4       9.5510   9.7423   4.2149   O.2       3 RES3   0.0000
   107 N10     11.4904  10.1844   5.3258   N.am      3 RES3   0.0000
   108 C19     10.7674   9.6697   4.3190   C.2       3 RES3   0.0000
   109 C20     10.8473  10.9499   6.3764   C.3       3 RES3   0.0000
   110 C21     12.9396  10.2126   5.2867   C.3       3 RES3   0.0000
   111 H32     11.3316   9.1789   3.6485   H         3 RES3   0.0000
   112 H33     10.7766  11.8505   6.1493   H         3 RES3   0.0000
   113 H34     11.4144  10.8447   7.1883   H         3 RES3   0.0000
   114 H35      9.9635  10.5934   6.5238   H         3 RES3   0.0000
   115 H36     13.2967   9.8339   6.1734   H         3 RES3   0.0000
   116 H37     13.2770   9.6191   4.5908   H         3 RES3   0.0000
   117 H38     13.2457  11.1227   5.1949   H         3 RES3   0.0000
@<TRIPOS>BOND
     1     1     2    1
     2     2     8    2
     3     3     1    1
     4     4     1    1
     5     5     8   am
     6     6    11   am
     7     7    14   am
     8     8    17    1
     9     9     5    1
    10    10     5    1
    11    11     3    2
    12    12     6    1
    13    13     6    1
    14    14     4    2
    15    15     7    1
    16    16     7    1
    17    18     9    1
    18    19     9    1
    19    20     9    1
    20    21    10    1
    21    22    10    1
    22    23    10    1
    23    24    11    1
    24    25    12    1
    25    26    12    1
    26    27    12    1
    27    28    13    1
    28    29    13    1
    29    30    13    1
    30    31    14    1
    31    32    15    1
    32    33    15    1
    33    34    15    1
    34    35    16    1
    35    36    16    1
    36    37    16    1
    37    38     1    1
    38    39     1    1
    39    40     1    1
    40    41    44   am
    41    42    47   am
    42    43    50   am
    43    44    38    2
    44    45    41    1
    45    46    41    1
    46    47    39    2
    47    48    42    1
    48    49    42    1
    49    50    40    2
    50    51    43    1
    51    52    43    1
    52    53    44    1
    53    54    45    1
    54    55    45    1
    55    56    45    1
    56    57    46    1
    57    58    46    1
    58    59    46    1
    59    60    47    1
    60    61    48    1
    61    62    48    1
    62    63    48    1
    63    64    49    1
    64    65    49    1
    65    66    49    1
    66    67    50    1
    67    68    51    1
    68    69    51    1
    69    70    51    1
    70    71    52    1
    71    72    52    1
    72    73    52    1
    73    74    86    2
    74    75    86    1
    75    76    89    2
    76    77    89    1
    77    78    92    2
    78    79    92    1
    79    80    81    1
    80    81    87    2
    81    82    83    1
    82    83    90    2
    83    84    85    1
    84    85    93    2
    85    86    80   am
    86    87    75    1
    87    88    87    1
    88    89    82   am
    89    90    77    1
    90    91    90    1
    91    92    84   am
    92    93    79    1
    93    94    93    1
    94    95    80    1
    95    96    88    1
    96    97    88    1
    97    98    88    1
    98    99    91    1
    99   100    91    1
   100   101    91    1
   101   102    94    1
   102   103    94    1
   103   104    94    1
   104   105    95    1
   105    82    95    1
   106    84    95    1
   107   106   108    2
   108   107   108   am
   109   108   111    1
   110   109   107    1
   111   110   107    1
   112   112   109    1
   113   113   109    1
   114   114   109    1
   115   115   110    1
   116   116   110    1
   117   117   110    1
@<TRIPOS>SUBSTRUCTURE
     1 RES1        1 GROUP             0 ****  ****    0  
     2 RES2       74 GROUP             0 ****  ****    0  
     3 RES3      106 GROUP             0 ****  ****    0  
@<TRIPOS>CRYSIN
   11.3576   12.2918   13.7064   67.8510   72.6180   87.8080     2     1
