@<TRIPOS>MOLECULE
JOHKID
    89    94     7     0     0
SMALL
USER_CHARGES
****
Generated from the CSD

@<TRIPOS>ATOM
     1 Fe1      3.1664   4.3020   2.7821   Fe        1 RES1   2.0000
     2 N1       6.0176   5.5086   2.7942   N.pl3     1 RES1   0.0000
     3 H1       6.1170   5.4989   3.6895   H         1 RES1   0.0000
     4 N2       4.8811   5.0909   2.2137   N.2       1 RES1   0.0000
     5 N3       2.9285   4.3461   0.8692   N.ar      1 RES1   0.0000
     6 N4       1.3592   3.5490   2.6204   N.2       1 RES1   0.0000
     7 N5       0.3957   3.1133   3.4435   N.pl3     1 RES1   0.0000
     8 H2       0.4186   3.2145   4.3714   H         1 RES1   0.0000
     9 N6       1.8634   7.1036   2.7678   N.pl3     1 RES1   0.0000
    10 H3       1.7982   7.1877   1.8784   H         1 RES1   0.0000
    11 N7       2.4499   6.0471   3.3416   N.2       1 RES1   0.0000
    12 N8       3.4000   4.1894   4.6891   N.ar      1 RES1   0.0000
    13 N9       3.9560   2.5218   2.9460   N.2       1 RES1   0.0000
    14 N10      4.2696   1.5101   2.1197   N.pl3     1 RES1   0.0000
    15 H4       4.1266   1.5828   1.2316   H         1 RES1   0.0000
    16 C1       6.8722   5.9712   1.8596   C.2       1 RES1   0.0000
    17 H5       7.7220   6.3117   2.0238   H         1 RES1   0.0000
    18 C2       6.2834   5.8570   0.6301   C.2       1 RES1   0.0000
    19 H6       6.6384   6.0985  -0.1947   H         1 RES1   0.0000
    20 C3       5.0290   5.2973   0.8899   C.2       1 RES1   0.0000
    21 C4       3.8961   4.8690   0.0916   C.ar      1 RES1   0.0000
    22 C5       3.7395   4.9286  -1.2925   C.ar      1 RES1   0.0000
    23 H7       4.3947   5.3118  -1.8304   H         1 RES1   0.0000
    24 C6       2.5792   4.3999  -1.8491   C.ar      1 RES1   0.0000
    25 H8       2.4519   4.4317  -2.7698   H         1 RES1   0.0000
    26 C7       1.6155   3.8280  -1.0424   C.ar      1 RES1   0.0000
    27 H9       0.8498   3.4515  -1.4133   H         1 RES1   0.0000
    28 C8       1.8099   3.8255   0.3342   C.ar      1 RES1   0.0000
    29 C9       0.9127   3.3352   1.3648   C.2       1 RES1   0.0000
    30 C10     -0.3542   2.7315   1.3987   C.2       1 RES1   0.0000
    31 H10     -0.8770   2.4640   0.6776   H         1 RES1   0.0000
    32 C11     -0.6480   2.6254   2.7330   C.2       1 RES1   0.0000
    33 H11     -1.4322   2.2758   3.0906   H         1 RES1   0.0000
    34 C12      1.4153   7.9627   3.6984   C.2       1 RES1   0.0000
    35 H12      0.9781   8.7665   3.5307   H         1 RES1   0.0000
    36 C13      1.7110   7.4536   4.9381   C.2       1 RES1   0.0000
    37 H13      1.5145   7.8268   5.7671   H         1 RES1   0.0000
    38 C14      2.3734   6.2527   4.6789   C.2       1 RES1   0.0000
    39 C15      2.9824   5.1986   5.4726   C.ar      1 RES1   0.0000
    40 C16      3.1635   5.1513   6.8583   C.ar      1 RES1   0.0000
    41 H14      2.8707   5.8463   7.4025   H         1 RES1   0.0000
    42 C17      3.7921   4.0401   7.3982   C.ar      1 RES1   0.0000
    43 H15      3.9429   3.9993   8.3149   H         1 RES1   0.0000
    44 C18      4.1973   2.9917   6.5926   C.ar      1 RES1   0.0000
    45 H16      4.6087   2.2413   6.9563   H         1 RES1   0.0000
    46 C19      3.9723   3.0913   5.2238   C.ar      1 RES1   0.0000
    47 C20      4.2770   2.1082   4.1862   C.2       1 RES1   0.0000
    48 C21      4.7934   0.8061   4.1504   C.2       1 RES1   0.0000
    49 H17      5.0856   0.2864   4.8640   H         1 RES1   0.0000
    50 C22      4.7693   0.4740   2.8134   C.2       1 RES1   0.0000
    51 H18      5.0524  -0.3341   2.4509   H         1 RES1   0.0000
    52 C23      8.1306   2.7764   6.8804   C.2       2 RES2   0.0000
    53 C24      7.5736   3.2634   8.2126   C.ar      2 RES2   0.0000
    54 C25      7.5293   4.6104   8.5414   C.ar      2 RES2   0.0000
    55 H19      7.8778   5.2487   7.9617   H         2 RES2   0.0000
    56 C26      6.9605   4.9914   9.7423   C.ar      2 RES2   0.0000
    57 H20      6.9100   5.8896   9.9776   H         2 RES2   0.0000
    58 C27      6.4680   4.0140  10.5878   C.ar      2 RES2   0.0000
    59 H21      6.0760   4.2794  11.3882   H         2 RES2   0.0000
    60 C28      7.0744   2.3611   9.1330   C.ar      2 RES2   0.0000
    61 H22      7.1197   1.4566   8.9215   H         2 RES2   0.0000
    62 N11      6.5268   2.7013  10.3112   N.ar      2 RES2   0.0000
    63 O1       8.4153   3.6754   6.0404   O.co2     2 RES2  -1.0000
    64 O2       8.2641   1.5493   6.7112   O.co2     2 RES2   0.0000
    65 C29      4.5528   1.1911  -1.3308   C.2       3 RES3   0.0000
    66 C30      4.0719   0.6829  -2.6754   C.ar      3 RES3   0.0000
    67 C31      2.7195   0.5621  -2.9786   C.ar      3 RES3   0.0000
    68 H23      2.0734   0.8332  -2.3672   H         3 RES3   0.0000
    69 C32      2.3503   0.0343  -4.1986   C.ar      3 RES3   0.0000
    70 H24      1.4518  -0.0548  -4.4221   H         3 RES3   0.0000
    71 C33      3.3314  -0.3598  -5.0799   C.ar      3 RES3   0.0000
    72 H25      3.0718  -0.7392  -5.8881   H         3 RES3   0.0000
    73 C34      4.9809   0.2970  -3.6469   C.ar      3 RES3   0.0000
    74 H26      5.8859   0.4064  -3.4631   H         3 RES3   0.0000
    75 N12      4.6424  -0.2244  -4.8333   N.ar      3 RES3   0.0000
    76 O3       5.7634   1.4457  -1.1829   O.co2     3 RES3   0.0000
    77 O4       3.6612   1.3078  -0.4369   O.co2     3 RES3  -1.0000
    78 O5       7.4018   0.2480  11.7722   O.3       4 RES4   0.0000
    79 H27      6.7845  -0.2774  11.9121   H         4 RES4   0.0000
    80 H28      7.0613   0.9382  11.4809   H         4 RES4   0.0000
    81 O6       6.4641   7.6592   7.0244   O.3       5 RES5   0.0000
    82 H29      7.0410   8.2320   6.9424   H         5 RES5   0.0000
    83 H30      5.7998   8.0117   7.3629   H         5 RES5   0.0000
    84 O7       6.4455   5.4817   5.3922   O.3       6 RES6   0.0000
    85 H31      6.4232   6.0944   5.9102   H         6 RES6   0.0000
    86 H32      7.0308   4.9522   5.6057   H         6 RES6   0.0000
    87 O8       9.4515   0.6037  13.6132   O.3       7 RES7   0.0000
    88 H33      8.7861   0.4569  13.1195   H         7 RES7   0.0000
    89 H34      9.9767   0.0082  13.4429   H         7 RES7   0.0000
@<TRIPOS>BOND
     1     1     4    1
     2     2     3    1
     3     4     2    1
     4     5     1    1
     5     6     1    1
     6     7     6    1
     7     8     7    1
     8     9    10    1
     9    11     1    1
    10    12     1    1
    11    13     1    1
    12    14    13    1
    13    15    14    1
    14    16     2    1
    15    17    16    1
    16    18    16    2
    17    19    18    1
    18    20     4    2
    19    21     5   ar
    20    22    21   ar
    21    23    22    1
    22    24    22   ar
    23    25    24    1
    24    26    24   ar
    25    27    26    1
    26    28     5   ar
    27    29     6    2
    28    30    29    1
    29    31    30    1
    30    32     7    1
    31    33    32    1
    32    34     9    1
    33    35    34    1
    34    36    34    2
    35    37    36    1
    36    38    11    2
    37    39    12   ar
    38    40    39   ar
    39    41    40    1
    40    42    40   ar
    41    43    42    1
    42    44    42   ar
    43    45    44    1
    44    46    12   ar
    45    47    13    2
    46    48    47    1
    47    49    48    1
    48    50    14    1
    49    51    50    1
    50     9    11    1
    51    18    20    1
    52    20    21    1
    53    26    28   ar
    54    28    29    1
    55    30    32    2
    56    36    38    1
    57    38    39    1
    58    44    46   ar
    59    46    47    1
    60    48    50    2
    61    52    53    1
    62    53    54   ar
    63    54    55    1
    64    56    54   ar
    65    57    56    1
    66    58    56   ar
    67    59    58    1
    68    60    53   ar
    69    61    60    1
    70    62    58   ar
    71    63    52    1
    72    64    52    2
    73    60    62   ar
    74    65    66    1
    75    66    67   ar
    76    67    68    1
    77    69    67   ar
    78    70    69    1
    79    71    69   ar
    80    72    71    1
    81    73    66   ar
    82    74    73    1
    83    75    71   ar
    84    76    65    2
    85    77    65    1
    86    73    75   ar
    87    78    79    1
    88    80    78    1
    89    81    82    1
    90    83    81    1
    91    84    85    1
    92    86    84    1
    93    87    88    1
    94    89    87    1
@<TRIPOS>SUBSTRUCTURE
     1 RES1        1 GROUP             0 ****  ****    0  
     2 RES2       52 GROUP             0 ****  ****    0  
     3 RES3       65 GROUP             0 ****  ****    0  
     4 RES4       78 GROUP             0 ****  ****    0  
     5 RES5       81 GROUP             0 ****  ****    0  
     6 RES6       84 GROUP             0 ****  ****    0  
     7 RES7       87 GROUP             0 ****  ****    0  
@<TRIPOS>CRYSIN
    8.1763    8.1585   26.9671   90.0000   92.0138   90.0000     7     1
