@<TRIPOS>MOLECULE
JOHROP
   115   120     1     0     0
SMALL
NO_CHARGES
****
Generated from the CSD

@<TRIPOS>ATOM
     1 Fe1     10.5606   3.3720   3.0271   Fe        1 RES1   0.0000
     2 P1       8.5421   2.6965   2.3398   P.3       1 RES1   0.0000
     3 P2       6.7788   4.1163   2.1893   P.3       1 RES1   0.0000
     4 P3       7.3845   5.4388   3.8375   P.3       1 RES1   0.0000
     5 P4       9.2596   4.4027   4.4796   P.3       1 RES1   0.0000
     6 P5       8.9143   2.2736   4.3897   P.3       1 RES1   0.0000
     7 C1       8.1432   1.1023   1.3946   C.3       1 RES1   0.0000
     8 C2       7.2322   0.1871   2.2140   C.3       1 RES1   0.0000
     9 H1       7.0005  -0.6039   1.6831   H         1 RES1   0.0000
    10 H2       6.4149   0.6703   2.4544   H         1 RES1   0.0000
    11 H3       7.6975  -0.0929   3.0295   H         1 RES1   0.0000
    12 C3       7.5016   1.4779   0.0590   C.3       1 RES1   0.0000
    13 H4       8.1170   2.0456  -0.4504   H         1 RES1   0.0000
    14 H5       6.6678   1.9660   0.2228   H         1 RES1   0.0000
    15 H6       7.3096   0.6636  -0.4516   H         1 RES1   0.0000
    16 C4       9.4401   0.3466   1.1249   C.3       1 RES1   0.0000
    17 H7       9.2390  -0.4961   0.6672   H         1 RES1   0.0000
    18 H8       9.8912   0.1576   1.9737   H         1 RES1   0.0000
    19 H9      10.0249   0.8926   0.5594   H         1 RES1   0.0000
    20 C5       5.1323   3.4716   2.9297   C.3       1 RES1   0.0000
    21 C6       4.2746   4.7395   3.1318   C.3       1 RES1   0.0000
    22 H10      3.3594   4.4811   3.3685   H         1 RES1   0.0000
    23 H11      4.2609   5.2609   2.3018   H         1 RES1   0.0000
    24 H12      4.6574   5.2808   3.8529   H         1 RES1   0.0000
    25 C7       5.2505   2.7385   4.2586   C.3       1 RES1   0.0000
    26 H13      4.3563   2.4886   4.5745   H         1 RES1   0.0000
    27 H14      5.6794   3.3231   4.9172   H         1 RES1   0.0000
    28 H15      5.7930   1.9312   4.1386   H         1 RES1   0.0000
    29 C8       4.4230   2.6230   1.8669   C.3       1 RES1   0.0000
    30 H16      4.9403   1.8067   1.7024   H         1 RES1   0.0000
    31 H17      4.3488   3.1356   1.0353   H         1 RES1   0.0000
    32 H18      3.5277   2.3841   2.1843   H         1 RES1   0.0000
    33 C9       7.8823   6.9794   2.8410   C.3       1 RES1   0.0000
    34 C10      8.8105   6.7046   1.6680   C.3       1 RES1   0.0000
    35 H19      9.0524   7.5504   1.2375   H         1 RES1   0.0000
    36 H20      8.3559   6.1269   1.0195   H         1 RES1   0.0000
    37 H21      9.6203   6.2580   1.9906   H         1 RES1   0.0000
    38 C11      6.5687   7.5664   2.3098   C.3       1 RES1   0.0000
    39 H22      6.7525   8.4082   1.8441   H         1 RES1   0.0000
    40 H23      5.9593   7.7329   3.0586   H         1 RES1   0.0000
    41 H24      6.1548   6.9316   1.6879   H         1 RES1   0.0000
    42 C12      8.5235   7.9893   3.7838   C.3       1 RES1   0.0000
    43 H25      9.3744   7.6334   4.1144   H         1 RES1   0.0000
    44 H26      7.9238   8.1560   4.5406   H         1 RES1   0.0000
    45 H27      8.6851   8.8279   3.3031   H         1 RES1   0.0000
    46 C13      9.4019   4.7418   6.3427   C.3       1 RES1   0.0000
    47 C14      9.5238   6.2346   6.6353   C.3       1 RES1   0.0000
    48 H28      8.7176   6.6960   6.3242   H         1 RES1   0.0000
    49 H29     10.3069   6.5965   6.1692   H         1 RES1   0.0000
    50 H30      9.6273   6.3708   7.6004   H         1 RES1   0.0000
    51 C15      8.1599   4.2180   7.0643   C.3       1 RES1   0.0000
    52 H31      8.2197   4.4347   8.0181   H         1 RES1   0.0000
    53 H32      8.1023   3.2468   6.9526   H         1 RES1   0.0000
    54 H33      7.3602   4.6371   6.6850   H         1 RES1   0.0000
    55 C16     10.6508   4.0086   6.8379   C.3       1 RES1   0.0000
    56 H34     11.4383   4.3468   6.3629   H         1 RES1   0.0000
    57 H35     10.5554   3.0477   6.6680   H         1 RES1   0.0000
    58 H36     10.7600   4.1609   7.8002   H         1 RES1   0.0000
    59 P1A     12.5790   2.6965   3.7143   P.3       1 RES1   0.0000
    60 P2A     14.3424   4.1163   3.8648   P.3       1 RES1   0.0000
    61 P3A     13.7366   5.4388   2.2167   P.3       1 RES1   0.0000
    62 P4A     11.8615   4.4027   1.5746   P.3       1 RES1   0.0000
    63 P5A     12.2068   2.2736   1.6644   P.3       1 RES1   0.0000
    64 C1A     12.9779   1.1023   4.6595   C.3       1 RES1   0.0000
    65 C2A     13.8889   0.1871   3.8401   C.3       1 RES1   0.0000
    66 H1A     14.1206  -0.6039   4.3711   H         1 RES1   0.0000
    67 H2A     14.7062   0.6703   3.5998   H         1 RES1   0.0000
    68 H3A     13.4236  -0.0929   3.0247   H         1 RES1   0.0000
    69 C3A     13.6195   1.4779   5.9952   C.3       1 RES1   0.0000
    70 H4A     13.0041   2.0456   6.5046   H         1 RES1   0.0000
    71 H5A     14.4534   1.9660   5.8314   H         1 RES1   0.0000
    72 H6A     13.8115   0.6636   6.5058   H         1 RES1   0.0000
    73 C4A     11.6810   0.3466   4.9293   C.3       1 RES1   0.0000
    74 H7A     11.8821  -0.4961   5.3870   H         1 RES1   0.0000
    75 H8A     11.2299   0.1576   4.0805   H         1 RES1   0.0000
    76 H9A     11.0962   0.8926   5.4947   H         1 RES1   0.0000
    77 C5A     15.9889   3.4716   3.1244   C.3       1 RES1   0.0000
    78 C6A     16.8466   4.7395   2.9223   C.3       1 RES1   0.0000
    79 H10A    17.7617   4.4811   2.6856   H         1 RES1   0.0000
    80 H11A    16.8602   5.2609   3.7524   H         1 RES1   0.0000
    81 H12A    16.4637   5.2808   2.2013   H         1 RES1   0.0000
    82 C7A     15.8706   2.7385   1.7955   C.3       1 RES1   0.0000
    83 H13A    16.7648   2.4886   1.4796   H         1 RES1   0.0000
    84 H14A    15.4417   3.3231   1.1370   H         1 RES1   0.0000
    85 H15A    15.3281   1.9312   1.9155   H         1 RES1   0.0000
    86 C8A     16.6982   2.6230   4.1873   C.3       1 RES1   0.0000
    87 H16A    16.1808   1.8067   4.3517   H         1 RES1   0.0000
    88 H17A    16.7723   3.1356   5.0189   H         1 RES1   0.0000
    89 H18A    17.5934   2.3841   3.8698   H         1 RES1   0.0000
    90 C9A     13.2388   6.9794   3.2132   C.3       1 RES1   0.0000
    91 C10A    12.3106   6.7046   4.3861   C.3       1 RES1   0.0000
    92 H19A    12.0687   7.5504   4.8167   H         1 RES1   0.0000
    93 H20A    12.7652   6.1269   5.0346   H         1 RES1   0.0000
    94 H21A    11.5008   6.2580   4.0635   H         1 RES1   0.0000
    95 C11A    14.5524   7.5664   3.7444   C.3       1 RES1   0.0000
    96 H22A    14.3686   8.4082   4.2101   H         1 RES1   0.0000
    97 H23A    15.1618   7.7329   2.9956   H         1 RES1   0.0000
    98 H24A    14.9663   6.9316   4.3663   H         1 RES1   0.0000
    99 C12A    12.5976   7.9893   2.2703   C.3       1 RES1   0.0000
   100 H25A    11.7467   7.6334   1.9397   H         1 RES1   0.0000
   101 H26A    13.1974   8.1560   1.5135   H         1 RES1   0.0000
   102 H27A    12.4360   8.8279   2.7510   H         1 RES1   0.0000
   103 C13A    11.7192   4.7418  -0.2885   C.3       1 RES1   0.0000
   104 C14A    11.5973   6.2346  -0.5812   C.3       1 RES1   0.0000
   105 H28A    12.4035   6.6960  -0.2700   H         1 RES1   0.0000
   106 H29A    10.8142   6.5965  -0.1150   H         1 RES1   0.0000
   107 H30A    11.4938   6.3708  -1.5462   H         1 RES1   0.0000
   108 C15A    12.9612   4.2180  -1.0102   C.3       1 RES1   0.0000
   109 H31A    12.9014   4.4347  -1.9640   H         1 RES1   0.0000
   110 H32A    13.0188   3.2468  -0.8984   H         1 RES1   0.0000
   111 H33A    13.7610   4.6371  -0.6308   H         1 RES1   0.0000
   112 C16A    10.4703   4.0086  -0.7838   C.3       1 RES1   0.0000
   113 H34A     9.6828   4.3468  -0.3088   H         1 RES1   0.0000
   114 H35A    10.5657   3.0477  -0.6139   H         1 RES1   0.0000
   115 H36A    10.3611   4.1609  -1.7460   H         1 RES1   0.0000
@<TRIPOS>BOND
     1     1     2    1
     2     2     3    1
     3     3     4    1
     4     4     5    1
     5     5     1    1
     6     6     1    1
     7     7     2    1
     8     8     7    1
     9     9     8    1
    10    10     8    1
    11    11     8    1
    12    12     7    1
    13    13    12    1
    14    14    12    1
    15    15    12    1
    16    16     7    1
    17    17    16    1
    18    18    16    1
    19    19    16    1
    20    20     3    1
    21    21    20    1
    22    22    21    1
    23    23    21    1
    24    24    21    1
    25    25    20    1
    26    26    25    1
    27    27    25    1
    28    28    25    1
    29    29    20    1
    30    30    29    1
    31    31    29    1
    32    32    29    1
    33    33     4    1
    34    34    33    1
    35    35    34    1
    36    36    34    1
    37    37    34    1
    38    38    33    1
    39    39    38    1
    40    40    38    1
    41    41    38    1
    42    42    33    1
    43    43    42    1
    44    44    42    1
    45    45    42    1
    46    46     5    1
    47    47    46    1
    48    48    47    1
    49    49    47    1
    50    50    47    1
    51    51    46    1
    52    52    51    1
    53    53    51    1
    54    54    51    1
    55    55    46    1
    56    56    55    1
    57    57    55    1
    58    58    55    1
    59    59     1    1
    60    60    59    1
    61    61    60    1
    62    62     1    1
    63    63     1    1
    64    64    59    1
    65    65    64    1
    66    66    65    1
    67    67    65    1
    68    68    65    1
    69    69    64    1
    70    70    69    1
    71    71    69    1
    72    72    69    1
    73    73    64    1
    74    74    73    1
    75    75    73    1
    76    76    73    1
    77    77    60    1
    78    78    77    1
    79    79    78    1
    80    80    78    1
    81    81    78    1
    82    82    77    1
    83    83    82    1
    84    84    82    1
    85    85    82    1
    86    86    77    1
    87    87    86    1
    88    88    86    1
    89    89    86    1
    90    90    61    1
    91    91    90    1
    92    92    91    1
    93    93    91    1
    94    94    91    1
    95    95    90    1
    96    96    95    1
    97    97    95    1
    98    98    95    1
    99    99    90    1
   100   100    99    1
   101   101    99    1
   102   102    99    1
   103   103    62    1
   104   104   103    1
   105   105   104    1
   106   106   104    1
   107   107   104    1
   108   108   103    1
   109   109   108    1
   110   110   108    1
   111   111   108    1
   112   112   103    1
   113   113   112    1
   114   114   112    1
   115   115   112    1
   116     2     6    1
   117     5     6    1
   118    59    63    1
   119    61    62    1
   120    62    63    1
@<TRIPOS>SUBSTRUCTURE
     1 RES1        1 GROUP             0 ****  ****    0  
@<TRIPOS>CRYSIN
   22.0041   16.5907   12.2364   90.0000   98.2980   90.0000    15     1
