@<TRIPOS>MOLECULE
JOJQEE
   133   142     5     0     0
SMALL
USER_CHARGES
****
Generated from the CSD

@<TRIPOS>ATOM
     1 Fe1      3.4485   3.2790  10.1672   Fe        1 RES1   2.0000
     2 N1       4.7218   3.2835   8.2839   N.ar      1 RES1   0.0000
     3 C1       4.7139   4.2401   7.3171   C.ar      1 RES1   0.0000
     4 C2       5.5918   4.1823   6.2359   C.ar      1 RES1   0.0000
     5 C3       6.4620   3.1531   6.1299   C.ar      1 RES1   0.0000
     6 C4       6.4517   2.1871   7.1399   C.ar      1 RES1   0.0000
     7 C5       5.5896   2.2661   8.1946   C.ar      1 RES1   0.0000
     8 N2       4.4924   1.4665  10.1365   N.ar      1 RES1   0.0000
     9 C6       5.5017   1.2691   9.2939   C.ar      1 RES1   0.0000
    10 C7       6.3715   0.2022   9.4180   C.ar      1 RES1   0.0000
    11 C8       6.1644  -0.6446  10.5132   C.ar      1 RES1   0.0000
    12 C9       5.1487  -0.4638  11.3627   C.ar      1 RES1   0.0000
    13 C10      4.3023   0.5814  11.1549   C.ar      1 RES1   0.0000
    14 N3       2.5303   2.0728  11.8371   N.ar      1 RES1   0.0000
    15 C11      3.0851   0.8567  11.9487   C.ar      1 RES1   0.0000
    16 C12      2.5469  -0.1295  12.7620   C.ar      1 RES1   0.0000
    17 C13      1.3557   0.0964  13.4079   C.ar      1 RES1   0.0000
    18 C14      0.7767   1.3325  13.2656   C.ar      1 RES1   0.0000
    19 C15      1.3877   2.3255  12.5025   C.ar      1 RES1   0.0000
    20 C16      0.7068  -0.9333  14.2910   C.ar      1 RES1   0.0000
    21 C17      1.4762  -1.8080  15.0220   C.ar      1 RES1   0.0000
    22 C18      0.8667  -2.7263  15.9051   C.ar      1 RES1   0.0000
    23 C19     -0.4890  -2.8231  15.9734   C.ar      1 RES1   0.0000
    24 C20     -1.2817  -1.9527  15.2424   C.ar      1 RES1   0.0000
    25 C21     -0.6689  -1.0481  14.4026   C.ar      1 RES1   0.0000
    26 C22      0.8080   3.6920  12.4286   C.ar      1 RES1   0.0000
    27 C23     -0.5563   3.8384  12.3435   C.ar      1 RES1   0.0000
    28 C24     -1.1135   5.1387  12.3504   C.ar      1 RES1   0.0000
    29 C25     -0.2848   6.2119  12.4969   C.ar      1 RES1   0.0000
    30 C26      1.0545   6.0697  12.6281   C.ar      1 RES1   0.0000
    31 C27      1.6215   4.7942  12.5974   C.ar      1 RES1   0.0000
    32 N4       5.2073   4.2086  11.2553   N.ar      1 RES1   0.0000
    33 C28      6.1702   3.5726  11.9403   C.ar      1 RES1   0.0000
    34 C29      7.3011   4.1998  12.3797   C.ar      1 RES1   0.0000
    35 C30      7.4894   5.4860  12.0882   C.ar      1 RES1   0.0000
    36 C31      6.5501   6.1692  11.3669   C.ar      1 RES1   0.0000
    37 C32      5.3796   5.5082  10.9707   C.ar      1 RES1   0.0000
    38 N5       3.2446   5.3677   9.9468   N.ar      1 RES1   0.0000
    39 C33      4.3059   6.1743  10.2551   C.ar      1 RES1   0.0000
    40 C34      4.2524   7.4992   9.8965   C.ar      1 RES1   0.0000
    41 C35      3.1637   7.9805   9.2562   C.ar      1 RES1   0.0000
    42 C36      2.0815   7.1401   8.9549   C.ar      1 RES1   0.0000
    43 C37      2.1520   5.8307   9.3539   C.ar      1 RES1   0.0000
    44 N6       1.4424   3.5419   9.2227   N.ar      1 RES1   0.0000
    45 C38      1.0406   4.8771   9.1390   C.ar      1 RES1   0.0000
    46 C39     -0.2336   5.2478   8.9200   C.ar      1 RES1   0.0000
    47 C40     -1.2501   4.3350   8.8265   C.ar      1 RES1   0.0000
    48 C41     -0.8457   2.9830   8.9116   C.ar      1 RES1   0.0000
    49 C42      0.4453   2.6608   9.0944   C.ar      1 RES1   0.0000
    50 C43     -2.6550   4.6981   8.6368   C.ar      1 RES1   0.0000
    51 C44     -3.0176   5.7543   7.7872   C.ar      1 RES1   0.0000
    52 C45     -4.3411   6.0320   7.5933   C.ar      1 RES1   0.0000
    53 C46     -5.3434   5.3359   8.2420   C.ar      1 RES1   0.0000
    54 C47     -4.9883   4.2851   9.0902   C.ar      1 RES1   0.0000
    55 C48     -3.6496   4.0246   9.2688   C.ar      1 RES1   0.0000
    56 C49      0.8613   1.1937   9.0679   C.ar      1 RES1   0.0000
    57 C50      0.0197   0.2530   9.7152   C.ar      1 RES1   0.0000
    58 C51      0.3714  -1.1055   9.6217   C.ar      1 RES1   0.0000
    59 C52      1.4954  -1.4883   8.9507   C.ar      1 RES1   0.0000
    60 C53      2.3565  -0.5605   8.3703   C.ar      1 RES1   0.0000
    61 C54      1.9855   0.7658   8.4094   C.ar      1 RES1   0.0000
    62 H1       4.0917   4.9688   7.3799   H         1 RES1   0.0000
    63 H2       5.5768   4.8712   5.5663   H         1 RES1   0.0000
    64 H3       7.0675   3.0892   5.3877   H         1 RES1   0.0000
    65 H4       7.0643   1.4505   7.0897   H         1 RES1   0.0000
    66 H5       7.0779   0.0491   8.7875   H         1 RES1   0.0000
    67 H6       6.7685  -1.3772  10.6582   H         1 RES1   0.0000
    68 H7       5.0206  -1.0583  12.1049   H         1 RES1   0.0000
    69 H8       3.0040  -0.9674  12.8722   H         1 RES1   0.0000
    70 H9      -0.0608   1.5165  13.6981   H         1 RES1   0.0000
    71 H10      2.4313  -1.7956  14.9327   H         1 RES1   0.0000
    72 H11      1.4088  -3.2887  16.4589   H         1 RES1   0.0000
    73 H12     -0.8873  -3.4899  16.5370   H         1 RES1   0.0000
    74 H13     -2.2367  -1.9772  15.3191   H         1 RES1   0.0000
    75 H14     -1.2210  -0.4718  13.8683   H         1 RES1   0.0000
    76 H15     -1.1236   3.0679  12.2793   H         1 RES1   0.0000
    77 H16     -2.0616   5.2631  12.2528   H         1 RES1   0.0000
    78 H17     -0.6622   7.0931  12.5067   H         1 RES1   0.0000
    79 H18      1.6121   6.8433  12.7397   H         1 RES1   0.0000
    80 H19      2.5709   4.6852  12.6936   H         1 RES1   0.0000
    81 H20      6.0590   2.6385  12.1314   H         1 RES1   0.0000
    82 H21      7.9536   3.7173  12.8917   H         1 RES1   0.0000
    83 H22      8.2845   5.9343  12.3867   H         1 RES1   0.0000
    84 H23      6.6920   7.0899  11.1326   H         1 RES1   0.0000
    85 H24      4.9871   8.0816  10.1016   H         1 RES1   0.0000
    86 H25      3.1318   8.9066   9.0051   H         1 RES1   0.0000
    87 H26      1.3134   7.4713   8.4847   H         1 RES1   0.0000
    88 H27     -0.4385   6.1818   8.8265   H         1 RES1   0.0000
    89 H28     -1.5016   2.2851   8.8363   H         1 RES1   0.0000
    90 H29     -2.3423   6.2754   7.3478   H         1 RES1   0.0000
    91 H30     -4.5791   6.7350   6.9851   H         1 RES1   0.0000
    92 H31     -6.2651   5.5700   8.1123   H         1 RES1   0.0000
    93 H32     -5.6575   3.7616   9.5366   H         1 RES1   0.0000
    94 H33     -3.4030   3.3240   9.8756   H         1 RES1   0.0000
    95 H34     -0.7601   0.5326  10.1993   H         1 RES1   0.0000
    96 H35     -0.1851  -1.7701  10.0333   H         1 RES1   0.0000
    97 H36      1.7066  -2.4236   8.8795   H         1 RES1   0.0000
    98 H37      3.1795  -0.8337   7.9560   H         1 RES1   0.0000
    99 H38      2.5331   1.4124   7.9588   H         1 RES1   0.0000
   100 P1      -4.2850   0.7989  12.2249   P.3       2 RES2  -1.0000
   101 F1      -3.9723   2.1599  12.8848   F         2 RES2   0.0000
   102 F2      -4.6192  -0.5347  11.5246   F         2 RES2   0.0000
   103 F3      -5.0100   1.5741  11.0726   F         2 RES2   0.0000
   104 F4      -3.6046   0.0261  13.3758   F         2 RES2   0.0000
   105 F5      -5.6577   0.7658  12.9001   F         2 RES2   0.0000
   106 F6      -2.9376   0.8838  11.4785   F         2 RES2   0.0000
   107 P2      -3.5033  -4.5901   7.5849   P.3       3 RES3  -1.0000
   108 F7      -3.6058  -3.6965   6.3182   F         3 RES3   0.0000
   109 F8      -3.4567  -5.4937   8.8670   F         3 RES3   0.0000
   110 F9      -2.0645  -4.1041   7.8807   F         3 RES3   0.0000
   111 F10     -4.9759  -5.0839   7.3492   F         3 RES3   0.0000
   112 F11     -2.8977  -5.7434   6.7465   F         3 RES3   0.0000
   113 F12     -4.1350  -3.4402   8.4317   F         3 RES3   0.0000
   114 C55     -2.8703  -4.0501  12.7885   C.2       4 RES4   0.0000
   115 O1      -2.1791  -4.8660  13.3605   O.2       4 RES4   0.0000
   116 C56     -2.4782  -3.2906  11.5999   C.3       4 RES4   0.0000
   117 C57     -4.1982  -3.7628  13.2949   C.3       4 RES4   0.0000
   118 H39     -3.2005  -2.7111  11.3404   H         4 RES4   0.0000
   119 H40     -1.7005  -2.7684  11.7938   H         4 RES4   0.0000
   120 H41     -2.2881  -3.9008  10.8814   H         4 RES4   0.0000
   121 H42     -4.6230  -3.1036  12.7452   H         4 RES4   0.0000
   122 H43     -4.1377  -3.4370  14.1989   H         4 RES4   0.0000
   123 H44     -4.7264  -4.5700  13.2893   H         4 RES4   0.0000
   124 C58     -7.0116  -4.8935  10.6024   C.2       5 RES5   0.0000
   125 O2      -7.0319  -3.8841  11.2874   O.2       5 RES5   0.0000
   126 C59     -6.3139  -6.1447  10.8814   C.3       5 RES5   0.0000
   127 C60     -7.7799  -4.8086   9.3608   C.3       5 RES5   0.0000
   128 H45     -6.4670  -6.7614  10.1756   H         5 RES5   0.0000
   129 H46     -6.6358  -6.5045  11.7129   H         5 RES5   0.0000
   130 H47     -5.3691  -5.9652  10.9624   H         5 RES5   0.0000
   131 H48     -7.7131  -5.6357   8.8907   H         5 RES5   0.0000
   132 H49     -8.7039  -4.6341   9.5785   H         5 RES5   0.0000
   133 H50     -7.4402  -4.0931   8.8237   H         5 RES5   0.0000
@<TRIPOS>BOND
     1     1     2    1
     2     2     3   ar
     3     3     4   ar
     4     4     5   ar
     5     5     6   ar
     6     6     7   ar
     7     7     2   ar
     8     8     1    1
     9     9     7    1
    10    10     9   ar
    11    11    10   ar
    12    12    11   ar
    13    13     8   ar
    14    14     1    1
    15    15    13    1
    16    16    15   ar
    17    17    16   ar
    18    18    17   ar
    19    19    14   ar
    20    20    17    1
    21    21    20   ar
    22    22    21   ar
    23    23    22   ar
    24    24    23   ar
    25    25    20   ar
    26    26    19    1
    27    27    26   ar
    28    28    27   ar
    29    29    28   ar
    30    30    29   ar
    31    31    26   ar
    32    32     1    1
    33    33    32   ar
    34    34    33   ar
    35    35    34   ar
    36    36    35   ar
    37    37    32   ar
    38    38     1    1
    39    39    37    1
    40    40    39   ar
    41    41    40   ar
    42    42    41   ar
    43    43    38   ar
    44    44     1    1
    45    45    43    1
    46    46    45   ar
    47    47    46   ar
    48    48    47   ar
    49    49    44   ar
    50    50    47    1
    51    51    50   ar
    52    52    51   ar
    53    53    52   ar
    54    54    53   ar
    55    55    50   ar
    56    56    49    1
    57    57    56   ar
    58    58    57   ar
    59    59    58   ar
    60    60    59   ar
    61    61    56   ar
    62    62     3    1
    63    63     4    1
    64    64     5    1
    65    65     6    1
    66    66    10    1
    67    67    11    1
    68    68    12    1
    69    69    16    1
    70    70    18    1
    71    71    21    1
    72    72    22    1
    73    73    23    1
    74    74    24    1
    75    75    25    1
    76    76    27    1
    77    77    28    1
    78    78    29    1
    79    79    30    1
    80    80    31    1
    81    81    33    1
    82    82    34    1
    83    83    35    1
    84    84    36    1
    85    85    40    1
    86    86    41    1
    87    87    42    1
    88    88    46    1
    89    89    48    1
    90    90    51    1
    91    91    52    1
    92    92    53    1
    93    93    54    1
    94    94    55    1
    95    95    57    1
    96    96    58    1
    97    97    59    1
    98    98    60    1
    99    99    61    1
   100     8     9   ar
   101    12    13   ar
   102    14    15   ar
   103    18    19   ar
   104    24    25   ar
   105    30    31   ar
   106    36    37   ar
   107    38    39   ar
   108    42    43   ar
   109    44    45   ar
   110    48    49   ar
   111    54    55   ar
   112    60    61   ar
   113   100   101    1
   114   102   100    1
   115   103   100    1
   116   104   100    1
   117   105   100    1
   118   106   100    1
   119   107   108    1
   120   109   107    1
   121   110   107    1
   122   111   107    1
   123   112   107    1
   124   113   107    1
   125   114   115    2
   126   116   114    1
   127   117   114    1
   128   118   116    1
   129   119   116    1
   130   120   116    1
   131   121   117    1
   132   122   117    1
   133   123   117    1
   134   124   125    2
   135   126   124    1
   136   127   124    1
   137   128   126    1
   138   129   126    1
   139   130   126    1
   140   131   127    1
   141   132   127    1
   142   133   127    1
@<TRIPOS>SUBSTRUCTURE
     1 RES1        1 GROUP             0 ****  ****    0  
     2 RES2      100 GROUP             0 ****  ****    0  
     3 RES3      107 GROUP             0 ****  ****    0  
     4 RES4      114 GROUP             0 ****  ****    0  
     5 RES5      124 GROUP             0 ****  ****    0  
@<TRIPOS>CRYSIN
   14.0290   14.5420   14.7210   73.0370   79.5070   79.1810     2     1
