@<TRIPOS>MOLECULE
JOKSOV
   106   114     3     0     0
SMALL
USER_CHARGES
****
Generated from the CSD

@<TRIPOS>ATOM
     1 C1       9.7583  11.9893  12.2842   C.ar      1 RES1   0.0000
     2 H1       9.2897  12.3821  11.5568   H         1 RES1   0.0000
     3 C2       9.2909  12.2095  13.5498   C.ar      1 RES1   0.0000
     4 H2       8.5250  12.7523  13.6965   H         1 RES1   0.0000
     5 C3       9.9519  11.6266  14.6100   C.ar      1 RES1   0.0000
     6 H3       9.6449  11.7575  15.4992   H         1 RES1   0.0000
     7 C4      11.0627  10.8521  14.3607   C.ar      1 RES1   0.0000
     8 H4      11.5186  10.4244  15.0763   H         1 RES1   0.0000
     9 C5      11.5111  10.7037  13.0512   C.ar      1 RES1   0.0000
    10 C6      12.8126  10.0100  12.7444   C.3       1 RES1   0.0000
    11 H5      13.5612  10.6419  12.8902   H         1 RES1   0.0000
    12 H6      12.9316   9.2495  13.3674   H         1 RES1   0.0000
    13 C7      14.2673   9.2615  10.9733   C.3       1 RES1   0.0000
    14 H7      14.3018   8.9016  10.0630   H         1 RES1   0.0000
    15 H8      14.6633   8.6158  11.5955   H         1 RES1   0.0000
    16 H9      14.7701  10.1021  11.0119   H         1 RES1   0.0000
    17 C8      12.0393   8.2838  11.2363   C.3       1 RES1   0.0000
    18 H10     11.2066   8.3969  11.7597   H         1 RES1   0.0000
    19 H11     12.5389   7.5194  11.6187   H         1 RES1   0.0000
    20 C9      11.6882   7.9830   9.7925   C.3       1 RES1   0.0000
    21 H12     12.5138   7.7749   9.2869   H         1 RES1   0.0000
    22 H13     11.0952   7.1916   9.7534   H         1 RES1   0.0000
    23 C10      9.5637   9.1960   9.4747   C.3       1 RES1   0.0000
    24 H14      9.4142   9.0377  10.4409   H         1 RES1   0.0000
    25 H15      9.0901   8.4895   8.9678   H         1 RES1   0.0000
    26 C11      9.0228  10.5657   9.0844   C.ar      1 RES1   0.0000
    27 C12      7.7082  10.7708   8.7118   C.ar      1 RES1   0.0000
    28 H16      7.1008  10.0412   8.6613   H         1 RES1   0.0000
    29 C13      7.2899  12.0559   8.4132   C.ar      1 RES1   0.0000
    30 H17      6.3860  12.2231   8.1718   H         1 RES1   0.0000
    31 C14      8.2059  13.0978   8.4680   C.ar      1 RES1   0.0000
    32 H18      7.9413  13.9868   8.2620   H         1 RES1   0.0000
    33 C15      9.5026  12.8207   8.8282   C.ar      1 RES1   0.0000
    34 H19     10.1327  13.5316   8.8533   H         1 RES1   0.0000
    35 C16     11.1965   9.1475   7.7023   C.3       1 RES1   0.0000
    36 H20     10.4110   9.5758   7.2792   H         1 RES1   0.0000
    37 H21     11.2372   8.2108   7.3842   H         1 RES1   0.0000
    38 C17     12.4404   9.8666   7.2584   C.ar      1 RES1   0.0000
    39 C18     12.9630   9.6425   6.0024   C.ar      1 RES1   0.0000
    40 H22     12.5745   8.9943   5.4266   H         1 RES1   0.0000
    41 C19     14.0699  10.3827   5.5887   C.ar      1 RES1   0.0000
    42 H23     14.4460  10.2438   4.7268   H         1 RES1   0.0000
    43 C20     14.6060  11.3051   6.4325   C.ar      1 RES1   0.0000
    44 H24     15.3681  11.8114   6.1770   H         1 RES1   0.0000
    45 C21     14.0135  11.4938   7.6831   C.ar      1 RES1   0.0000
    46 N1      10.8494  11.2474  12.0129   N.ar      1 RES1   0.0000
    47 N2      12.8603   9.5118  11.3527   N.3       1 RES1   0.0000
    48 N3      11.0072   9.1462   9.1761   N.3       1 RES1   0.0000
    49 N4       9.9138  11.5749   9.1460   N.ar      1 RES1   0.0000
    50 N5      12.9461  10.8008   8.1022   N.ar      1 RES1   0.0000
    51 O1      14.5224  12.4631   8.4776   O.3       1 RES1   0.0000
    52 H25     14.0199  12.5735   9.1414   H         1 RES1   0.0000
    53 O2      12.9895  12.5620  10.4276   O.3       1 RES1   0.0000
    54 H26     12.5814  13.1972   9.9309   H         1 RES1   0.0000
    55 Fe1     11.8430  11.0243  10.0503   Fe        1 RES1   1.0000
    56 C22     10.7136   6.7746   4.6572   C.ar      2 RES2   0.0000
    57 C23      9.8203   6.3209   5.6476   C.ar      2 RES2   0.0000
    58 H27      8.8960   6.5103   5.5382   H         2 RES2   0.0000
    59 C24     10.2177   5.6140   6.7749   C.ar      2 RES2   0.0000
    60 H28      9.5738   5.3196   7.4083   H         2 RES2   0.0000
    61 C25     11.5619   5.3400   6.9653   C.ar      2 RES2   0.0000
    62 H29     11.8511   4.8637   7.7345   H         2 RES2   0.0000
    63 C26     12.4780   5.7703   6.0215   C.ar      2 RES2   0.0000
    64 H30     13.4026   5.5892   6.1453   H         2 RES2   0.0000
    65 C27     12.0568   6.4681   4.8928   C.ar      2 RES2   0.0000
    66 H31     12.7065   6.7457   4.2579   H         2 RES2   0.0000
    67 C28      9.7122   6.3071   2.2286   C.ar      2 RES2   0.0000
    68 C29      9.8925   4.9367   2.4752   C.ar      2 RES2   0.0000
    69 H32     10.3035   4.6688   3.2886   H         2 RES2   0.0000
    70 C30      9.4917   3.9552   1.5739   C.ar      2 RES2   0.0000
    71 H33      9.6273   3.0378   1.7790   H         2 RES2   0.0000
    72 C31      8.8943   4.3175   0.3712   C.ar      2 RES2   0.0000
    73 H34      8.5893   3.6533  -0.2347   H         2 RES2   0.0000
    74 C32      8.7495   5.6641   0.0699   C.ar      2 RES2   0.0000
    75 H35      8.3727   5.9243  -0.7620   H         2 RES2   0.0000
    76 C33      9.1548   6.6313   0.9808   C.ar      2 RES2   0.0000
    77 H36      9.0507   7.5473   0.7504   H         2 RES2   0.0000
    78 C34      8.8700   8.4466   3.6806   C.ar      2 RES2   0.0000
    79 C35      7.5714   8.2964   3.1642   C.ar      2 RES2   0.0000
    80 H37      7.4054   7.5849   2.5570   H         2 RES2   0.0000
    81 C36      6.5205   9.1407   3.4984   C.ar      2 RES2   0.0000
    82 H38      5.6643   9.0058   3.1086   H         2 RES2   0.0000
    83 C37      6.7098  10.1693   4.3901   C.ar      2 RES2   0.0000
    84 H39      5.9977  10.7604   4.6049   H         2 RES2   0.0000
    85 C38      7.9584  10.3289   4.9696   C.ar      2 RES2   0.0000
    86 H40      8.1009  11.0177   5.6076   H         2 RES2   0.0000
    87 C39      8.9990   9.4846   4.6203   C.ar      2 RES2   0.0000
    88 H41      9.8435   9.6133   5.0369   H         2 RES2   0.0000
    89 C40     11.3683   8.3618   2.5546   C.ar      2 RES2   0.0000
    90 C41     12.3108   7.7182   1.7245   C.ar      2 RES2   0.0000
    91 H42     12.2103   6.7858   1.5674   H         2 RES2   0.0000
    92 C42     13.3754   8.3764   1.1246   C.ar      2 RES2   0.0000
    93 H43     13.9902   7.8933   0.5849   H         2 RES2   0.0000
    94 C43     13.5393   9.7330   1.3136   C.ar      2 RES2   0.0000
    95 H44     14.2658  10.1929   0.9093   H         2 RES2   0.0000
    96 C44     12.6336  10.4091   2.0999   C.ar      2 RES2   0.0000
    97 H45     12.7302  11.3455   2.2261   H         2 RES2   0.0000
    98 C45     11.5843   9.7444   2.7080   C.ar      2 RES2   0.0000
    99 H46     10.9844  10.2410   3.2531   H         2 RES2   0.0000
   100 B1      10.1580   7.4882   3.2806   B         2 RES2  -1.0000
   101 C46     16.2523  12.8789  11.6335   C.3       3 RES3   0.0000
   102 H47     16.2062  13.7911  11.2771   H         3 RES3   0.0000
   103 H48     16.4806  12.2576  10.9109   H         3 RES3   0.0000
   104 H49     16.9403  12.8358  12.3305   H         3 RES3   0.0000
   105 O3      15.0855  12.5475  12.1458   O.3       3 RES3   0.0000
   106 H50     14.5103  12.5158  11.5351   H         3 RES3   0.0000
@<TRIPOS>BOND
     1     1     2    1
     2     3     1   ar
     3     4     3    1
     4     5     3   ar
     5     6     5    1
     6     7     5   ar
     7     8     7    1
     8     9     7   ar
     9    10     9    1
    10    11    10    1
    11    12    10    1
    12    13    14    1
    13    15    13    1
    14    16    13    1
    15    17    18    1
    16    19    17    1
    17    20    17    1
    18    21    20    1
    19    22    20    1
    20    23    24    1
    21    25    23    1
    22    26    23    1
    23    27    26   ar
    24    28    27    1
    25    29    27   ar
    26    30    29    1
    27    31    29   ar
    28    32    31    1
    29    33    31   ar
    30    34    33    1
    31    35    36    1
    32    37    35    1
    33    38    35    1
    34    39    38   ar
    35    40    39    1
    36    41    39   ar
    37    42    41    1
    38    43    41   ar
    39    44    43    1
    40    45    43   ar
    41    46     1   ar
    42    47    10    1
    43    48    20    1
    44    49    26   ar
    45    50    38   ar
    46    51    45    1
    47    52    51    1
    48    53    54    1
    49    55    46    1
    50     9    46   ar
    51    13    47    1
    52    17    47    1
    53    23    48    1
    54    33    49   ar
    55    35    48    1
    56    45    50   ar
    57    47    55    1
    58    48    55    1
    59    49    55    1
    60    50    55    1
    61    53    55    1
    62    56    57   ar
    63    57    58    1
    64    59    57   ar
    65    60    59    1
    66    61    59   ar
    67    62    61    1
    68    63    61   ar
    69    64    63    1
    70    65    56   ar
    71    66    65    1
    72    67    68   ar
    73    68    69    1
    74    70    68   ar
    75    71    70    1
    76    72    70   ar
    77    73    72    1
    78    74    72   ar
    79    75    74    1
    80    76    67   ar
    81    77    76    1
    82    78    79   ar
    83    79    80    1
    84    81    79   ar
    85    82    81    1
    86    83    81   ar
    87    84    83    1
    88    85    83   ar
    89    86    85    1
    90    87    78   ar
    91    88    87    1
    92    89    90   ar
    93    90    91    1
    94    92    90   ar
    95    93    92    1
    96    94    92   ar
    97    95    94    1
    98    96    94   ar
    99    97    96    1
   100    98    89   ar
   101    99    98    1
   102   100    56    1
   103    63    65   ar
   104    67   100    1
   105    74    76   ar
   106    78   100    1
   107    85    87   ar
   108    89   100    1
   109    96    98   ar
   110   101   102    1
   111   103   101    1
   112   104   101    1
   113   105   101    1
   114   106   105    1
@<TRIPOS>SUBSTRUCTURE
     1 RES1        1 GROUP             0 ****  ****    0  
     2 RES2       56 GROUP             0 ****  ****    0  
     3 RES3      101 GROUP             0 ****  ****    0  
@<TRIPOS>CRYSIN
   11.1440   13.4940   13.8710   87.5550   80.9390   75.8820     2     1
