@<TRIPOS>MOLECULE
JOSRUE
    98   112     1     0     0
SMALL
NO_CHARGES
****
Generated from the CSD

@<TRIPOS>ATOM
     1 Fe1      0.4642   4.0417  17.0009   Fe        1 RES1   0.0000
     2 P1       1.1377   2.1578  14.5917   P.3       1 RES1   0.0000
     3 P2       1.0979   2.8598  19.8170   P.3       1 RES1   0.0000
     4 P3       1.0833   7.0844  16.5240   P.3       1 RES1   0.0000
     5 O1       1.6429   3.0121  15.7347   O.2       1 RES1   0.0000
     6 O2      -0.7112   2.4545  17.1907   O.2       1 RES1   0.0000
     7 O3       1.6137   3.4671  18.5311   O.2       1 RES1   0.0000
     8 O4      -0.7304   4.9950  18.2839   O.2       1 RES1   0.0000
     9 O5       1.5918   5.6661  16.7167   O.2       1 RES1   0.0000
    10 O6      -0.7109   4.6465  15.5442   O.2       1 RES1   0.0000
    11 N1      -1.9163   0.6179  16.4287   N.pl3     1 RES1   0.0000
    12 N2      -1.9066  -0.2923  15.3787   N.2       1 RES1   0.0000
    13 N3      -1.9396   5.2320  20.2501   N.pl3     1 RES1   0.0000
    14 N4      -1.9677   4.7670  21.5406   N.2       1 RES1   0.0000
    15 N5      -1.9223   6.1485  14.2742   N.pl3     1 RES1   0.0000
    16 N6      -1.9706   7.4907  13.9703   N.2       1 RES1   0.0000
    17 C1      -0.2395   1.2535  15.1111   C.3       1 RES1   0.0000
    18 C2      -0.9192   1.5543  16.3017   C.2       1 RES1   0.0000
    19 C3      -0.9131   0.0903  14.6076   C.2       1 RES1   0.0000
    20 C4      -0.6108  -0.6844  13.3670   C.3       1 RES1   0.0000
    21 C5      -0.2875   3.7434  20.3613   C.3       1 RES1   0.0000
    22 C6      -0.9352   4.6655  19.5040   C.2       1 RES1   0.0000
    23 C7      -1.0057   3.9001  21.5882   C.2       1 RES1   0.0000
    24 C8      -0.7136   3.1554  22.8582   C.3       1 RES1   0.0000
    25 C9      -0.3291   7.0636  15.4898   C.3       1 RES1   0.0000
    26 C10     -0.9347   5.8551  15.1496   C.2       1 RES1   0.0000
    27 C11     -1.0136   8.0145  14.6892   C.2       1 RES1   0.0000
    28 C12     -0.7713   9.4830  14.6212   C.3       1 RES1   0.0000
    29 C13      2.4394   1.0551  14.0882   C.ar      1 RES1   0.0000
    30 C14      2.6098   0.6478  12.7796   C.ar      1 RES1   0.0000
    31 C15      3.6249  -0.2410  12.4236   C.ar      1 RES1   0.0000
    32 C16      4.4922  -0.6408  13.3738   C.ar      1 RES1   0.0000
    33 C17      4.3786  -0.2647  14.7006   C.ar      1 RES1   0.0000
    34 C18      3.3642   0.5925  15.0566   C.ar      1 RES1   0.0000
    35 C19      0.7873   3.1608  13.1470   C.ar      1 RES1   0.0000
    36 C20     -0.3654   3.0013  12.4009   C.ar      1 RES1   0.0000
    37 C21     -0.5911   3.8013  11.2579   C.ar      1 RES1   0.0000
    38 C22      0.3579   4.6937  10.9200   C.ar      1 RES1   0.0000
    39 C23      1.4908   4.9053  11.6366   C.ar      1 RES1   0.0000
    40 C24      1.7184   4.1041  12.7887   C.ar      1 RES1   0.0000
    41 C25     -2.8867   0.4780  17.4606   C.ar      1 RES1   0.0000
    42 C26     -3.3955  -0.7812  17.7033   C.ar      1 RES1   0.0000
    43 C27     -4.3737  -0.9122  18.7216   C.ar      1 RES1   0.0000
    44 C28     -4.7386   0.1213  19.4382   C.ar      1 RES1   0.0000
    45 C29     -4.2350   1.3402  19.2205   C.ar      1 RES1   0.0000
    46 C30     -3.3032   1.5657  18.1863   C.ar      1 RES1   0.0000
    47 C31      2.4272   2.9425  21.0348   C.ar      1 RES1   0.0000
    48 C32      2.6399   1.9103  21.9148   C.ar      1 RES1   0.0000
    49 C33      3.7466   1.9871  22.7970   C.ar      1 RES1   0.0000
    50 C34      4.5845   3.0543  22.7494   C.ar      1 RES1   0.0000
    51 C35      4.3703   4.0826  21.8717   C.ar      1 RES1   0.0000
    52 C36      3.2564   4.0323  20.9985   C.ar      1 RES1   0.0000
    53 C37      0.7314   1.1147  19.5743   C.ar      1 RES1   0.0000
    54 C38      1.6256   0.4049  18.8418   C.ar      1 RES1   0.0000
    55 C39      1.4005  -0.9714  18.6014   C.ar      1 RES1   0.0000
    56 C40      0.2600  -1.5469  19.0980   C.ar      1 RES1   0.0000
    57 C41     -0.6201  -0.8479  19.8170   C.ar      1 RES1   0.0000
    58 C42     -0.4007   0.5062  20.0687   C.ar      1 RES1   0.0000
    59 C43     -2.8462   6.2657  19.8714   C.ar      1 RES1   0.0000
    60 C44     -3.2308   6.4145  18.5741   C.ar      1 RES1   0.0000
    61 C45     -4.1207   7.4812  18.2612   C.ar      1 RES1   0.0000
    62 C46     -4.5992   8.3057  19.2454   C.ar      1 RES1   0.0000
    63 C47     -4.1788   8.1329  20.5223   C.ar      1 RES1   0.0000
    64 C48     -3.2931   7.1073  20.8534   C.ar      1 RES1   0.0000
    65 C49      0.7309   7.8260  18.1251   C.ar      1 RES1   0.0000
    66 C50      1.6503   7.5484  19.1252   C.ar      1 RES1   0.0000
    67 C51      1.3829   8.0219  20.4429   C.ar      1 RES1   0.0000
    68 C52      0.2435   8.7201  20.6946   C.ar      1 RES1   0.0000
    69 C53     -0.6014   8.9946  19.7376   C.ar      1 RES1   0.0000
    70 C54     -0.3970   8.5567  18.4177   C.ar      1 RES1   0.0000
    71 C55      2.4238   8.0225  15.7982   C.ar      1 RES1   0.0000
    72 C56      2.5444   9.4085  15.9388   C.ar      1 RES1   0.0000
    73 C57      3.6265  10.0665  15.3583   C.ar      1 RES1   0.0000
    74 C58      4.5374   9.3761  14.6711   C.ar      1 RES1   0.0000
    75 C59      4.4178   8.0533  14.4692   C.ar      1 RES1   0.0000
    76 C60      3.3682   7.3431  15.0702   C.ar      1 RES1   0.0000
    77 C61     -2.8299   5.2596  13.6687   C.ar      1 RES1   0.0000
    78 C62     -3.2636   5.5245  12.3828   C.ar      1 RES1   0.0000
    79 C63     -4.1772   4.6565  11.7682   C.ar      1 RES1   0.0000
    80 C64     -4.5741   3.5456  12.4168   C.ar      1 RES1   0.0000
    81 C65     -4.1605   3.2519  13.6505   C.ar      1 RES1   0.0000
    82 C66     -3.2707   4.1423  14.3241   C.ar      1 RES1   0.0000
    83 H1      -3.0088   6.9922  21.7515   H         1 RES1   0.0000
    84 H2       2.4442   7.0544  18.9370   H         1 RES1   0.0000
    85 H3       1.9992   7.8445  21.1414   H         1 RES1   0.0000
    86 H4       0.0716   9.0143  21.5814   H         1 RES1   0.0000
    87 H5      -1.3801   9.4982  19.9440   H         1 RES1   0.0000
    88 H6      -1.0246   8.7648  17.7396   H         1 RES1   0.0000
    89 H7       1.8938   9.8970  16.4264   H         1 RES1   0.0000
    90 H8       3.7088  11.0076  15.4535   H         1 RES1   0.0000
    91 H9       5.2905   9.8374  14.3173   H         1 RES1   0.0000
    92 H10      5.0538   7.5990  13.9204   H         1 RES1   0.0000
    93 H11      3.3088   6.3991  14.9659   H         1 RES1   0.0000
    94 H12     -2.9436   6.2877  11.9201   H         1 RES1   0.0000
    95 H13     -4.5112   4.8527  10.9018   H         1 RES1   0.0000
    96 H14     -5.1765   2.9488  11.9791   H         1 RES1   0.0000
    97 H15     -4.4539   2.4549  14.0724   H         1 RES1   0.0000
    98 H16     -2.9898   3.9584  15.2108   H         1 RES1   0.0000
@<TRIPOS>BOND
     1     1     5    1
     2     2     5    2
     3     3     7    2
     4     4     9    2
     5     6     1    1
     6     7     1    1
     7     8     1    1
     8     9     1    1
     9    10     1    1
    10    11    12    1
    11    12    19    2
    12    13    14    1
    13    14    23    2
    14    15    16    1
    15    16    27    2
    16    17     2    1
    17    18     6   un
    18    19    17    1
    19    20    19    1
    20    21     3    1
    21    22     8   un
    22    23    21    1
    23    24    23    1
    24    25     4    1
    25    26    10   un
    26    27    25    1
    27    28    27    1
    28    29     2    1
    29    30    29   ar
    30    31    30   ar
    31    32    31   ar
    32    33    32   ar
    33    34    29   ar
    34    35     2    1
    35    36    35   ar
    36    37    36   ar
    37    38    37   ar
    38    39    38   ar
    39    40    35   ar
    40    41    11    1
    41    42    41   ar
    42    43    42   ar
    43    44    43   ar
    44    45    44   ar
    45    46    41   ar
    46    47     3    1
    47    48    47   ar
    48    49    48   ar
    49    50    49   ar
    50    51    50   ar
    51    52    47   ar
    52    53     3    1
    53    54    53   ar
    54    55    54   ar
    55    56    55   ar
    56    57    56   ar
    57    58    53   ar
    58    59    13    1
    59    60    59   ar
    60    61    60   ar
    61    62    61   ar
    62    63    62   ar
    63    64    59   ar
    64    65     4    1
    65    66    65   ar
    66    67    66   ar
    67    68    67   ar
    68    69    68   ar
    69    70    65   ar
    70    71     4    1
    71    72    71   ar
    72    73    72   ar
    73    74    73   ar
    74    75    74   ar
    75    76    71   ar
    76    77    15    1
    77    78    77   ar
    78    79    78   ar
    79    80    79   ar
    80    81    80   ar
    81    82    77   ar
    82    83    64    1
    83    84    66    1
    84    85    67    1
    85    86    68    1
    86    87    69    1
    87    88    70    1
    88    89    72    1
    89    90    73    1
    90    91    74    1
    91    92    75    1
    92    93    76    1
    93    94    78    1
    94    95    79    1
    95    96    80    1
    96    97    81    1
    97    98    82    1
    98    11    18    1
    99    13    22    1
   100    15    26    1
   101    17    18   un
   102    21    22   un
   103    25    26   un
   104    33    34   ar
   105    39    40   ar
   106    45    46   ar
   107    51    52   ar
   108    57    58   ar
   109    63    64   ar
   110    69    70   ar
   111    75    76   ar
   112    81    82   ar
@<TRIPOS>SUBSTRUCTURE
     1 RES1        1 GROUP             0 ****  ****    0  
@<TRIPOS>CRYSIN
    9.8020   13.2880   22.6860   88.6900   89.2900   82.4000     2     1
