@<TRIPOS>MOLECULE
JOTPUF
   122   128     1     0     0
SMALL
NO_CHARGES
****
Generated from the CSD

@<TRIPOS>ATOM
     1 Fe1      4.6228   3.8033   3.6336   Fe        1 RES1   0.0000
     2 H1       5.6834   3.2052   2.7026   H         1 RES1   0.0000
     3 H2       3.5192   4.3582   4.4400   H         1 RES1   0.0000
     4 H3       3.7581   2.5975   3.4904   H         1 RES1   0.0000
     5 N1       4.7116   2.1805   6.2013   N.pl3     1 RES1   0.0000
     6 N2       6.6896   2.7343   5.6227   N.pl3     1 RES1   0.0000
     7 N3       6.0330   6.0885   5.0088   N.pl3     1 RES1   0.0000
     8 N4       6.6600   5.8984   2.9636   N.pl3     1 RES1   0.0000
     9 N5       1.3544   1.9579   1.5632   N.pl3     1 RES1   0.0000
    10 N6       1.8621   3.2924  -0.0255   N.pl3     1 RES1   0.0000
    11 Si1      3.2108   5.3344   2.8133   Si        1 RES1   0.0000
    12 Si2      4.2537   2.7821   1.7549   Si        1 RES1   0.0000
    13 H4       3.3083   5.7685   1.3519   H         1 RES1   0.0000
    14 H5       4.7904   3.3366   0.5175   H         1 RES1   0.0000
    15 C1       5.3883   2.8431   5.1988   C.3       1 RES1   0.0000
    16 C2       5.7911   5.3310   3.8771   C.3       1 RES1   0.0000
    17 C3       2.3918   2.6550   1.0457   C.2       1 RES1   0.0000
    18 C4       5.5612   1.7165   7.2084   C.2       1 RES1   0.0000
    19 C5       6.8036   2.0607   6.8383   C.2       1 RES1   0.0000
    20 C6       5.0484   1.0685   8.4562   C.3       1 RES1   0.0000
    21 H6       5.7814   0.9744   9.0999   H         1 RES1   0.0000
    22 H7       4.6873   0.1830   8.2396   H         1 RES1   0.0000
    23 H8       4.3410   1.6234   8.8451   H         1 RES1   0.0000
    24 C7       8.0963   1.9008   7.5754   C.3       1 RES1   0.0000
    25 H9       7.9189   1.5470   8.4725   H         1 RES1   0.0000
    26 H10      8.5404   2.7720   7.6497   H         1 RES1   0.0000
    27 H11      8.6758   1.2792   7.0882   H         1 RES1   0.0000
    28 C8       3.3143   1.7950   6.1249   C.3       1 RES1   0.0000
    29 H12      2.8392   2.4007   5.5034   H         1 RES1   0.0000
    30 H13      2.8981   1.8848   7.0184   H         1 RES1   0.0000
    31 C9       3.1714   0.3563   5.6410   C.3       1 RES1   0.0000
    32 H14      3.6501   0.2484   4.7932   H         1 RES1   0.0000
    33 H15      2.2222   0.1489   5.5099   H         1 RES1   0.0000
    34 H16      3.5490  -0.2517   6.3094   H         1 RES1   0.0000
    35 C10      7.8506   3.1789   4.8584   C.3       1 RES1   0.0000
    36 H17      8.5096   3.5869   5.4737   H         1 RES1   0.0000
    37 H18      7.5687   3.8736   4.2110   H         1 RES1   0.0000
    38 C11      8.5035   2.0398   4.1135   C.3       1 RES1   0.0000
    39 H19      8.8264   1.3724   4.7544   H         1 RES1   0.0000
    40 H20      9.2586   2.3813   3.5900   H         1 RES1   0.0000
    41 H21      7.8498   1.6256   3.5124   H         1 RES1   0.0000
    42 C12      6.9869   7.0802   4.7809   C.2       1 RES1   0.0000
    43 C13      7.3806   6.9558   3.5089   C.2       1 RES1   0.0000
    44 C14      7.3441   8.1175   5.7888   C.3       1 RES1   0.0000
    45 H22      7.7779   7.6913   6.5565   H         1 RES1   0.0000
    46 H23      6.5316   8.5774   6.0856   H         1 RES1   0.0000
    47 H24      7.9585   8.7671   5.3857   H         1 RES1   0.0000
    48 C15      8.3370   7.7894   2.7201   C.3       1 RES1   0.0000
    49 H25      8.5874   8.5801   3.2420   H         1 RES1   0.0000
    50 H26      7.9111   8.0711   1.8836   H         1 RES1   0.0000
    51 H27      9.1384   7.2631   2.5176   H         1 RES1   0.0000
    52 C16      5.2329   6.0327   6.2341   C.3       1 RES1   0.0000
    53 H28      4.4587   5.4367   6.0778   H         1 RES1   0.0000
    54 H29      4.8799   6.9389   6.4220   H         1 RES1   0.0000
    55 C17      5.9785   5.5430   7.4590   C.3       1 RES1   0.0000
    56 H30      6.2605   4.6148   7.3198   H         1 RES1   0.0000
    57 H31      5.3893   5.5914   8.2409   H         1 RES1   0.0000
    58 H32      6.7665   6.1059   7.6083   H         1 RES1   0.0000
    59 C18      6.7139   5.5363   1.5628   C.3       1 RES1   0.0000
    60 H33      6.7327   6.3634   1.0181   H         1 RES1   0.0000
    61 H34      5.8901   5.0398   1.3286   H         1 RES1   0.0000
    62 C19      7.9199   4.6845   1.2065   C.3       1 RES1   0.0000
    63 H35      8.7403   5.1577   1.4606   H         1 RES1   0.0000
    64 H36      7.9271   4.5154   0.2419   H         1 RES1   0.0000
    65 H37      7.8723   3.8324   1.6883   H         1 RES1   0.0000
    66 C20      0.1866   2.1702   0.8438   C.2       1 RES1   0.0000
    67 C21      0.5088   3.0143  -0.1543   C.2       1 RES1   0.0000
    68 C22     -1.1364   1.6052   1.2314   C.3       1 RES1   0.0000
    69 H38     -1.8352   1.9846   0.6572   H         1 RES1   0.0000
    70 H39     -1.3258   1.8278   2.1670   H         1 RES1   0.0000
    71 H40     -1.1203   0.6310   1.1242   H         1 RES1   0.0000
    72 C23     -0.3593   3.6543  -1.1874   C.3       1 RES1   0.0000
    73 H41     -1.2692   3.2996  -1.1139   H         1 RES1   0.0000
    74 H42     -0.0031   3.4600  -2.0790   H         1 RES1   0.0000
    75 H43     -0.3744   4.6235  -1.0466   H         1 RES1   0.0000
    76 C24      1.4253   1.0788   2.7274   C.3       1 RES1   0.0000
    77 H44      0.6435   1.2512   3.3106   H         1 RES1   0.0000
    78 H45      2.2419   1.2936   3.2446   H         1 RES1   0.0000
    79 C25      1.4486  -0.3871   2.3531   C.3       1 RES1   0.0000
    80 H46      0.6409  -0.6069   1.8435   H         1 RES1   0.0000
    81 H47      1.4786  -0.9323   3.1670   H         1 RES1   0.0000
    82 H48      2.2403  -0.5727   1.8060   H         1 RES1   0.0000
    83 C26      2.5987   4.0986  -1.0048   C.3       1 RES1   0.0000
    84 H49      3.3879   4.5076  -0.5679   H         1 RES1   0.0000
    85 H50      2.0173   4.8305  -1.3325   H         1 RES1   0.0000
    86 C27      3.0517   3.2574  -2.1724   C.3       1 RES1   0.0000
    87 H51      3.7514   2.6380  -1.8772   H         1 RES1   0.0000
    88 H52      3.4066   3.8396  -2.8759   H         1 RES1   0.0000
    89 H53      2.2910   2.7479  -2.5227   H         1 RES1   0.0000
    90 C28      3.3477   7.0956   3.5506   C.ar      1 RES1   0.0000
    91 C29      2.6174   7.5008   4.6702   C.ar      1 RES1   0.0000
    92 H54      1.9859   6.9005   5.0480   H         1 RES1   0.0000
    93 C30      2.7831   8.7508   5.2499   C.ar      1 RES1   0.0000
    94 H55      2.2693   8.9985   6.0093   H         1 RES1   0.0000
    95 C31      3.7039   9.6357   4.7125   C.ar      1 RES1   0.0000
    96 H56      3.8381  10.4856   5.1140   H         1 RES1   0.0000
    97 C32      4.4239   9.2802   3.5948   C.ar      1 RES1   0.0000
    98 H57      5.0477   9.8889   3.2175   H         1 RES1   0.0000
    99 C33      4.2377   8.0329   3.0212   C.ar      1 RES1   0.0000
   100 H58      4.7321   7.8074   2.2420   H         1 RES1   0.0000
   101 C34      1.3162   5.0352   2.9300   C.ar      1 RES1   0.0000
   102 C35      0.7255   4.3440   3.9859   C.ar      1 RES1   0.0000
   103 H59      1.2838   3.9389   4.6392   H         1 RES1   0.0000
   104 C36     -0.6511   4.2264   4.1164   C.ar      1 RES1   0.0000
   105 H60     -1.0186   3.7517   4.8527   H         1 RES1   0.0000
   106 C37     -1.4883   4.8007   3.1755   C.ar      1 RES1   0.0000
   107 H61     -2.4310   4.7310   3.2653   H         1 RES1   0.0000
   108 C38     -0.9375   5.4747   2.1089   C.ar      1 RES1   0.0000
   109 H62     -1.5026   5.8615   1.4502   H         1 RES1   0.0000
   110 C39      0.4383   5.5913   1.9917   C.ar      1 RES1   0.0000
   111 H63      0.7970   6.0636   1.2497   H         1 RES1   0.0000
   112 C40      4.6947   0.9389   1.5305   C.ar      1 RES1   0.0000
   113 C41      5.2963   0.2010   2.5460   C.ar      1 RES1   0.0000
   114 H64      5.4768   0.6205   3.3792   H         1 RES1   0.0000
   115 C42      5.6397  -1.1350   2.3702   C.ar      1 RES1   0.0000
   116 H65      6.0364  -1.6210   3.0842   H         1 RES1   0.0000
   117 C43      5.4059  -1.7556   1.1646   C.ar      1 RES1   0.0000
   118 H66      5.6481  -2.6664   1.0427   H         1 RES1   0.0000
   119 C44      4.8204  -1.0520   0.1357   C.ar      1 RES1   0.0000
   120 H67      4.6585  -1.4754  -0.6999   H         1 RES1   0.0000
   121 C45      4.4698   0.2725   0.3227   C.ar      1 RES1   0.0000
   122 H68      4.0623   0.7455  -0.3933   H         1 RES1   0.0000
@<TRIPOS>BOND
     1     1     2    1
     2     2    12    1
     3     3     1    1
     4     4     1    1
     5     5    15    1
     6     6    15    1
     7     7    16    1
     8     8    16    1
     9     9    17    1
    10    10    17    1
    11    11     1    1
    12    12     4    1
    13    13    11    1
    14    14    12    1
    15    15     1    1
    16    16     1    1
    17    17    12    2
    18    18     5    1
    19    19     6    1
    20    20    18    1
    21    21    20    1
    22    22    20    1
    23    23    20    1
    24    24    19    1
    25    25    24    1
    26    26    24    1
    27    27    24    1
    28    28     5    1
    29    29    28    1
    30    30    28    1
    31    31    28    1
    32    32    31    1
    33    33    31    1
    34    34    31    1
    35    35     6    1
    36    36    35    1
    37    37    35    1
    38    38    35    1
    39    39    38    1
    40    40    38    1
    41    41    38    1
    42    42     7    1
    43    43     8    1
    44    44    42    1
    45    45    44    1
    46    46    44    1
    47    47    44    1
    48    48    43    1
    49    49    48    1
    50    50    48    1
    51    51    48    1
    52    52     7    1
    53    53    52    1
    54    54    52    1
    55    55    52    1
    56    56    55    1
    57    57    55    1
    58    58    55    1
    59    59     8    1
    60    60    59    1
    61    61    59    1
    62    62    59    1
    63    63    62    1
    64    64    62    1
    65    65    62    1
    66    66     9    1
    67    67    10    1
    68    68    66    1
    69    69    68    1
    70    70    68    1
    71    71    68    1
    72    72    67    1
    73    73    72    1
    74    74    72    1
    75    75    72    1
    76    76     9    1
    77    77    76    1
    78    78    76    1
    79    79    76    1
    80    80    79    1
    81    81    79    1
    82    82    79    1
    83    83    10    1
    84    84    83    1
    85    85    83    1
    86    86    83    1
    87    87    86    1
    88    88    86    1
    89    89    86    1
    90    90    11    1
    91    91    90   ar
    92    92    91    1
    93    93    91   ar
    94    94    93    1
    95    95    93   ar
    96    96    95    1
    97    97    95   ar
    98    98    97    1
    99    99    90   ar
   100   100    99    1
   101   101    11    1
   102   102   101   ar
   103   103   102    1
   104   104   102   ar
   105   105   104    1
   106   106   104   ar
   107   107   106    1
   108   108   106   ar
   109   109   108    1
   110   110   101   ar
   111   111   110    1
   112   112    12    1
   113   113   112   ar
   114   114   113    1
   115   115   113   ar
   116   116   115    1
   117   117   115   ar
   118   118   117    1
   119   119   117   ar
   120   120   119    1
   121   121   112   ar
   122   122   121    1
   123    18    19    2
   124    42    43    2
   125    66    67    2
   126    97    99   ar
   127   108   110   ar
   128   119   121   ar
@<TRIPOS>SUBSTRUCTURE
     1 RES1        1 GROUP             0 ****  ****    0  
@<TRIPOS>CRYSIN
   12.7545   13.2481   13.3335   86.4700   76.1400   83.4730     2     1
