@<TRIPOS>MOLECULE
JUKMAF
    80    87     3     0     0
SMALL
USER_CHARGES
****
Generated from the CSD

@<TRIPOS>ATOM
     1 Fe1      6.8463   8.7221   2.8911   Fe        1 RES1   2.0000
     2 O1       5.3672   7.8254   3.3681   O.3       1 RES1   0.0000
     3 H1       5.8720   7.6883   4.0661   H         1 RES1   0.0000
     4 N1       6.0430  10.4612   1.9246   N.ar      1 RES1   0.0000
     5 N2       8.6315  11.4682   5.4955   N.pl3     1 RES1   0.0000
     6 N3       8.6778   9.9114   2.1325   N.3       1 RES1   0.0000
     7 N4       7.3220   9.9478   4.5075   N.2       1 RES1   0.0000
     8 N5      10.5988   7.0741   3.5529   N.pl3     1 RES1   0.0000
     9 N6       8.4212   7.5117   3.4105   N.2       1 RES1   0.0000
    10 N7       7.1194   8.1115   0.8366   N.ar      1 RES1   0.0000
    11 C1       6.9897   9.9849   5.8599   C.ar      1 RES1   0.0000
    12 C2       6.0578   9.2524   6.5797   C.ar      1 RES1   0.0000
    13 H2       5.5065   8.6056   6.1563   H         1 RES1   0.0000
    14 C3       5.9616   9.5039   7.9449   C.ar      1 RES1   0.0000
    15 H3       5.3301   9.0258   8.4710   H         1 RES1   0.0000
    16 C4       6.8019  10.4701   8.5531   C.ar      1 RES1   0.0000
    17 H4       6.7210  10.6199   9.4885   H         1 RES1   0.0000
    18 C5       7.7234  11.1948   7.8564   C.ar      1 RES1   0.0000
    19 H5       8.2817  11.8360   8.2798   H         1 RES1   0.0000
    20 C6       7.8018  10.9425   6.4860   C.ar      1 RES1   0.0000
    21 C7       9.6596  12.5070   5.6880   C.3       1 RES1   0.0000
    22 H6       9.3291  13.1811   6.3180   H         1 RES1   0.0000
    23 H7       9.8590  12.9335   4.8283   H         1 RES1   0.0000
    24 H8      10.4750  12.0970   6.0472   H         1 RES1   0.0000
    25 C8       8.2997  10.8275   4.3510   C.2       1 RES1   0.0000
    26 C9       8.9244  11.0902   3.0281   C.3       1 RES1   0.0000
    27 H9       9.8982  11.2328   3.1372   H         1 RES1   0.0000
    28 H10      8.5336  11.9068   2.6265   H         1 RES1   0.0000
    29 C10      9.8663   9.0047   2.0696   C.3       1 RES1   0.0000
    30 H11     10.6856   9.5005   2.3198   H         1 RES1   0.0000
    31 H12      9.9800   8.6569   1.1497   H         1 RES1   0.0000
    32 C11      9.6405   7.8677   3.0268   C.2       1 RES1   0.0000
    33 C12     12.0377   7.1337   3.3283   C.3       1 RES1   0.0000
    34 H13     12.2423   7.8668   2.7112   H         1 RES1   0.0000
    35 H14     12.3445   6.2867   2.9434   H         1 RES1   0.0000
    36 H15     12.4950   7.2881   4.1816   H         1 RES1   0.0000
    37 C13      9.9467   6.1384   4.3587   C.ar      1 RES1   0.0000
    38 C14     10.4354   5.1076   5.1568   C.ar      1 RES1   0.0000
    39 H16     11.3645   4.9194   5.2235   H         1 RES1   0.0000
    40 C15      9.4886   4.3730   5.8471   C.ar      1 RES1   0.0000
    41 H17      9.7778   3.6628   6.4078   H         1 RES1   0.0000
    42 C16      8.1150   4.6410   5.7457   C.ar      1 RES1   0.0000
    43 H18      7.5003   4.1046   6.2333   H         1 RES1   0.0000
    44 C17      7.6353   5.6681   4.9527   C.ar      1 RES1   0.0000
    45 H19      6.7056   5.8522   4.8809   H         1 RES1   0.0000
    46 C18      8.5845   6.4169   4.2676   C.ar      1 RES1   0.0000
    47 C19      8.1480  10.2918   0.7891   C.3       1 RES1   0.0000
    48 H20      8.8094  10.8336   0.2694   H         1 RES1   0.0000
    49 C20      6.8583  11.0608   1.0329   C.ar      1 RES1   0.0000
    50 C21      6.5127  12.2331   0.3965   C.ar      1 RES1   0.0000
    51 H21      7.0906  12.6342  -0.2412   H         1 RES1   0.0000
    52 C22      5.2789  12.8113   0.7198   C.ar      1 RES1   0.0000
    53 H22      5.0166  13.6295   0.3144   H         1 RES1   0.0000
    54 C23      4.4511  12.1985   1.6205   C.ar      1 RES1   0.0000
    55 H23      3.6126  12.5852   1.8438   H         1 RES1   0.0000
    56 C24      4.8505  11.0082   2.2031   C.ar      1 RES1   0.0000
    57 H24      4.2675  10.5691   2.8113   H         1 RES1   0.0000
    58 C25      7.7858   9.0044   0.0667   C.ar      1 RES1   0.0000
    59 C26      8.0371   8.7625  -1.2638   C.ar      1 RES1   0.0000
    60 H25      8.5178   9.3944  -1.7861   H         1 RES1   0.0000
    61 C27      4.1476   7.2502   3.2013   C.3       1 RES1   0.0000
    62 H26      3.7486   7.5682   2.3647   H         1 RES1   0.0000
    63 H27      3.5669   7.4924   3.9519   H         1 RES1   0.0000
    64 H28      4.2473   6.2762   3.1667   H         1 RES1   0.0000
    65 C28      7.5763   7.5782  -1.8335   C.ar      1 RES1   0.0000
    66 H29      7.7403   7.3941  -2.7510   H         1 RES1   0.0000
    67 C29      6.8791   6.6717  -1.0573   C.ar      1 RES1   0.0000
    68 H30      6.5455   5.8662  -1.4345   H         1 RES1   0.0000
    69 C30      6.6747   6.9642   0.2900   C.ar      1 RES1   0.0000
    70 H31      6.2115   6.3390   0.8353   H         1 RES1   0.0000
    71 Cl1     13.0512  10.7685   3.8997   Cl        2 RES2   0.0000
    72 O2      11.7935  10.4117   4.4895   O.2       2 RES2   0.0000
    73 O3      12.9651  10.5053   2.4789   O.3       2 RES2  -1.0000
    74 O4      14.0843   9.9595   4.4806   O.2       2 RES2   0.0000
    75 O5      13.3453  12.1551   4.1136   O.2       2 RES2   0.0000
    76 Cl2     11.4839   7.7234  -1.2564   Cl        3 RES3   0.0000
    77 O6      11.2362   9.0979  -0.9033   O.3       3 RES3  -1.0000
    78 O7      12.8592   7.5149  -1.4833   O.2       3 RES3   0.0000
    79 O8      11.0081   6.9306  -0.1937   O.2       3 RES3   0.0000
    80 O9      10.7825   7.3537  -2.4122   O.2       3 RES3   0.0000
@<TRIPOS>BOND
     1     1     2    1
     2     2     3    1
     3     4     1    1
     4     5    20    1
     5     6     1    1
     6     7     1    1
     7     8    32    1
     8     9     1    1
     9    10     1    1
    10    11     7    1
    11    12    11   ar
    12    13    12    1
    13    14    12   ar
    14    15    14    1
    15    16    14   ar
    16    17    16    1
    17    18    16   ar
    18    19    18    1
    19    20    11   ar
    20    21     5    1
    21    22    21    1
    22    23    21    1
    23    24    21    1
    24    25     5    1
    25    26     6    1
    26    27    26    1
    27    28    26    1
    28    29     6    1
    29    30    29    1
    30    31    29    1
    31    32     9    2
    32    33     8    1
    33    34    33    1
    34    35    33    1
    35    36    33    1
    36    37     8    1
    37    38    37   ar
    38    39    38    1
    39    40    38   ar
    40    41    40    1
    41    42    40   ar
    42    43    42    1
    43    44    42   ar
    44    45    44    1
    45    46     9    1
    46    47     6    1
    47    48    47    1
    48    49     4   ar
    49    50    49   ar
    50    51    50    1
    51    52    50   ar
    52    53    52    1
    53    54    52   ar
    54    55    54    1
    55    56     4   ar
    56    57    56    1
    57    58    10   ar
    58    59    58   ar
    59    60    59    1
    60    61     2    1
    61    62    61    1
    62    63    61    1
    63    64    61    1
    64    65    59   ar
    65    66    65    1
    66    67    65   ar
    67    68    67    1
    68    69    10   ar
    69    70    69    1
    70     7    25    2
    71    18    20   ar
    72    25    26    1
    73    29    32    1
    74    37    46   ar
    75    44    46   ar
    76    47    49    1
    77    47    58    1
    78    54    56   ar
    79    67    69   ar
    80    71    72    2
    81    73    71    1
    82    74    71    2
    83    75    71    2
    84    76    77    1
    85    78    76    2
    86    79    76    2
    87    80    76    2
@<TRIPOS>SUBSTRUCTURE
     1 RES1        1 GROUP             0 ****  ****    0  
     2 RES2       71 GROUP             0 ****  ****    0  
     3 RES3       76 GROUP             0 ****  ****    0  
@<TRIPOS>CRYSIN
   11.6080   12.0920   13.5330   76.2220   73.4310   67.7120     2     1
