@<TRIPOS>MOLECULE
JUKSUF
    79    84     4     0     0
SMALL
USER_CHARGES
****
Generated from the CSD

@<TRIPOS>ATOM
     1 Fe1      7.8075  10.9024   8.8053   Fe        1 RES1   2.0000
     2 N1       8.0967   9.0322   8.2346   N.2       1 RES1   0.0000
     3 N2       9.3185   7.1949   8.4513   N.pl3     1 RES1   0.0000
     4 N3       9.4919  10.6404   9.8133   N.3       1 RES1   0.0000
     5 N4       6.9623  10.2371  10.4301   N.ar      1 RES1   0.0000
     6 N5       7.9007  12.6826   9.6133   N.ar      1 RES1   0.0000
     7 N6       9.0082  11.4199   7.3452   N.ar      1 RES1   0.0000
     8 N7       6.1598  11.2719   7.9150   N.1       1 RES1   0.0000
     9 C1       7.5834   8.0712   7.3753   C.ar      1 RES1   0.0000
    10 C2       6.5316   8.1180   6.4781   C.ar      1 RES1   0.0000
    11 H1       6.0100   8.9034   6.3642   H         1 RES1   0.0000
    12 C3       6.2761   6.9664   5.7541   C.ar      1 RES1   0.0000
    13 H2       5.5667   6.9709   5.1217   H         1 RES1   0.0000
    14 C4       7.0231   5.7970   5.9206   C.ar      1 RES1   0.0000
    15 H3       6.8002   5.0250   5.4145   H         1 RES1   0.0000
    16 C5       8.0778   5.7436   6.8055   C.ar      1 RES1   0.0000
    17 H4       8.5929   4.9540   6.9161   H         1 RES1   0.0000
    18 C6       8.3502   6.8960   7.5262   C.ar      1 RES1   0.0000
    19 C7      10.3573   6.2718   8.9519   C.3       1 RES1   0.0000
    20 H5       9.9571   5.6419   9.5865   H         1 RES1   0.0000
    21 H6      11.0602   6.7853   9.4010   H         1 RES1   0.0000
    22 H7      10.7447   5.7772   8.1999   H         1 RES1   0.0000
    23 C8       9.1267   8.4665   8.8267   C.2       1 RES1   0.0000
    24 C9       9.9687   9.2474   9.7764   C.3       1 RES1   0.0000
    25 H8       9.9121   8.8494  10.6803   H         1 RES1   0.0000
    26 H9      10.9148   9.2241   9.4848   H         1 RES1   0.0000
    27 C10      5.7946   9.6437  10.6066   C.ar      1 RES1   0.0000
    28 H10      5.1751   9.5715   9.8893   H         1 RES1   0.0000
    29 C11      5.4712   9.0991  11.9250   C.ar      1 RES1   0.0000
    30 H11      4.6427   8.6769  12.1172   H         1 RES1   0.0000
    31 C12      6.4856   9.2509  12.8870   C.ar      1 RES1   0.0000
    32 H12      6.3353   8.8811  13.7485   H         1 RES1   0.0000
    33 C13      7.6183   9.8616  12.6803   C.ar      1 RES1   0.0000
    34 H13      8.2605   9.9606  13.3731   H         1 RES1   0.0000
    35 C14      7.8351  10.3384  11.4658   C.ar      1 RES1   0.0000
    36 C15      9.0855  11.1322  11.1127   C.3       1 RES1   0.0000
    37 H14      9.8036  11.0870  11.8066   H         1 RES1   0.0000
    38 C16      8.6576  12.6736  10.6915   C.ar      1 RES1   0.0000
    39 C17      8.8884  13.7780  11.4848   C.ar      1 RES1   0.0000
    40 H15      9.3483  13.7150  12.3127   H         1 RES1   0.0000
    41 C18      8.3973  15.0140  10.9898   C.ar      1 RES1   0.0000
    42 H16      8.7387  15.8410  11.3116   H         1 RES1   0.0000
    43 C19      7.4639  14.9797  10.0803   C.ar      1 RES1   0.0000
    44 H17      6.9568  15.7578   9.8792   H         1 RES1   0.0000
    45 C20      7.2291  13.8107   9.4256   C.ar      1 RES1   0.0000
    46 H18      6.5298  13.8013   8.7820   H         1 RES1   0.0000
    47 C21     10.4784  11.5760   9.1463   C.3       1 RES1   0.0000
    48 H19     10.3696  12.4882   9.5128   H         1 RES1   0.0000
    49 H20     11.4013  11.2755   9.3373   H         1 RES1   0.0000
    50 C22     10.2616  11.6000   7.7161   C.ar      1 RES1   0.0000
    51 C23     11.3038  11.7953   6.6949   C.ar      1 RES1   0.0000
    52 H21     12.2202  11.9082   6.9184   H         1 RES1   0.0000
    53 C24     10.8567  11.8020   5.3921   C.ar      1 RES1   0.0000
    54 H22     11.5002  11.9442   4.7083   H         1 RES1   0.0000
    55 C25      9.6185  11.6274   5.0256   C.ar      1 RES1   0.0000
    56 H23      9.3571  11.6534   4.1117   H         1 RES1   0.0000
    57 C26      8.7171  11.4058   6.0256   C.ar      1 RES1   0.0000
    58 H24      7.8181  11.2285   5.7754   H         1 RES1   0.0000
    59 C27      5.1399  11.5872   7.5072   C.1       1 RES1   0.0000
    60 C28      3.8308  11.9733   7.0290   C.3       1 RES1   0.0000
    61 H25      3.8065  11.9054   6.0513   H         1 RES1   0.0000
    62 H26      3.6440  12.8967   7.2971   H         1 RES1   0.0000
    63 H27      3.1533  11.3777   7.4145   H         1 RES1   0.0000
    64 Cl1     13.8236   8.8211   8.9151   Cl        2 RES2   0.0000
    65 O1      12.7738   8.9368   7.9530   O.3       2 RES2  -1.0000
    66 O2      13.4995   7.9092   9.8479   O.2       2 RES2   0.0000
    67 O3      13.8420  10.1054   9.4982   O.2       2 RES2   0.0000
    68 O4      15.0595   8.5800   8.2692   O.2       2 RES2   0.0000
    69 Cl2     12.3537  15.2326   8.0211   Cl        3 RES3   0.0000
    70 O5      10.9611  15.2782   8.1552   O.2       3 RES3   0.0000
    71 O6      12.8395  14.0455   8.5195   O.2       3 RES3   0.0000
    72 O7      13.0134  16.3433   8.5798   O.2       3 RES3   0.0000
    73 O8      12.7068  15.1427   6.6536   O.3       3 RES3  -1.0000
    74 N8      13.5493  10.9846   3.7419   N.1       4 RES4   0.0000
    75 C29     13.9998  10.0656   4.2748   C.1       4 RES4   0.0000
    76 C30     14.6127   8.9113   4.8849   C.3       4 RES4   0.0000
    77 H28     14.1324   8.1025   4.6078   H         4 RES4   0.0000
    78 H29     14.5720   8.9963   5.8603   H         4 RES4   0.0000
    79 H30     15.5476   8.8491   4.6000   H         4 RES4   0.0000
@<TRIPOS>BOND
     1     1     2    1
     2     2     9    1
     3     3    18    1
     4     4     1    1
     5     5     1    1
     6     6     1    1
     7     7     1    1
     8     8     1    1
     9     9    10   ar
    10    10    11    1
    11    12    10   ar
    12    13    12    1
    13    14    12   ar
    14    15    14    1
    15    16    14   ar
    16    17    16    1
    17    18     9   ar
    18    19     3    1
    19    20    19    1
    20    21    19    1
    21    22    19    1
    22    23     2    2
    23    24     4    1
    24    25    24    1
    25    26    24    1
    26    27     5   ar
    27    28    27    1
    28    29    27   ar
    29    30    29    1
    30    31    29   ar
    31    32    31    1
    32    33    31   ar
    33    34    33    1
    34    35     5   ar
    35    36     4    1
    36    37    36    1
    37    38     6   ar
    38    39    38   ar
    39    40    39    1
    40    41    39   ar
    41    42    41    1
    42    43    41   ar
    43    44    43    1
    44    45     6   ar
    45    46    45    1
    46    47     4    1
    47    48    47    1
    48    49    47    1
    49    50     7   ar
    50    51    50   ar
    51    52    51    1
    52    53    51   ar
    53    54    53    1
    54    55    53   ar
    55    56    55    1
    56    57     7   ar
    57    58    57    1
    58    59     8    3
    59    60    59    1
    60    61    60    1
    61    62    60    1
    62    63    60    1
    63     3    23    1
    64    16    18   ar
    65    23    24    1
    66    33    35   ar
    67    35    36    1
    68    36    38    1
    69    43    45   ar
    70    47    50    1
    71    55    57   ar
    72    64    65    1
    73    66    64    2
    74    67    64    2
    75    68    64    2
    76    69    70    2
    77    71    69    2
    78    72    69    2
    79    73    69    1
    80    74    75    3
    81    75    76    1
    82    76    77    1
    83    78    76    1
    84    79    76    1
@<TRIPOS>SUBSTRUCTURE
     1 RES1        1 GROUP             0 ****  ****    0  
     2 RES2       64 GROUP             0 ****  ****    0  
     3 RES3       69 GROUP             0 ****  ****    0  
     4 RES4       74 GROUP             0 ****  ****    0  
@<TRIPOS>CRYSIN
   11.5569   12.4532   12.5679   82.3590   63.6530   87.3580     2     1
