@<TRIPOS>MOLECULE
JULFIH
   128   139     2     0     0
SMALL
USER_CHARGES
****
Generated from the CSD

@<TRIPOS>ATOM
     1 Fe1      3.6417  10.3925   3.5432   Fe        1 RES1   1.0000
     2 Na1      5.5100   7.5870   2.6771   Na        1 RES1   0.0000
     3 O1       3.5021   8.8329   2.4836   O.3       1 RES1   0.0000
     4 O2       5.3733  11.0459   2.8922   O.co2     1 RES1   0.0000
     5 O3       6.0453   8.6223   4.7264   O.co2     1 RES1   0.0000
     6 O4       6.5492   9.4973   1.7660   O.co2     1 RES1   0.0000
     7 O5       4.1407   9.6535   5.2836   O.co2     1 RES1   0.0000
     8 O6       9.5441   6.8401  -1.5983   O.2       1 RES1   0.0000
     9 O7      10.2762   5.5620   5.1948   O.2       1 RES1   0.0000
    10 N1       1.5400  10.1416   4.0227   N.ar      1 RES1   0.0000
    11 N2       2.6360  11.6086   1.9917   N.3       1 RES1   0.0000
    12 N3       3.4923  12.3861   4.4041   N.ar      1 RES1   0.0000
    13 N4       6.3683   6.0811   0.7635   N.ar      1 RES1   0.0000
    14 N5       3.8771   5.7474   2.3273   N.3       1 RES1   0.0000
    15 N6       6.2205   5.5517   4.1057   N.ar      1 RES1   0.0000
    16 N7       8.2162   7.3462   0.1739   N.am      1 RES1   0.0000
    17 H1       7.8432   7.9897   0.5715   H         1 RES1   0.0000
    18 N8       8.2271   6.4388   4.7329   N.am      1 RES1   0.0000
    19 H2       7.7428   7.1331   4.7227   H         1 RES1   0.0000
    20 C1      11.5816   7.9213   5.4865   C.3       1 RES1   0.0000
    21 H3      11.7153   7.4543   6.3370   H         1 RES1   0.0000
    22 H4      11.9313   8.8331   5.5572   H         1 RES1   0.0000
    23 H5      12.0546   7.4426   4.7744   H         1 RES1   0.0000
    24 C2       1.1043   9.3119   4.9980   C.ar      1 RES1   0.0000
    25 H6       1.7408   8.8067   5.4888   H         1 RES1   0.0000
    26 C3       6.4388  10.6060   2.3104   C.2       1 RES1   0.0000
    27 C4      -0.2338   9.1738   5.3049   C.ar      1 RES1   0.0000
    28 H7      -0.5149   8.5940   6.0026   H         1 RES1   0.0000
    29 C5       7.6019  11.5700   2.3431   C.3       1 RES1   0.0000
    30 H8       7.2752  12.4678   2.5643   H         1 RES1   0.0000
    31 H9       8.0370  11.5863   1.4653   H         1 RES1   0.0000
    32 H10      8.2463  11.2812   3.0218   H         1 RES1   0.0000
    33 C6      -1.1615   9.9015   4.5695   C.ar      1 RES1   0.0000
    34 H11     -2.0874   9.8423   4.7729   H         1 RES1   0.0000
    35 C7       5.1853   8.9311   5.5514   C.2       1 RES1   0.0000
    36 C8      -0.7215  10.7143   3.5371   C.ar      1 RES1   0.0000
    37 H12     -1.3430  11.1990   3.0081   H         1 RES1   0.0000
    38 C9       5.2763   8.4638   6.9787   C.3       1 RES1   0.0000
    39 H13      5.0512   9.2042   7.5804   H         1 RES1   0.0000
    40 H14      6.1892   8.1569   7.1639   H         1 RES1   0.0000
    41 H15      4.6480   7.7257   7.1213   H         1 RES1   0.0000
    42 C10      0.6411  10.8099   3.2852   C.ar      1 RES1   0.0000
    43 C11      1.1594  11.6944   2.1817   C.3       1 RES1   0.0000
    44 H16      0.7129  11.4440   1.3346   H         1 RES1   0.0000
    45 H17      0.9172  12.6321   2.3834   H         1 RES1   0.0000
    46 C12      3.6840  12.6895   5.6972   C.ar      1 RES1   0.0000
    47 H18      3.7916  11.9809   6.3218   H         1 RES1   0.0000
    48 C13      3.7320  13.9932   6.1573   C.ar      1 RES1   0.0000
    49 H19      3.8811  14.1781   7.0772   H         1 RES1   0.0000
    50 C14      3.5569  15.0208   5.2467   C.ar      1 RES1   0.0000
    51 H20      3.5806  15.9251   5.5359   H         1 RES1   0.0000
    52 C15      3.3485  14.7217   3.9098   C.ar      1 RES1   0.0000
    53 H21      3.2163  15.4146   3.2726   H         1 RES1   0.0000
    54 C16      3.3360  13.3878   3.5204   C.ar      1 RES1   0.0000
    55 C17      3.2357  12.9649   2.0815   C.3       1 RES1   0.0000
    56 H22      2.6757  13.6105   1.5823   H         1 RES1   0.0000
    57 H23      4.1383  12.9577   1.6720   H         1 RES1   0.0000
    58 C18      2.9938  11.0132   0.6709   C.3       1 RES1   0.0000
    59 H24      3.9803  11.0069   0.5837   H         1 RES1   0.0000
    60 H25      2.6331  11.5936  -0.0456   H         1 RES1   0.0000
    61 C19      2.4834   9.6142   0.4574   C.ar      1 RES1   0.0000
    62 C20      1.8234   9.2941  -0.7316   C.ar      1 RES1   0.0000
    63 H26      1.6149   9.9904  -1.3437   H         1 RES1   0.0000
    64 C21      1.4618   7.9919  -1.0459   C.ar      1 RES1   0.0000
    65 C22      0.8880   7.6404  -2.3960   C.3       1 RES1   0.0000
    66 H27      1.6089   7.3516  -2.9929   H         1 RES1   0.0000
    67 H28      0.4433   8.4268  -2.7771   H         1 RES1   0.0000
    68 H29      0.2374   6.9145  -2.2952   H         1 RES1   0.0000
    69 C23      1.6930   7.0052  -0.0818   C.ar      1 RES1   0.0000
    70 H30      1.4145   6.1151  -0.2599   H         1 RES1   0.0000
    71 C24      2.3191   7.2849   1.1292   C.ar      1 RES1   0.0000
    72 C25      2.7773   8.5930   1.3779   C.ar      1 RES1   0.0000
    73 C26      2.4838   6.2316   2.1954   C.3       1 RES1   0.0000
    74 H31      2.1896   6.6050   3.0644   H         1 RES1   0.0000
    75 H32      1.8953   5.4638   1.9821   H         1 RES1   0.0000
    76 C27      7.6303   6.0708   0.3187   C.ar      1 RES1   0.0000
    77 C28      8.3204   4.8959   0.0122   C.ar      1 RES1   0.0000
    78 H33      9.2296   4.9197  -0.2599   H         1 RES1   0.0000
    79 C29      7.6411   3.7005   0.1163   C.ar      1 RES1   0.0000
    80 H34      8.0829   2.8823  -0.0790   H         1 RES1   0.0000
    81 C30      6.3096   3.6950   0.5075   C.ar      1 RES1   0.0000
    82 H35      5.8192   2.8823   0.5533   H         1 RES1   0.0000
    83 C31      5.7117   4.9025   0.8310   C.ar      1 RES1   0.0000
    84 C32      4.2394   4.9692   1.1304   C.3       1 RES1   0.0000
    85 H36      3.7786   5.3641   0.3481   H         1 RES1   0.0000
    86 H37      3.8991   4.0454   1.2419   H         1 RES1   0.0000
    87 C33      7.4835   5.2836   4.4535   C.ar      1 RES1   0.0000
    88 C34      7.9906   3.9784   4.5347   C.ar      1 RES1   0.0000
    89 H38      8.8946   3.8152   4.7729   H         1 RES1   0.0000
    90 C35      7.1266   2.9401   4.2567   C.ar      1 RES1   0.0000
    91 H39      7.4368   2.0433   4.2941   H         1 RES1   0.0000
    92 C36      5.8061   3.2044   3.9224   C.ar      1 RES1   0.0000
    93 H40      5.2014   2.4950   3.7408   H         1 RES1   0.0000
    94 C37      5.3884   4.5233   3.8583   C.ar      1 RES1   0.0000
    95 C38      3.9687   4.9081   3.5354   C.3       1 RES1   0.0000
    96 H41      3.4328   4.0865   3.4018   H         1 RES1   0.0000
    97 H42      3.5832   5.4008   4.3032   H         1 RES1   0.0000
    98 C39      9.1053   7.6745  -0.8287   C.2       1 RES1   0.0000
    99 C40      9.5027   9.1489  -0.9225   C.3       1 RES1   0.0000
   100 C41      8.2855   9.9599  -1.4031   C.3       1 RES1   0.0000
   101 H43      7.9484   9.5782  -2.2405   H         1 RES1   0.0000
   102 H44      8.5518  10.8910  -1.5504   H         1 RES1   0.0000
   103 H45      7.5808   9.9259  -0.7235   H         1 RES1   0.0000
   104 C42      9.9752   9.6573   0.4451   C.3       1 RES1   0.0000
   105 H46      9.2433   9.5812   1.0929   H         1 RES1   0.0000
   106 H47     10.2464  10.5962   0.3694   H         1 RES1   0.0000
   107 H48     10.7379   9.1206   0.7479   H         1 RES1   0.0000
   108 C43     10.6397   9.2630  -1.9411   C.3       1 RES1   0.0000
   109 H49     11.3991   8.7172  -1.6462   H         1 RES1   0.0000
   110 H50     10.9193  10.1987  -2.0140   H         1 RES1   0.0000
   111 H51     10.3292   8.9460  -2.8151   H         1 RES1   0.0000
   112 C44      9.5618   6.5327   5.0434   C.2       1 RES1   0.0000
   113 C45     10.0904   7.9727   5.1614   C.3       1 RES1   0.0000
   114 C46      9.8959   8.6940   3.8209   C.3       1 RES1   0.0000
   115 H52     10.3735   8.2082   3.1161   H         1 RES1   0.0000
   116 H53     10.2477   9.6061   3.8867   H         1 RES1   0.0000
   117 H54      8.9402   8.7275   3.6040   H         1 RES1   0.0000
   118 C47      9.3426   8.7291   6.2677   C.3       1 RES1   0.0000
   119 H55      8.3936   8.8023   6.0299   H         1 RES1   0.0000
   120 H56      9.7236   9.6266   6.3659   H         1 RES1   0.0000
   121 H57      9.4306   8.2420   7.1137   H         1 RES1   0.0000
   122 P1       1.2413   5.7601   7.1896   P.3       2 RES2  -1.0000
   123 F1       2.2676   4.7282   6.5595   F         2 RES2   0.0000
   124 F2       2.2358   6.9726   6.9103   F         2 RES2   0.0000
   125 F3       0.5658   5.9783   5.7576   F         2 RES2   0.0000
   126 F4       0.2103   6.7956   7.8411   F         2 RES2   0.0000
   127 F5       0.2374   4.5621   7.5047   F         2 RES2   0.0000
   128 F6       1.9162   5.5570   8.6353   F         2 RES2   0.0000
@<TRIPOS>BOND
     1     1     3    1
     2     2     3    1
     3     3    72    1
     4     4     1    1
     5     5     2    1
     6     6     2    1
     7     7     1    1
     8     8    98    2
     9     9   112    2
    10    10     1    1
    11    11     1    1
    12    12     1    1
    13    13     2    1
    14    14     2    1
    15    15     2    1
    16    16    17    1
    17    18    19    1
    18    20    21    1
    19    22    20    1
    20    23    20    1
    21    24    10   ar
    22    25    24    1
    23    26     4   un
    24    27    24   ar
    25    28    27    1
    26    29    26    1
    27    30    29    1
    28    31    29    1
    29    32    29    1
    30    33    27   ar
    31    34    33    1
    32    35     5   un
    33    36    33   ar
    34    37    36    1
    35    38    35    1
    36    39    38    1
    37    40    38    1
    38    41    38    1
    39    42    10   ar
    40    43    11    1
    41    44    43    1
    42    45    43    1
    43    46    12   ar
    44    47    46    1
    45    48    46   ar
    46    49    48    1
    47    50    48   ar
    48    51    50    1
    49    52    50   ar
    50    53    52    1
    51    54    12   ar
    52    55    11    1
    53    56    55    1
    54    57    55    1
    55    58    11    1
    56    59    58    1
    57    60    58    1
    58    61    58    1
    59    62    61   ar
    60    63    62    1
    61    64    62   ar
    62    65    64    1
    63    66    65    1
    64    67    65    1
    65    68    65    1
    66    69    64   ar
    67    70    69    1
    68    71    69   ar
    69    72    61   ar
    70    73    14    1
    71    74    73    1
    72    75    73    1
    73    76    13   ar
    74    77    76   ar
    75    78    77    1
    76    79    77   ar
    77    80    79    1
    78    81    79   ar
    79    82    81    1
    80    83    13   ar
    81    84    14    1
    82    85    84    1
    83    86    84    1
    84    87    15   ar
    85    88    87   ar
    86    89    88    1
    87    90    88   ar
    88    91    90    1
    89    92    90   ar
    90    93    92    1
    91    94    15   ar
    92    95    14    1
    93    96    95    1
    94    97    95    1
    95    98    16   am
    96    99    98    1
    97   100    99    1
    98   101   100    1
    99   102   100    1
   100   103   100    1
   101   104    99    1
   102   105   104    1
   103   106   104    1
   104   107   104    1
   105   108    99    1
   106   109   108    1
   107   110   108    1
   108   111   108    1
   109   112    18   am
   110   113    20    1
   111   114   113    1
   112   115   114    1
   113   116   114    1
   114   117   114    1
   115   118   113    1
   116   119   118    1
   117   120   118    1
   118   121   118    1
   119     6    26   un
   120     7    35   un
   121    16    76    1
   122    18    87    1
   123    36    42   ar
   124    42    43    1
   125    52    54   ar
   126    54    55    1
   127    71    72   ar
   128    71    73    1
   129    81    83   ar
   130    83    84    1
   131    92    94   ar
   132    94    95    1
   133   112   113    1
   134   122   123    1
   135   124   122    1
   136   125   122    1
   137   126   122    1
   138   127   122    1
   139   128   122    1
@<TRIPOS>SUBSTRUCTURE
     1 RES1        1 GROUP             0 ****  ****    0  
     2 RES2      122 GROUP             0 ****  ****    0  
@<TRIPOS>CRYSIN
   22.1770   14.6680   15.3946   90.0000   99.1136   90.0000    14     1
