@<TRIPOS>MOLECULE
JUNZAV
   113   119     3     0     0
SMALL
USER_CHARGES
****
Generated from the CSD

@<TRIPOS>ATOM
     1 Fe1      8.8546   8.8546   0.0000   Fe        1 RES1   2.0000
     2 P1      10.2493   9.7698   1.4587   P.3       1 RES1   0.0000
     3 N1       7.3888  10.2221   0.3046   N.2       1 RES1   0.0000
     4 C1      11.4947  10.7476   0.5456   C.3       1 RES1   0.0000
     5 H1      11.9464  11.3849   1.1537   H         1 RES1   0.0000
     6 H2      12.1781  10.1505   0.1485   H         1 RES1   0.0000
     7 C2      11.2590   8.7737   2.6010   C.ar      1 RES1   0.0000
     8 C3      10.6474   7.9825   3.5781   C.ar      1 RES1   0.0000
     9 H3       9.7004   7.9669   3.6516   H         1 RES1   0.0000
    10 C4      11.4250   7.2171   4.4463   C.ar      1 RES1   0.0000
    11 H4      11.0061   6.6734   5.1023   H         1 RES1   0.0000
    12 C5      12.8176   7.2472   4.3507   C.ar      1 RES1   0.0000
    13 H5      13.3446   6.7102   4.9310   H         1 RES1   0.0000
    14 C6      13.4326   8.0604   3.4087   C.ar      1 RES1   0.0000
    15 H6      14.3807   8.1028   3.3660   H         1 RES1   0.0000
    16 C7      12.6594   8.8136   2.5272   C.ar      1 RES1   0.0000
    17 H7      13.0828   9.3572   1.8734   H         1 RES1   0.0000
    18 C8       9.4828  10.9854   2.5595   C.ar      1 RES1   0.0000
    19 C9      10.2285  11.5108   3.6223   C.ar      1 RES1   0.0000
    20 H8      11.1208  11.2144   3.7544   H         1 RES1   0.0000
    21 C10      9.6926  12.4544   4.4828   C.ar      1 RES1   0.0000
    22 H9      10.2151  12.7987   5.1975   H         1 RES1   0.0000
    23 C11      8.3858  12.8956   4.2978   C.ar      1 RES1   0.0000
    24 H10      8.0070  13.5317   4.8929   H         1 RES1   0.0000
    25 C12      7.6404  12.3998   3.2377   C.ar      1 RES1   0.0000
    26 H11      6.7536  12.7129   3.1033   H         1 RES1   0.0000
    27 C13      8.1712  11.4409   2.3566   C.ar      1 RES1   0.0000
    28 C14      7.2517  11.0607   1.2737   C.2       1 RES1   0.0000
    29 H12      6.4138  11.5085   1.2908   H         1 RES1   0.0000
    30 C15      6.1926  10.1761  -0.6130   C.3       1 RES1   0.0000
    31 H13      6.5107   9.7951  -1.4812   H         1 RES1   0.0000
    32 C16      5.1449   9.2091  -0.0674   C.3       1 RES1   0.0000
    33 H14      4.8207   9.5333   0.8110   H         1 RES1   0.0000
    34 H15      5.5560   8.3178   0.0685   H         1 RES1   0.0000
    35 C17      3.9673   9.0843  -1.0319   C.3       1 RES1   0.0000
    36 H16      3.2621   8.5295  -0.6168   H         1 RES1   0.0000
    37 H17      4.2681   8.6275  -1.8582   H         1 RES1   0.0000
    38 C18      3.3868  10.4502  -1.3948   C.3       1 RES1   0.0000
    39 H18      2.6649  10.3332  -2.0638   H         1 RES1   0.0000
    40 H19      2.9936  10.8657  -0.5864   H         1 RES1   0.0000
    41 C19      4.4530  11.3604  -1.9610   C.3       1 RES1   0.0000
    42 H20      4.0564  12.2394  -2.1856   H         1 RES1   0.0000
    43 H21      4.8218  10.9671  -2.7910   H         1 RES1   0.0000
    44 C20      5.5782  11.5464  -0.9325   C.3       1 RES1   0.0000
    45 H22      6.2723  12.1492  -1.2984   H         1 RES1   0.0000
    46 H23      5.2151  11.9531  -0.1066   H         1 RES1   0.0000
    47 N2       7.9190   7.8053   1.3883   N.1       1 RES1   0.0000
    48 C21      7.3229   7.2238   2.1700   C.1       1 RES1   0.0000
    49 C22      6.6244   6.4305   3.1840   C.3       1 RES1   0.0000
    50 H24      6.2099   5.6507   2.7606   H         1 RES1   0.0000
    51 H25      5.9314   6.9798   3.6059   H         1 RES1   0.0000
    52 H26      7.2650   6.1320   3.8648   H         1 RES1   0.0000
    53 P1F      9.7698  10.2493  -1.4587   P.3       1 RES1   0.0000
    54 N1F     10.2221   7.3888  -0.3046   N.2       1 RES1   0.0000
    55 C1F     10.7476  11.4947  -0.5456   C.3       1 RES1   0.0000
    56 H1F     11.3849  11.9464  -1.1537   H         1 RES1   0.0000
    57 H2F     10.1505  12.1781  -0.1485   H         1 RES1   0.0000
    58 C2F      8.7737  11.2590  -2.6010   C.ar      1 RES1   0.0000
    59 C3F      7.9825  10.6474  -3.5781   C.ar      1 RES1   0.0000
    60 H3F      7.9669   9.7004  -3.6516   H         1 RES1   0.0000
    61 C4F      7.2171  11.4250  -4.4463   C.ar      1 RES1   0.0000
    62 H4F      6.6734  11.0061  -5.1023   H         1 RES1   0.0000
    63 C5F      7.2472  12.8176  -4.3507   C.ar      1 RES1   0.0000
    64 H5F      6.7102  13.3446  -4.9310   H         1 RES1   0.0000
    65 C6F      8.0604  13.4326  -3.4087   C.ar      1 RES1   0.0000
    66 H6F      8.1028  14.3807  -3.3660   H         1 RES1   0.0000
    67 C7F      8.8136  12.6594  -2.5272   C.ar      1 RES1   0.0000
    68 H7F      9.3572  13.0828  -1.8734   H         1 RES1   0.0000
    69 C8F     10.9854   9.4828  -2.5595   C.ar      1 RES1   0.0000
    70 C9F     11.5108  10.2285  -3.6223   C.ar      1 RES1   0.0000
    71 H8F     11.2144  11.1208  -3.7544   H         1 RES1   0.0000
    72 C10F    12.4544   9.6926  -4.4828   C.ar      1 RES1   0.0000
    73 H9F     12.7987  10.2151  -5.1975   H         1 RES1   0.0000
    74 C11F    12.8956   8.3858  -4.2978   C.ar      1 RES1   0.0000
    75 H10F    13.5317   8.0070  -4.8929   H         1 RES1   0.0000
    76 C12F    12.3998   7.6404  -3.2377   C.ar      1 RES1   0.0000
    77 H11F    12.7129   6.7536  -3.1033   H         1 RES1   0.0000
    78 C13F    11.4409   8.1712  -2.3566   C.ar      1 RES1   0.0000
    79 C14F    11.0607   7.2517  -1.2737   C.2       1 RES1   0.0000
    80 H12F    11.5085   6.4138  -1.2908   H         1 RES1   0.0000
    81 C15F    10.1761   6.1926   0.6130   C.3       1 RES1   0.0000
    82 H13F     9.7951   6.5107   1.4812   H         1 RES1   0.0000
    83 C16F     9.2091   5.1449   0.0674   C.3       1 RES1   0.0000
    84 H14F     9.5333   4.8207  -0.8110   H         1 RES1   0.0000
    85 H15F     8.3178   5.5560  -0.0685   H         1 RES1   0.0000
    86 C17F     9.0843   3.9673   1.0319   C.3       1 RES1   0.0000
    87 H16F     8.5295   3.2621   0.6168   H         1 RES1   0.0000
    88 H17F     8.6275   4.2681   1.8582   H         1 RES1   0.0000
    89 C18F    10.4502   3.3868   1.3948   C.3       1 RES1   0.0000
    90 H18F    10.3332   2.6649   2.0638   H         1 RES1   0.0000
    91 H19F    10.8657   2.9936   0.5864   H         1 RES1   0.0000
    92 C19F    11.3604   4.4530   1.9610   C.3       1 RES1   0.0000
    93 H20F    12.2394   4.0564   2.1856   H         1 RES1   0.0000
    94 H21F    10.9671   4.8218   2.7910   H         1 RES1   0.0000
    95 C20F    11.5464   5.5782   0.9325   C.3       1 RES1   0.0000
    96 H22F    12.1492   6.2723   1.2984   H         1 RES1   0.0000
    97 H23F    11.9531   5.2151   0.1066   H         1 RES1   0.0000
    98 N2F      7.8053   7.9190  -1.3883   N.1       1 RES1   0.0000
    99 C21F     7.2238   7.3229  -2.1700   C.1       1 RES1   0.0000
   100 C22F     6.4305   6.6244  -3.1840   C.3       1 RES1   0.0000
   101 H24F     5.6507   6.2099  -2.7606   H         1 RES1   0.0000
   102 H25F     6.9798   5.9314  -3.6059   H         1 RES1   0.0000
   103 H26F     6.1320   7.2650  -3.8648   H         1 RES1   0.0000
   104 B1       9.0542   4.6402   6.4251   B         2 RES2  -1.0000
   105 F1       9.4865   5.7866   7.0698   F         2 RES2   0.0000
   106 F2       7.8020   4.2848   6.7499   F         2 RES2   0.0000
   107 F3       9.0843   4.8619   5.0669   F         2 RES2   0.0000
   108 F4       9.9310   3.6219   6.6863   F         2 RES2   0.0000
   109 C23      4.1132  15.2541   0.0000   C.3       3 RES3   0.0000
   110 H27      3.3913  15.1527  -0.6702   H         3 RES3   0.0000
   111 Cl1      3.9450  16.7570   0.7760   Cl        3 RES3   0.0000
   112 H27F     4.0118  14.5322   0.6702   H         3 RES3   0.0000
   113 Cl1F     5.6161  15.0859  -0.7760   Cl        3 RES3   0.0000
@<TRIPOS>BOND
     1     1     2    1
     2     2     4    1
     3     3     1    1
     4     4     5    1
     5     6     4    1
     6     7     2    1
     7     8     7   ar
     8     9     8    1
     9    10     8   ar
    10    11    10    1
    11    12    10   ar
    12    13    12    1
    13    14    12   ar
    14    15    14    1
    15    16     7   ar
    16    17    16    1
    17    18     2    1
    18    19    18   ar
    19    20    19    1
    20    21    19   ar
    21    22    21    1
    22    23    21   ar
    23    24    23    1
    24    25    23   ar
    25    26    25    1
    26    27    18   ar
    27    28     3    2
    28    29    28    1
    29    30     3    1
    30    31    30    1
    31    32    30    1
    32    33    32    1
    33    34    32    1
    34    35    32    1
    35    36    35    1
    36    37    35    1
    37    38    35    1
    38    39    38    1
    39    40    38    1
    40    41    38    1
    41    42    41    1
    42    43    41    1
    43    44    30    1
    44    45    44    1
    45    46    44    1
    46    47     1    1
    47    48    47    3
    48    49    48    1
    49    50    49    1
    50    51    49    1
    51    52    49    1
    52    53     1    1
    53    54     1    1
    54    55     4    1
    55    56    55    1
    56    57    55    1
    57    58    53    1
    58    59    58   ar
    59    60    59    1
    60    61    59   ar
    61    62    61    1
    62    63    61   ar
    63    64    63    1
    64    65    63   ar
    65    66    65    1
    66    67    58   ar
    67    68    67    1
    68    69    53    1
    69    70    69   ar
    70    71    70    1
    71    72    70   ar
    72    73    72    1
    73    74    72   ar
    74    75    74    1
    75    76    74   ar
    76    77    76    1
    77    78    69   ar
    78    79    54    2
    79    80    79    1
    80    81    54    1
    81    82    81    1
    82    83    81    1
    83    84    83    1
    84    85    83    1
    85    86    83    1
    86    87    86    1
    87    88    86    1
    88    89    86    1
    89    90    89    1
    90    91    89    1
    91    92    89    1
    92    93    92    1
    93    94    92    1
    94    95    81    1
    95    96    95    1
    96    97    95    1
    97    98     1    1
    98    99    98    3
    99   100    99    1
   100   101   100    1
   101   102   100    1
   102   103   100    1
   103    14    16   ar
   104    25    27   ar
   105    27    28    1
   106    41    44    1
   107    53    55    1
   108    65    67   ar
   109    76    78   ar
   110    78    79    1
   111    92    95    1
   112   104   105    1
   113   106   104    1
   114   107   104    1
   115   108   104    1
   116   109   110    1
   117   111   109    1
   118   112   109    1
   119   113   109    1
@<TRIPOS>SUBSTRUCTURE
     1 RES1        1 GROUP             0 ****  ****    0  
     2 RES2      104 GROUP             0 ****  ****    0  
     3 RES3      109 GROUP             0 ****  ****    0  
@<TRIPOS>CRYSIN
   11.1409   11.1409   38.0770   90.0000   90.0000   90.0000    96     1
