@<TRIPOS>MOLECULE
JUVKET
   124   128     4     0     0
SMALL
USER_CHARGES
****
Generated from the CSD

@<TRIPOS>ATOM
     1 Fe1      3.2995   5.4859   8.3907   Fe        1 RES1   0.0000
     2 Cl1      3.1108   9.7521   2.4248   Cl        1 RES1   0.0000
     3 Cl2      3.1408   1.6115  14.5520   Cl        1 RES1   0.0000
     4 S1       1.3674   6.1156   7.2726   S.3       1 RES1  -1.0000
     5 S2       5.0976   5.3244   9.8457   S.3       1 RES1   0.0000
     6 N1       4.3100   5.0128   6.8422   N.am      1 RES1   0.0000
     7 N2       2.8512   3.6284   8.4040   N.am      1 RES1   0.0000
     8 N3       4.0730   7.2942   7.9609   N.ar      1 RES1   0.0000
     9 N4       2.1224   5.4656  10.0078   N.ar      1 RES1   0.0000
    10 O1       5.9218   5.7545   5.3391   O.2       1 RES1   0.0000
    11 O2       1.5177   2.0044   9.4136   O.2       1 RES1   0.0000
    12 C1       4.2565   3.6528   6.5046   C.ar      1 RES1   0.0000
    13 C2       3.4815   2.8687   7.4023   C.ar      1 RES1   0.0000
    14 C3       3.4274   1.4848   7.2446   C.ar      1 RES1   0.0000
    15 H1       2.9341   0.9536   7.8583   H         1 RES1   0.0000
    16 C4       4.1018   0.8833   6.1842   C.ar      1 RES1   0.0000
    17 H2       4.0767  -0.0610   6.0845   H         1 RES1   0.0000
    18 C5       4.8077   1.6527   5.2735   C.ar      1 RES1   0.0000
    19 H3       5.2430   1.2320   4.5412   H         1 RES1   0.0000
    20 C6       4.8870   3.0364   5.4191   C.ar      1 RES1   0.0000
    21 H4       5.3671   3.5573   4.7857   H         1 RES1   0.0000
    22 C7       5.1104   5.9167   6.2658   C.2       1 RES1   0.0000
    23 C8       4.9138   7.2563   6.8970   C.ar      1 RES1   0.0000
    24 C9       5.5517   8.3923   6.4055   C.ar      1 RES1   0.0000
    25 H5       6.1390   8.3291   5.6618   H         1 RES1   0.0000
    26 C10      5.3206   9.6147   7.0117   C.ar      1 RES1   0.0000
    27 H6       5.7416  10.4034   6.6905   H         1 RES1   0.0000
    28 C11      4.4582   9.6633   8.1001   C.ar      1 RES1   0.0000
    29 H7       4.2830  10.4871   8.5397   H         1 RES1   0.0000
    30 C12      3.8564   8.4901   8.5365   C.ar      1 RES1   0.0000
    31 H8       3.2633   8.5345   9.2772   H         1 RES1   0.0000
    32 C13      1.9788   3.1538   9.3040   C.2       1 RES1   0.0000
    33 C14      1.5929   4.2443  10.2532   C.ar      1 RES1   0.0000
    34 C15      0.7881   3.9879  11.3584   C.ar      1 RES1   0.0000
    35 H9       0.4034   3.1286  11.4856   H         1 RES1   0.0000
    36 C16      0.5552   5.0026  12.2701   C.ar      1 RES1   0.0000
    37 H10      0.0226   4.8493  13.0416   H         1 RES1   0.0000
    38 C17      1.1181   6.2506  12.0325   C.ar      1 RES1   0.0000
    39 H11      0.9864   6.9619  12.6482   H         1 RES1   0.0000
    40 C18      1.8743   6.4462  10.8877   C.ar      1 RES1   0.0000
    41 H12      2.2321   7.3103  10.7196   H         1 RES1   0.0000
    42 C19      1.8528   7.1223   5.8978   C.ar      1 RES1   0.0000
    43 C20      1.7803   8.5157   5.9859   C.ar      1 RES1   0.0000
    44 H13      1.4563   8.9149   6.7847   H         1 RES1   0.0000
    45 C21      2.1718   9.3279   4.9306   C.ar      1 RES1   0.0000
    46 H14      2.1356  10.2741   5.0088   H         1 RES1   0.0000
    47 C22      2.6181   8.7312   3.7582   C.ar      1 RES1   0.0000
    48 C23      2.6888   7.3579   3.6335   C.ar      1 RES1   0.0000
    49 H15      2.9906   6.9640   2.8235   H         1 RES1   0.0000
    50 C24      2.3143   6.5577   4.7079   C.ar      1 RES1   0.0000
    51 H16      2.3724   5.6128   4.6301   H         1 RES1   0.0000
    52 C25      4.6119   4.2578  11.1715   C.ar      1 RES1   0.0000
    53 C26      4.5341   2.8680  11.0095   C.ar      1 RES1   0.0000
    54 H17      4.7938   2.4769  10.1837   H         1 RES1   0.0000
    55 C27      4.0811   2.0553  12.0399   C.ar      1 RES1   0.0000
    56 H18      4.0113   1.1159  11.9165   H         1 RES1   0.0000
    57 C28      3.7343   2.6314  13.2497   C.ar      1 RES1   0.0000
    58 C29      3.8333   3.9921  13.4618   C.ar      1 RES1   0.0000
    59 H19      3.6074   4.3678  14.3048   H         1 RES1   0.0000
    60 C30      4.2679   4.8008  12.4222   C.ar      1 RES1   0.0000
    61 H20      4.3344   5.7387  12.5574   H         1 RES1   0.0000
    62 Cl3      8.2461   1.4367   1.9196   Cl        2 RES2   0.0000
    63 O3       9.3316   0.7119   1.3082   O.3       2 RES2  -1.0000
    64 O4       7.1994   1.6248   0.9524   O.2       2 RES2   0.0000
    65 O5       8.7189   2.7228   2.3567   O.2       2 RES2   0.0000
    66 O6       7.7461   0.6877   3.0444   O.2       2 RES2   0.0000
    67 N5       9.1278   2.3769   6.6746   N.4       3 RES3   1.0000
    68 C31     10.5927   2.1727   6.3407   C.3       3 RES3   0.0000
    69 H21     11.0283   1.7130   7.1019   H         3 RES3   0.0000
    70 H22     11.0206   3.0605   6.2446   H         3 RES3   0.0000
    71 C32     10.8561   1.3671   5.0721   C.3       3 RES3   0.0000
    72 H23     10.5169   0.4551   5.1877   H         3 RES3   0.0000
    73 H24     11.8206   1.3371   4.8984   H         3 RES3   0.0000
    74 H25     10.4014   1.7916   4.3151   H         3 RES3   0.0000
    75 C33      8.3941   1.0512   6.7561   C.3       3 RES3   0.0000
    76 H26      7.4377   1.2315   6.9361   H         3 RES3   0.0000
    77 H27      8.4529   0.6047   5.8744   H         3 RES3   0.0000
    78 C34      8.9120   0.0983   7.8133   C.3       3 RES3   0.0000
    79 H28      9.8545  -0.1032   7.6383   H         3 RES3   0.0000
    80 H29      8.3902  -0.7312   7.7886   H         3 RES3   0.0000
    81 H30      8.8246   0.5126   8.6971   H         3 RES3   0.0000
    82 C35      9.1061   3.1036   8.0089   C.3       3 RES3   0.0000
    83 H31      9.5874   2.5522   8.6756   H         3 RES3   0.0000
    84 H32      9.6023   3.9548   7.9119   H         3 RES3   0.0000
    85 C36      7.7236   3.4101   8.5448   C.3       3 RES3   0.0000
    86 H33      7.2491   3.9882   7.9118   H         3 RES3   0.0000
    87 H34      7.8024   3.8663   9.4085   H         3 RES3   0.0000
    88 H35      7.2259   2.5741   8.6608   H         3 RES3   0.0000
    89 C37      8.4210   3.1898   5.6011   C.3       3 RES3   0.0000
    90 H36      8.4036   2.6565   4.7673   H         3 RES3   0.0000
    91 H37      7.4830   3.3304   5.8834   H         3 RES3   0.0000
    92 C38      9.0331   4.5392   5.2905   C.3       3 RES3   0.0000
    93 H38      9.1023   5.0639   6.1153   H         3 RES3   0.0000
    94 H39      8.4658   5.0145   4.6478   H         3 RES3   0.0000
    95 H40      9.9258   4.4128   4.9074   H         3 RES3   0.0000
    96 N6       3.2438   2.7046   0.7230   N.4       4 RES4   1.0000
    97 C39      3.7803   1.7406   1.7809   C.3       4 RES4   0.0000
    98 H41      4.7008   1.4774   1.5272   H         4 RES4   0.0000
    99 H42      3.8358   2.2213   2.6444   H         4 RES4   0.0000
   100 C40      2.9619   0.4859   1.9823   C.3       4 RES4   0.0000
   101 H43      2.0595   0.7285   2.2768   H         4 RES4   0.0000
   102 H44      3.3878  -0.0760   2.6631   H         4 RES4   0.0000
   103 H45      2.9084  -0.0084   1.1378   H         4 RES4   0.0000
   104 C41      1.8004   3.0944   1.0252   C.3       4 RES4   0.0000
   105 H46      1.4764   3.6866   0.3010   H         4 RES4   0.0000
   106 H47      1.2441   2.2758   1.0125   H         4 RES4   0.0000
   107 C42      1.5945   3.7944   2.3457   C.3       4 RES4   0.0000
   108 H48      1.9891   3.2585   3.0647   H         4 RES4   0.0000
   109 H49      0.6343   3.9050   2.5101   H         4 RES4   0.0000
   110 H50      2.0246   4.6744   2.3198   H         4 RES4   0.0000
   111 C43      4.1602   3.9157   0.7631   C.3       4 RES4   0.0000
   112 H51      4.1289   4.3036   1.6734   H         4 RES4   0.0000
   113 H52      5.0883   3.6132   0.5995   H         4 RES4   0.0000
   114 C44      3.8254   5.0055  -0.2366   C.3       4 RES4   0.0000
   115 H53      3.8926   4.6466  -1.1461   H         4 RES4   0.0000
   116 H54      4.4539   5.7497  -0.1316   H         4 RES4   0.0000
   117 H55      2.9120   5.3246  -0.0784   H         4 RES4   0.0000
   118 C45      3.2332   2.0633  -0.6514   C.3       4 RES4   0.0000
   119 H56      2.6720   1.2483  -0.6132   H         4 RES4   0.0000
   120 H57      2.8044   2.6900  -1.2869   H         4 RES4   0.0000
   121 C46      4.5962   1.6837  -1.1957   C.3       4 RES4   0.0000
   122 H58      5.1477   2.4890  -1.2866   H         4 RES4   0.0000
   123 H59      4.4917   1.2589  -2.0725   H         4 RES4   0.0000
   124 H60      5.0316   1.0581  -0.5794   H         4 RES4   0.0000
@<TRIPOS>BOND
     1     1     4    1
     2     2    47    1
     3     3    57    1
     4     4    42    1
     5     5     1    1
     6     6     1    1
     7     7     1    1
     8     8     1    1
     9     9     1    1
    10    10    22    2
    11    11    32    2
    12    12     6    1
    13    13     7    1
    14    14    13   ar
    15    15    14    1
    16    16    14   ar
    17    17    16    1
    18    18    16   ar
    19    19    18    1
    20    20    12   ar
    21    21    20    1
    22    22     6   am
    23    23     8   ar
    24    24    23   ar
    25    25    24    1
    26    26    24   ar
    27    27    26    1
    28    28    26   ar
    29    29    28    1
    30    30     8   ar
    31    31    30    1
    32    32     7   am
    33    33     9   ar
    34    34    33   ar
    35    35    34    1
    36    36    34   ar
    37    37    36    1
    38    38    36   ar
    39    39    38    1
    40    40     9   ar
    41    41    40    1
    42    42    43   ar
    43    43    44    1
    44    45    43   ar
    45    46    45    1
    46    47    45   ar
    47    48    47   ar
    48    49    48    1
    49    50    42   ar
    50    51    50    1
    51    52     5    1
    52    53    52   ar
    53    54    53    1
    54    55    53   ar
    55    56    55    1
    56    57    55   ar
    57    58    57   ar
    58    59    58    1
    59    60    52   ar
    60    61    60    1
    61    12    13   ar
    62    18    20   ar
    63    22    23    1
    64    28    30   ar
    65    32    33    1
    66    38    40   ar
    67    48    50   ar
    68    58    60   ar
    69    62    63    1
    70    64    62    2
    71    65    62    2
    72    66    62    2
    73    67    68    1
    74    68    69    1
    75    70    68    1
    76    71    68    1
    77    72    71    1
    78    73    71    1
    79    74    71    1
    80    75    67    1
    81    76    75    1
    82    77    75    1
    83    78    75    1
    84    79    78    1
    85    80    78    1
    86    81    78    1
    87    82    67    1
    88    83    82    1
    89    84    82    1
    90    85    82    1
    91    86    85    1
    92    87    85    1
    93    88    85    1
    94    89    67    1
    95    90    89    1
    96    91    89    1
    97    92    89    1
    98    93    92    1
    99    94    92    1
   100    95    92    1
   101    96    97    1
   102    97    98    1
   103    99    97    1
   104   100    97    1
   105   101   100    1
   106   102   100    1
   107   103   100    1
   108   104    96    1
   109   105   104    1
   110   106   104    1
   111   107   104    1
   112   108   107    1
   113   109   107    1
   114   110   107    1
   115   111    96    1
   116   112   111    1
   117   113   111    1
   118   114   111    1
   119   115   114    1
   120   116   114    1
   121   117   114    1
   122   118    96    1
   123   119   118    1
   124   120   118    1
   125   121   118    1
   126   122   121    1
   127   123   121    1
   128   124   121    1
@<TRIPOS>SUBSTRUCTURE
     1 RES1        1 GROUP             0 ****  ****    0  
     2 RES2       62 GROUP             0 ****  ****    0  
     3 RES3       67 GROUP             0 ****  ****    0  
     4 RES4       96 GROUP             0 ****  ****    0  
@<TRIPOS>CRYSIN
   10.3936   23.6810   19.5828   90.0000   91.9010   90.0000   231     1
