@<TRIPOS>MOLECULE
JUXVEG
    81    83     3     0     0
SMALL
NO_CHARGES
****
Generated from the CSD

@<TRIPOS>ATOM
     1 I1       8.4766   9.4107  10.2138   I         1 RES1   0.0000
     2 I2      13.9192   3.6237  15.1970   I         1 RES1   0.0000
     3 I3      10.5262   1.7423  19.7547   I         1 RES1   0.0000
     4 I4      13.4734   6.5660  11.9339   I         1 RES1   0.0000
     5 Fe1     12.6090   8.2092  16.3952   Fe        1 RES1   0.0000
     6 Cl1     14.4931   9.3515  16.9972   Cl        1 RES1   0.0000
     7 O1      13.2093   6.3820  16.5899   O.3       1 RES1   0.0000
     8 O2      12.8722   8.2880  14.4819   O.3       1 RES1   0.0000
     9 O3      10.6238   7.3324  15.9817   O.2       1 RES1   0.0000
    10 N1      11.9140   8.1175  18.4023   N.2       1 RES1   0.0000
    11 N2      11.4556  10.0101  16.1639   N.2       1 RES1   0.0000
    12 N3       9.2474   6.3732  14.4655   N.am      1 RES1   0.0000
    13 C1      12.6270   5.4322  17.2703   C.ar      1 RES1   0.0000
    14 C2      11.9807   8.6017  13.5819   C.ar      1 RES1   0.0000
    15 C3      11.8473   5.6739  18.4353   C.ar      1 RES1   0.0000
    16 C4      10.9503   9.5553  13.8213   C.ar      1 RES1   0.0000
    17 C5      11.2779   4.6195  19.1589   C.ar      1 RES1   0.0000
    18 H1      10.8002   4.7907  19.9383   H         1 RES1   0.0000
    19 C6      11.4302   3.3218  18.7071   C.ar      1 RES1   0.0000
    20 C7      12.0023   7.9989  12.3074   C.ar      1 RES1   0.0000
    21 C8      12.1703   3.0416  17.5666   C.ar      1 RES1   0.0000
    22 H2      12.2616   2.1650  17.2693   H         1 RES1   0.0000
    23 C9       9.9880   9.8132  12.8261   C.ar      1 RES1   0.0000
    24 H3       9.3223  10.4413  12.9889   H         1 RES1   0.0000
    25 C10     10.8569  10.2936  15.0623   C.2       1 RES1   0.0000
    26 H4      10.3111  11.0471  15.0630   H         1 RES1   0.0000
    27 C11     10.4207   6.5356  15.0583   C.2       1 RES1   0.0000
    28 H5      11.1345   6.0179  14.7627   H         1 RES1   0.0000
    29 C12     11.6476   7.0061  18.9887   C.2       1 RES1   0.0000
    30 H6      11.2939   7.0566  19.8473   H         1 RES1   0.0000
    31 C13     10.0113   9.1617  11.6308   C.ar      1 RES1   0.0000
    32 C14     12.7681   4.0763  16.8796   C.ar      1 RES1   0.0000
    33 C15     11.7085   9.3342  19.1979   C.3       1 RES1   0.0000
    34 H7      12.5620   9.7770  19.3202   H         1 RES1   0.0000
    35 H8      11.3777   9.0824  20.0746   H         1 RES1   0.0000
    36 C16     10.7199  10.3251  18.5599   C.3       1 RES1   0.0000
    37 C17     11.2957  10.9507  17.2916   C.3       1 RES1   0.0000
    38 H9      10.7145  11.6747  17.0114   H         1 RES1   0.0000
    39 H10     12.1619  11.3341  17.5007   H         1 RES1   0.0000
    40 C18     11.0368   8.2524  11.3518   C.ar      1 RES1   0.0000
    41 H11     11.0678   7.8201  10.5288   H         1 RES1   0.0000
    42 C19      9.3784   9.6577  18.2791   C.3       1 RES1   0.0000
    43 H12      8.7578  10.3117  17.9507   H         1 RES1   0.0000
    44 H13      9.0376   9.2717  19.0899   H         1 RES1   0.0000
    45 H14      9.4956   8.9682  17.6217   H         1 RES1   0.0000
    46 C20     10.5234  11.4658  19.5700   C.3       1 RES1   0.0000
    47 H15     11.3671  11.8887  19.7441   H         1 RES1   0.0000
    48 H16     10.1690  11.1101  20.3890   H         1 RES1   0.0000
    49 H17      9.9100  12.1104  19.2101   H         1 RES1   0.0000
    50 C21      8.1051   7.1834  14.8112   C.3       1 RES1   0.0000
    51 H18      8.3316   7.7581  15.5461   H         1 RES1   0.0000
    52 H19      7.3735   6.6157  15.0616   H         1 RES1   0.0000
    53 H20      7.8517   7.7176  14.0542   H         1 RES1   0.0000
    54 C22      9.1049   5.4732  13.3307   C.3       1 RES1   0.0000
    55 H21      9.9418   5.0338  13.1643   H         1 RES1   0.0000
    56 H22      8.8466   5.9756  12.5551   H         1 RES1   0.0000
    57 H23      8.4320   4.8169  13.5262   H         1 RES1   0.0000
    58 O4      14.6484   9.6204   8.1309   O.2       2 RES2   0.0000
    59 N4      12.6818  10.6460   7.6772   N.am      2 RES2   0.0000
    60 C23     13.7304  10.3451   8.3929   C.2       2 RES2   0.0000
    61 H24     13.7712  10.7512   9.2289   H         2 RES2   0.0000
    62 C24     11.6323  11.5764   7.9669   C.3       2 RES2   0.0000
    63 H25     10.7926  11.1128   7.9958   H         2 RES2   0.0000
    64 H26     11.6036  12.2498   7.2838   H         2 RES2   0.0000
    65 H27     11.7983  11.9908   8.8176   H         2 RES2   0.0000
    66 C25     12.5755   9.9962   6.3330   C.3       2 RES2   0.0000
    67 H28     13.3975   9.5445   6.1302   H         2 RES2   0.0000
    68 H29     12.4044  10.6654   5.6668   H         2 RES2   0.0000
    69 H30     11.8550   9.3614   6.3415   H         2 RES2   0.0000
    70 N5       6.9169   5.7595  19.5317   N.am      3 RES3   0.0000
    71 O5       5.6475   6.7865  21.0825   O.2       3 RES3   0.0000
    72 C26      6.3515   6.8051  20.0770   C.2       3 RES3   0.0000
    73 H31      6.4948   7.6291  19.6704   H         3 RES3   0.0000
    74 C27      7.7516   5.9096  18.3601   C.3       3 RES3   0.0000
    75 H32      7.6399   6.7920  17.9983   H         3 RES3   0.0000
    76 H33      7.4988   5.2593  17.7007   H         3 RES3   0.0000
    77 H34      8.6710   5.7779  18.6034   H         3 RES3   0.0000
    78 C28      6.7308   4.4740  20.0940   C.3       3 RES3   0.0000
    79 H35      6.2170   4.5501  20.9015   H         3 RES3   0.0000
    80 H36      7.5853   4.0857  20.2936   H         3 RES3   0.0000
    81 H37      6.2631   3.9156  19.4687   H         3 RES3   0.0000
@<TRIPOS>BOND
     1     1    31    1
     2     2    32    1
     3     3    19    1
     4     4    20    1
     5     5     6    1
     6     7     5    1
     7     8     5    1
     8     9     5    1
     9    10     5    1
    10    11     5    1
    11    12    27   am
    12    13     7    1
    13    14     8    1
    14    15    13   ar
    15    16    14   ar
    16    17    15   ar
    17    18    17    1
    18    19    17   ar
    19    20    14   ar
    20    21    19   ar
    21    22    21    1
    22    23    16   ar
    23    24    23    1
    24    25    11    2
    25    26    25    1
    26    27     9    2
    27    28    27    1
    28    29    10    2
    29    30    29    1
    30    31    23   ar
    31    32    13   ar
    32    33    10    1
    33    34    33    1
    34    35    33    1
    35    36    33    1
    36    37    11    1
    37    38    37    1
    38    39    37    1
    39    40    20   ar
    40    41    40    1
    41    42    36    1
    42    43    42    1
    43    44    42    1
    44    45    42    1
    45    46    36    1
    46    47    46    1
    47    48    46    1
    48    49    46    1
    49    50    12    1
    50    51    50    1
    51    52    50    1
    52    53    50    1
    53    54    12    1
    54    55    54    1
    55    56    54    1
    56    57    54    1
    57    15    29    1
    58    16    25    1
    59    21    32   ar
    60    31    40   ar
    61    36    37    1
    62    58    60    2
    63    59    60   am
    64    60    61    1
    65    62    59    1
    66    63    62    1
    67    64    62    1
    68    65    62    1
    69    66    59    1
    70    67    66    1
    71    68    66    1
    72    69    66    1
    73    70    72   am
    74    71    72    2
    75    72    73    1
    76    74    70    1
    77    75    74    1
    78    76    74    1
    79    77    74    1
    80    78    70    1
    81    79    78    1
    82    80    78    1
    83    81    78    1
@<TRIPOS>SUBSTRUCTURE
     1 RES1        1 GROUP             0 ****  ****    0  
     2 RES2       58 GROUP             0 ****  ****    0  
     3 RES3       70 GROUP             0 ****  ****    0  
@<TRIPOS>CRYSIN
    8.3566   11.5633   21.3776   85.8130   86.2700   69.0840     2     1
