@<TRIPOS>MOLECULE
KACHEE
    99   107     4     0     0
SMALL
USER_CHARGES
****
Generated from the CSD

@<TRIPOS>ATOM
     1 Fe1     11.4390   9.6983   3.2493   Fe        1 RES1   2.0000
     2 O1      13.7090   6.8146  -2.4486   O.3       1 RES1   0.0000
     3 O2      10.1606  12.0346   7.8261   O.3       1 RES1   0.0000
     4 N1      13.6292   8.7665   1.1981   N.pl3     1 RES1   0.0000
     5 H1      14.3772   9.1172   1.5832   H         1 RES1   0.0000
     6 N2      12.3854   8.8943   1.6811   N.2       1 RES1   0.0000
     7 N3       9.9392   8.8777   2.3346   N.ar      1 RES1   0.0000
     8 N4       9.9614  10.1635   4.4437   N.2       1 RES1   0.0000
     9 N5       9.7658  10.8846   5.5520   N.pl3     1 RES1   0.0000
    10 H2      10.5781  11.3054   5.8766   H         1 RES1   0.0000
    11 N6      11.8102   6.9332   4.5564   N.pl3     1 RES1   0.0000
    12 H3      11.0569   6.5840   4.1324   H         1 RES1   0.0000
    13 N7      12.0586   8.2420   4.3968   N.2       1 RES1   0.0000
    14 N8      12.8279  10.5738   4.2237   N.ar      1 RES1   0.0000
    15 N9      11.3745  11.4908   2.4298   N.2       1 RES1   0.0000
    16 N10     10.6793  12.0892   1.4920   N.pl3     1 RES1   0.0000
    17 H4       9.9097  11.4874   1.0465   H         1 RES1   0.0000
    18 C1      13.6525   6.2211  -3.7380   C.3       1 RES1   0.0000
    19 H5      12.7169   6.0568  -3.9822   H         1 RES1   0.0000
    20 H6      14.1413   5.3713  -3.7286   H         1 RES1   0.0000
    21 H7      14.0598   6.8237  -4.3941   H         1 RES1   0.0000
    22 C2      14.9289   7.1062  -1.8864   C.ar      1 RES1   0.0000
    23 C3      16.1225   6.8156  -2.5425   C.ar      1 RES1   0.0000
    24 H8      16.1084   6.4017  -3.3985   H         1 RES1   0.0000
    25 C4      17.3010   7.1253  -1.9522   C.ar      1 RES1   0.0000
    26 H9      18.1177   6.8946  -2.3802   H         1 RES1   0.0000
    27 C5      17.3268   7.7760  -0.7326   C.ar      1 RES1   0.0000
    28 H10     18.1533   8.0307  -0.3354   H         1 RES1   0.0000
    29 C6      16.1001   8.0552  -0.0845   C.ar      1 RES1   0.0000
    30 H11     16.1117   8.4621   0.7728   H         1 RES1   0.0000
    31 C7      14.9067   7.7571  -0.6601   C.ar      1 RES1   0.0000
    32 C8      13.6512   8.0415   0.0362   C.2       1 RES1   0.0000
    33 C9      12.3642   7.7127  -0.2267   C.2       1 RES1   0.0000
    34 H12     12.0472   7.2149  -0.9714   H         1 RES1   0.0000
    35 C10     11.5764   8.2561   0.8292   C.2       1 RES1   0.0000
    36 C11     10.1724   8.2346   1.1686   C.ar      1 RES1   0.0000
    37 C12      9.1360   7.6700   0.4535   C.ar      1 RES1   0.0000
    38 H13      9.2857   7.2577  -0.3891   H         1 RES1   0.0000
    39 C13      7.8703   7.7242   1.0090   C.ar      1 RES1   0.0000
    40 H14      7.1426   7.3141   0.5555   H         1 RES1   0.0000
    41 C14      7.6489   8.3595   2.2017   C.ar      1 RES1   0.0000
    42 H15      6.7764   8.3889   2.5747   H         1 RES1   0.0000
    43 C15      8.7162   8.9619   2.8592   C.ar      1 RES1   0.0000
    44 C16      8.7364   9.7198   4.0734   C.2       1 RES1   0.0000
    45 C17      7.7625  10.1548   4.9603   C.2       1 RES1   0.0000
    46 H16      6.8331   9.9658   4.9294   H         1 RES1   0.0000
    47 C18      8.4436  10.9432   5.9249   C.2       1 RES1   0.0000
    48 C19      7.9535  11.7020   7.0681   C.ar      1 RES1   0.0000
    49 C20      6.5648  11.9070   7.2103   C.ar      1 RES1   0.0000
    50 H17      5.9681  11.5576   6.5582   H         1 RES1   0.0000
    51 C21      6.0688  12.6065   8.2796   C.ar      1 RES1   0.0000
    52 H18      5.1323  12.7440   8.3668   H         1 RES1   0.0000
    53 C22      6.9276  13.1060   9.2188   C.ar      1 RES1   0.0000
    54 H19      6.5727  13.5499   9.9796   H         1 RES1   0.0000
    55 C23      8.2795  12.9865   9.0954   C.ar      1 RES1   0.0000
    56 H20      8.8593  13.3909   9.7313   H         1 RES1   0.0000
    57 C24      8.8032  12.2567   8.0153   C.ar      1 RES1   0.0000
    58 C25     11.1003  12.5272   8.8136   C.3       1 RES1   0.0000
    59 H21     12.0092  12.2581   8.5627   H         1 RES1   0.0000
    60 H22     10.8789  12.1522   9.6911   H         1 RES1   0.0000
    61 H23     11.0492  13.5055   8.8539   H         1 RES1   0.0000
    62 C26     12.6419   6.3800   5.4661   C.2       1 RES1   0.0000
    63 H24     12.6393   5.4701   5.7411   H         1 RES1   0.0000
    64 C27     13.4814   7.3449   5.9196   C.2       1 RES1   0.0000
    65 H25     14.1760   7.2555   6.5623   H         1 RES1   0.0000
    66 C28     13.0933   8.5202   5.2206   C.2       1 RES1   0.0000
    67 C29     13.5146   9.9225   5.1763   C.ar      1 RES1   0.0000
    68 C30     14.4696  10.5373   5.9625   C.ar      1 RES1   0.0000
    69 H26     14.9436  10.0508   6.6267   H         1 RES1   0.0000
    70 C31     14.7135  11.8875   5.7505   C.ar      1 RES1   0.0000
    71 H27     15.3703  12.3369   6.2698   H         1 RES1   0.0000
    72 C32     14.0027  12.5820   4.7832   C.ar      1 RES1   0.0000
    73 H28     14.1564  13.5098   4.6463   H         1 RES1   0.0000
    74 C33     13.0608  11.9000   4.0130   C.ar      1 RES1   0.0000
    75 C34     12.2161  12.3964   2.9598   C.2       1 RES1   0.0000
    76 C35     12.0207  13.6271   2.3104   C.2       1 RES1   0.0000
    77 H29     12.4755  14.4438   2.4741   H         1 RES1   0.0000
    78 C36     11.0465  13.4005   1.4021   C.2       1 RES1   0.0000
    79 H30     10.6819  14.0419   0.8037   H         1 RES1   0.0000
    80 Cl1      9.1285   7.1998  -3.6328   Cl        2 RES2   0.0000
    81 O3      10.2292   7.3161  -2.7210   O.3       2 RES2  -1.0000
    82 O4       8.9556   8.4025  -4.3162   O.2       2 RES2   0.0000
    83 O5       7.9572   6.8731  -2.9075   O.2       2 RES2   0.0000
    84 O6       9.3581   6.1526  -4.5658   O.2       2 RES2   0.0000
    85 Cl2     16.9803  10.2598   3.1007   Cl        3 RES3   0.0000
    86 O7      17.3301  11.4337   3.7501   O.2       3 RES3   0.0000
    87 O8      15.6309  10.2973   2.7102   O.2       3 RES3   0.0000
    88 O9      17.7956  10.0735   1.9602   O.3       3 RES3  -1.0000
    89 O10     17.2450   9.2723   4.0345   O.2       3 RES3   0.0000
    90 O11      9.1950   1.2698   0.0899   O.2       4 RES4   0.0000
    91 C37     10.3484   0.9384   0.2335   C.2       4 RES4   0.0000
    92 C38     10.9452  -0.1443  -0.5501   C.3       4 RES4   0.0000
    93 H31     10.2378  -0.6422  -1.0103   H         4 RES4   0.0000
    94 H32     11.4343  -0.7486   0.0456   H         4 RES4   0.0000
    95 H33     11.5620   0.2333  -1.2116   H         4 RES4   0.0000
    96 C39     11.1828   1.6117   1.2880   C.3       4 RES4   0.0000
    97 H34     10.6721   2.3446   1.6905   H         4 RES4   0.0000
    98 H35     11.9991   1.9678   0.8788   H         4 RES4   0.0000
    99 H36     11.4212   0.9607   1.9803   H         4 RES4   0.0000
@<TRIPOS>BOND
     1     1     6    1
     2     2    18    1
     3     3    57    1
     4     4     5    1
     5     6     4    1
     6     7     1    1
     7     8     1    1
     8     9     8    1
     9    10     9    1
    10    11    12    1
    11    13     1    1
    12    14     1    1
    13    15     1    1
    14    16    15    1
    15    17    16    1
    16    18    19    1
    17    20    18    1
    18    21    18    1
    19    22     2    1
    20    23    22   ar
    21    24    23    1
    22    25    23   ar
    23    26    25    1
    24    27    25   ar
    25    28    27    1
    26    29    27   ar
    27    30    29    1
    28    31    22   ar
    29    32     4    1
    30    33    32    2
    31    34    33    1
    32    35     6    2
    33    36     7   ar
    34    37    36   ar
    35    38    37    1
    36    39    37   ar
    37    40    39    1
    38    41    39   ar
    39    42    41    1
    40    43     7   ar
    41    44     8    2
    42    45    44    1
    43    46    45    1
    44    47     9    1
    45    48    47    1
    46    49    48   ar
    47    50    49    1
    48    51    49   ar
    49    52    51    1
    50    53    51   ar
    51    54    53    1
    52    55    53   ar
    53    56    55    1
    54    57    48   ar
    55    58     3    1
    56    59    58    1
    57    60    58    1
    58    61    58    1
    59    62    11    1
    60    63    62    1
    61    64    62    2
    62    65    64    1
    63    66    13    2
    64    67    14   ar
    65    68    67   ar
    66    69    68    1
    67    70    68   ar
    68    71    70    1
    69    72    70   ar
    70    73    72    1
    71    74    14   ar
    72    75    15    2
    73    76    75    1
    74    77    76    1
    75    78    16    1
    76    79    78    1
    77    11    13    1
    78    29    31   ar
    79    31    32    1
    80    33    35    1
    81    35    36    1
    82    41    43   ar
    83    43    44    1
    84    45    47    2
    85    55    57   ar
    86    64    66    1
    87    66    67    1
    88    72    74   ar
    89    74    75    1
    90    76    78    2
    91    80    81    1
    92    82    80    2
    93    83    80    2
    94    84    80    2
    95    85    86    2
    96    87    85    2
    97    88    85    1
    98    89    85    2
    99    90    91    2
   100    91    92    1
   101    92    93    1
   102    94    92    1
   103    95    92    1
   104    96    91    1
   105    97    96    1
   106    98    96    1
   107    99    96    1
@<TRIPOS>SUBSTRUCTURE
     1 RES1        1 GROUP             0 ****  ****    0  
     2 RES2       80 GROUP             0 ****  ****    0  
     3 RES3       85 GROUP             0 ****  ****    0  
     4 RES4       90 GROUP             0 ****  ****    0  
@<TRIPOS>CRYSIN
   12.9060   13.1990   14.7590   71.4020   68.2420   67.2140     2     1
