@<TRIPOS>MOLECULE
KADFAA
    76    80     1     0     0
SMALL
NO_CHARGES
****
Generated from the CSD

@<TRIPOS>ATOM
     1 S1      -2.0848   9.8415   4.9810   S.o2      1 RES1   0.0000
     2 O1      -0.4978   8.9526   1.8849   O.co2     1 RES1   0.0000
     3 N1       2.4861   8.3637   4.7971   N.3       1 RES1   0.0000
     4 F1      -1.5511  11.7456   6.6965   F         1 RES1   0.0000
     5 C1       3.3704   7.5509   3.9086   C.3       1 RES1   0.0000
     6 H1       2.9137   6.7264   3.6806   H         1 RES1   0.0000
     7 H2       4.1761   7.3176   4.3958   H         1 RES1   0.0000
     8 Fe1      0.8870   9.0544   3.3780   Fe        1 RES1   0.0000
     9 N2       2.5749   8.8224   1.9117   N.3       1 RES1   0.0000
    10 O2      -2.1916   7.7996   0.9910   O.co2     1 RES1   0.0000
    11 F2      -3.4201  10.7451   7.0400   F         1 RES1   0.0000
    12 C2       3.7594   8.2661   2.6309   C.3       1 RES1   0.0000
    13 H3       4.3711   8.9882   2.8435   H         1 RES1   0.0000
    14 H4       4.2237   7.6451   2.0474   H         1 RES1   0.0000
    15 O3      -0.1457   7.1204   3.6916   O.2       1 RES1   0.0000
    16 N3       1.8673  11.0416   3.7023   N.3       1 RES1   0.0000
    17 F3      -1.5771   9.8038   7.5633   F         1 RES1   0.0000
    18 C3       2.2446   8.0336   0.6696   C.3       1 RES1   0.0000
    19 H5       1.4061   8.3977   0.3173   H         1 RES1   0.0000
    20 O4      -0.6475   9.8243   4.7450   O.3       1 RES1   0.0000
    21 C4       1.9905   6.5744   0.9846   C.3       1 RES1   0.0000
    22 H6       1.3850   6.5081   1.7262   H         1 RES1   0.0000
    23 H7       2.8195   6.1460   1.2080   H         1 RES1   0.0000
    24 H8       1.6047   6.1445   0.2172   H         1 RES1   0.0000
    25 O5      -2.8179  10.7646   4.1732   O.2       1 RES1   0.0000
    26 C5       3.2919   8.1718  -0.4462   C.3       1 RES1   0.0000
    27 H9       3.3277   9.0848  -0.7404   H         1 RES1   0.0000
    28 H10      3.0497   7.6072  -1.1842   H         1 RES1   0.0000
    29 H11      4.1527   7.9093  -0.1119   H         1 RES1   0.0000
    30 O6      -2.6680   8.5406   5.1466   O.2       1 RES1   0.0000
    31 C6       2.7954  10.2320   1.5174   C.3       1 RES1   0.0000
    32 H12      2.0407  10.5306   0.9857   H         1 RES1   0.0000
    33 H13      3.5869  10.2813   0.9593   H         1 RES1   0.0000
    34 C7       2.9669  11.1720   2.6930   C.3       1 RES1   0.0000
    35 H14      3.8157  10.9876   3.1244   H         1 RES1   0.0000
    36 H15      2.9911  12.0853   2.3676   H         1 RES1   0.0000
    37 C8       0.9272  12.2265   3.6754   C.3       1 RES1   0.0000
    38 H16      0.2467  12.0630   4.3610   H         1 RES1   0.0000
    39 C9       0.2001  12.3039   2.3459   C.3       1 RES1   0.0000
    40 H17     -0.4808  12.9789   2.3923   H         1 RES1   0.0000
    41 H18     -0.2046  11.4544   2.1532   H         1 RES1   0.0000
    42 H19      0.8244  12.5256   1.6517   H         1 RES1   0.0000
    43 C10      1.5760  13.5628   4.0127   C.3       1 RES1   0.0000
    44 H20      2.0337  13.4937   4.8539   H         1 RES1   0.0000
    45 H21      0.8998  14.2417   4.0713   H         1 RES1   0.0000
    46 H22      2.2047  13.7963   3.3252   H         1 RES1   0.0000
    47 C11      2.3965  10.8703   5.0825   C.3       1 RES1   0.0000
    48 H23      1.6532  10.8675   5.7058   H         1 RES1   0.0000
    49 H24      2.9604  11.6293   5.2987   H         1 RES1   0.0000
    50 C12      3.2002   9.5888   5.2679   C.3       1 RES1   0.0000
    51 H25      4.0368   9.6708   4.7830   H         1 RES1   0.0000
    52 H26      3.4138   9.4861   6.2086   H         1 RES1   0.0000
    53 C13      2.0452   7.4853   5.9546   C.3       1 RES1   0.0000
    54 H27      1.5165   6.7536   5.5721   H         1 RES1   0.0000
    55 C14      1.1333   8.2393   6.9001   C.3       1 RES1   0.0000
    56 H28      0.3954   8.6068   6.4085   H         1 RES1   0.0000
    57 H29      1.6244   8.9501   7.3191   H         1 RES1   0.0000
    58 H30      0.8027   7.6393   7.5728   H         1 RES1   0.0000
    59 C15      3.2042   6.8436   6.7231   C.3       1 RES1   0.0000
    60 H31      3.6550   6.2139   6.1549   H         1 RES1   0.0000
    61 H32      2.8632   6.3887   7.4965   H         1 RES1   0.0000
    62 H33      3.8218   7.5247   6.9984   H         1 RES1   0.0000
    63 C16     -1.3211   7.9893   1.8362   C.2       1 RES1   0.0000
    64 C17     -1.1537   6.9805   3.0019   C.2       1 RES1   0.0000
    65 C18     -2.1408   5.9166   3.3063   C.ar      1 RES1   0.0000
    66 C19     -3.0493   5.4191   2.3701   C.ar      1 RES1   0.0000
    67 H34     -3.0576   5.7517   1.5015   H         1 RES1   0.0000
    68 C20     -3.9432   4.4217   2.7497   C.ar      1 RES1   0.0000
    69 H35     -4.5470   4.0814   2.1287   H         1 RES1   0.0000
    70 C21     -3.9395   3.9352   4.0324   C.ar      1 RES1   0.0000
    71 H36     -4.5406   3.2695   4.2770   H         1 RES1   0.0000
    72 C22     -3.0503   4.4290   4.9610   C.ar      1 RES1   0.0000
    73 H37     -3.0576   4.0989   5.8298   H         1 RES1   0.0000
    74 C23     -2.1465   5.4136   4.6041   C.ar      1 RES1   0.0000
    75 H38     -1.5429   5.7393   5.2320   H         1 RES1   0.0000
    76 C24     -2.1646  10.5649   6.6535   C.3       1 RES1   0.0000
@<TRIPOS>BOND
     1     1    20    1
     2     2     8    1
     3     3     5    1
     4     4    76    1
     5     5     6    1
     6     7     5    1
     7     8     3    1
     8     9     8    1
     9    10    63    2
    10    11    76    1
    11    12     5    1
    12    13    12    1
    13    14    12    1
    14    15     8    1
    15    16     8    1
    16    17    76    1
    17    18     9    1
    18    19    18    1
    19    20     8    1
    20    21    18    1
    21    22    21    1
    22    23    21    1
    23    24    21    1
    24    25     1    2
    25    26    18    1
    26    27    26    1
    27    28    26    1
    28    29    26    1
    29    30     1    2
    30    31     9    1
    31    32    31    1
    32    33    31    1
    33    34    16    1
    34    35    34    1
    35    36    34    1
    36    37    16    1
    37    38    37    1
    38    39    37    1
    39    40    39    1
    40    41    39    1
    41    42    39    1
    42    43    37    1
    43    44    43    1
    44    45    43    1
    45    46    43    1
    46    47    16    1
    47    48    47    1
    48    49    47    1
    49    50     3    1
    50    51    50    1
    51    52    50    1
    52    53     3    1
    53    54    53    1
    54    55    53    1
    55    56    55    1
    56    57    55    1
    57    58    55    1
    58    59    53    1
    59    60    59    1
    60    61    59    1
    61    62    59    1
    62    63     2    1
    63    64    15    2
    64    65    64    1
    65    66    65   ar
    66    67    66    1
    67    68    66   ar
    68    69    68    1
    69    70    68   ar
    70    71    70    1
    71    72    70   ar
    72    73    72    1
    73    74    65   ar
    74    75    74    1
    75    76     1    1
    76     9    12    1
    77    31    34    1
    78    47    50    1
    79    63    64    1
    80    72    74   ar
@<TRIPOS>SUBSTRUCTURE
     1 RES1        1 GROUP             0 ****  ****    0  
@<TRIPOS>CRYSIN
    9.1103    9.9440   15.5023   77.3380   89.4220   88.6220     2     1
