@<TRIPOS>MOLECULE
KADZOG
    86    95     2     0     0
SMALL
NO_CHARGES
****
Generated from the CSD

@<TRIPOS>ATOM
     1 Fe1      7.9197   7.7696   3.0205   Fe        1 RES1   0.0000
     2 Cl1      9.8578   8.4253   4.1523   Cl        1 RES1   0.0000
     3 Cl2      8.7867   6.1339   1.6842   Cl        1 RES1   0.0000
     4 O1       6.8602   9.4168   3.8409   O.3       1 RES1   0.0000
     5 B1       5.4197   9.2073   4.1080   B         1 RES1   0.0000
     6 B2       7.2543  10.7699   3.3708   B         1 RES1   0.0000
     7 N1       4.9576   8.1108   3.0877   N.ar      1 RES1   0.0000
     8 N2       5.9237   7.3775   2.4600   N.ar      1 RES1   0.0000
     9 C1       5.2966   6.4997   1.6616   C.ar      1 RES1   0.0000
    10 H1       5.7297   5.8600   1.1083   H         1 RES1   0.0000
    11 C2       3.9119   6.6644   1.7603   C.ar      1 RES1   0.0000
    12 H2       3.2351   6.1833   1.2990   H         1 RES1   0.0000
    13 C3       3.7480   7.6684   2.6694   C.ar      1 RES1   0.0000
    14 H3       2.9110   8.0077   2.9640   H         1 RES1   0.0000
    15 N3       7.9460  10.5619   1.9799   N.ar      1 RES1   0.0000
    16 N4       8.2184   9.2711   1.5816   N.ar      1 RES1   0.0000
    17 C4       8.9214   9.3415   0.4256   C.ar      1 RES1   0.0000
    18 H4       9.2665   8.5973  -0.0528   H         1 RES1   0.0000
    19 C5       9.0605  10.6794   0.0494   C.ar      1 RES1   0.0000
    20 H5       9.4788  11.0141  -0.7355   H         1 RES1   0.0000
    21 C6       8.4566  11.4161   1.0589   C.ar      1 RES1   0.0000
    22 H6       8.4085  12.3634   1.0964   H         1 RES1   0.0000
    23 N5       4.8239  10.5882   3.6024   N.ar      1 RES1   0.0000
    24 N6       5.8044  11.4256   3.1461   N.ar      1 RES1   0.0000
    25 C7       5.2132  12.5652   2.6899   C.ar      1 RES1   0.0000
    26 C8       3.8437  12.4245   2.8482   C.ar      1 RES1   0.0000
    27 H7       3.1760  13.0555   2.6064   H         1 RES1   0.0000
    28 C9       3.6389  11.1839   3.4219   C.ar      1 RES1   0.0000
    29 H8       2.7942  10.8147   3.6517   H         1 RES1   0.0000
    30 C10      5.0209   8.8698   5.6181   C.ar      1 RES1   0.0000
    31 C11      5.9867   8.7152   6.6072   C.ar      1 RES1   0.0000
    32 H9       6.9005   8.8565   6.3893   H         1 RES1   0.0000
    33 C12      5.6468   8.3587   7.9181   C.ar      1 RES1   0.0000
    34 H10      6.3308   8.2564   8.5701   H         1 RES1   0.0000
    35 C13      4.3330   8.1530   8.2722   C.ar      1 RES1   0.0000
    36 H11      4.1054   7.9084   9.1608   H         1 RES1   0.0000
    37 C14      3.3486   8.3083   7.3137   C.ar      1 RES1   0.0000
    38 H12      2.4368   8.1711   7.5435   H         1 RES1   0.0000
    39 C15      3.6930   8.6647   6.0062   C.ar      1 RES1   0.0000
    40 H13      3.0033   8.7718   5.3610   H         1 RES1   0.0000
    41 C16      8.1213  11.6227   4.4008   C.ar      1 RES1   0.0000
    42 C17      7.5418  12.0511   5.6027   C.ar      1 RES1   0.0000
    43 H14      6.6307  11.8424   5.7747   H         1 RES1   0.0000
    44 C18      8.2584  12.7764   6.5578   C.ar      1 RES1   0.0000
    45 H15      7.8379  13.0659   7.3597   H         1 RES1   0.0000
    46 C19      9.5963  13.0686   6.3195   C.ar      1 RES1   0.0000
    47 H16     10.0961  13.5547   6.9647   H         1 RES1   0.0000
    48 C20     10.2030  12.6571   5.1516   C.ar      1 RES1   0.0000
    49 H17     11.1191  12.8554   4.9967   H         1 RES1   0.0000
    50 C21      9.4716  11.9506   4.1965   C.ar      1 RES1   0.0000
    51 H18      9.8962  11.6844   3.3896   H         1 RES1   0.0000
    52 N7       7.4847   6.4767   4.6885   N.2       1 RES1   0.0000
    53 N8       8.3107   6.4072   5.7747   N.pl3     1 RES1   0.0000
    54 H19      9.0152   6.9200   5.8973   H         1 RES1   0.0000
    55 C22      7.9086   5.4495   6.6361   C.2       1 RES1   0.0000
    56 C23      6.7671   4.8760   6.0964   C.2       1 RES1   0.0000
    57 H20      6.2438   4.1752   6.4693   H         1 RES1   0.0000
    58 C24      6.5484   5.5462   4.8945   C.2       1 RES1   0.0000
    59 H21      5.8304   5.3645   4.2987   H         1 RES1   0.0000
    60 C25      5.9870  13.6832   2.0736   C.ar      1 RES1   0.0000
    61 C26      5.6072  14.1356   0.7899   C.ar      1 RES1   0.0000
    62 H22      4.8657  13.7330   0.3524   H         1 RES1   0.0000
    63 C27      6.2938  15.1505   0.1583   C.ar      1 RES1   0.0000
    64 H23      6.0147  15.4602  -0.6946   H         1 RES1   0.0000
    65 C28      7.4051  15.7222   0.7865   C.ar      1 RES1   0.0000
    66 H24      7.9221  16.3801   0.3371   H         1 RES1   0.0000
    67 C29      7.7561  15.3130   2.0974   C.ar      1 RES1   0.0000
    68 H25      8.4856  15.7267   2.5452   H         1 RES1   0.0000
    69 C30      7.0437  14.3260   2.7188   C.ar      1 RES1   0.0000
    70 H26      7.2713  14.0745   3.6058   H         1 RES1   0.0000
    71 C31      8.6655   5.1673   7.8755   C.ar      1 RES1   0.0000
    72 C32      9.3432   6.1836   8.5633   C.ar      1 RES1   0.0000
    73 H27      9.3047   7.0753   8.2381   H         1 RES1   0.0000
    74 C33     10.0715   5.9089   9.7124   C.ar      1 RES1   0.0000
    75 H28     10.5340   6.6015  10.1687   H         1 RES1   0.0000
    76 C34     10.1129   4.5832  10.1925   C.ar      1 RES1   0.0000
    77 H29     10.5929   4.3844  10.9893   H         1 RES1   0.0000
    78 C35      9.4580   3.5700   9.5098   C.ar      1 RES1   0.0000
    79 H30      9.5122   2.6753   9.8265   H         1 RES1   0.0000
    80 C36      8.7196   3.8540   8.3590   C.ar      1 RES1   0.0000
    81 H31      8.2559   3.1601   7.9061   H         1 RES1   0.0000
    82 C37      1.9151   4.5453   4.0739   C.3       2 RES2   0.0000
    83 H32      1.5685   5.2072   3.4083   H         2 RES2   0.0000
    84 Cl3      2.5620   5.4095   5.4565   Cl        2 RES2   0.0000
    85 Cl4      0.6047   3.4866   4.5557   Cl        2 RES2   0.0000
    86 Cl5      3.2079   3.5898   3.3147   Cl        2 RES2   0.0000
@<TRIPOS>BOND
     1     1     2    1
     2     3     1    1
     3     4     1    1
     4     5     4    1
     5     6     4    1
     6     7     5    1
     7     8     1    1
     8     9     8   ar
     9    10     9    1
    10    11     9   ar
    11    12    11    1
    12    13     7   ar
    13    14    13    1
    14    15     6    1
    15    16     1    1
    16    17    16   ar
    17    18    17    1
    18    19    17   ar
    19    20    19    1
    20    21    15   ar
    21    22    21    1
    22    23     5    1
    23    24     6    1
    24    25    24   ar
    25    26    25   ar
    26    27    26    1
    27    28    23   ar
    28    29    28    1
    29    30     5    1
    30    31    30   ar
    31    32    31    1
    32    33    31   ar
    33    34    33    1
    34    35    33   ar
    35    36    35    1
    36    37    35   ar
    37    38    37    1
    38    39    30   ar
    39    40    39    1
    40    41     6    1
    41    42    41   ar
    42    43    42    1
    43    44    42   ar
    44    45    44    1
    45    46    44   ar
    46    47    46    1
    47    48    46   ar
    48    49    48    1
    49    50    41   ar
    50    51    50    1
    51    52     1    1
    52    53    52    1
    53    54    53    1
    54    55    53    1
    55    56    55    2
    56    57    56    1
    57    58    52    2
    58    59    58    1
    59    60    25    1
    60    61    60   ar
    61    62    61    1
    62    63    61   ar
    63    64    63    1
    64    65    63   ar
    65    66    65    1
    66    67    65   ar
    67    68    67    1
    68    69    60   ar
    69    70    69    1
    70    71    55    1
    71    72    71   ar
    72    73    72    1
    73    74    72   ar
    74    75    74    1
    75    76    74   ar
    76    77    76    1
    77    78    76   ar
    78    79    78    1
    79    80    71   ar
    80    81    80    1
    81     7     8   ar
    82    11    13   ar
    83    15    16   ar
    84    19    21   ar
    85    23    24   ar
    86    26    28   ar
    87    37    39   ar
    88    48    50   ar
    89    56    58    1
    90    67    69   ar
    91    78    80   ar
    92    82    83    1
    93    84    82    1
    94    85    82    1
    95    86    82    1
@<TRIPOS>SUBSTRUCTURE
     1 RES1        1 GROUP             0 ****  ****    0  
     2 RES2       82 GROUP             0 ****  ****    0  
@<TRIPOS>CRYSIN
    9.3421   12.5641   18.4784   70.5750   77.2180   86.5210     2     1
