@<TRIPOS>MOLECULE
KAFFOP
   109   116     3     0     0
SMALL
USER_CHARGES
****
Generated from the CSD

@<TRIPOS>ATOM
     1 Fe1      4.0591   7.9641  11.4721   Fe        1 RES1   2.0000
     2 N1       2.4189   6.9370  12.6389   N.ar      1 RES1   0.0000
     3 N2       6.2377   5.2838  15.6366   N.ar      1 RES1   0.0000
     4 N3       3.1708   7.4379   9.5309   N.ar      1 RES1   0.0000
     5 N4       4.5467  12.5136   8.6006   N.ar      1 RES1   0.0000
     6 N5       3.9475   9.1050  13.3653   N.3       1 RES1   0.0000
     7 N6       5.6330   6.7533  12.7642   N.3       1 RES1   0.0000
     8 N7       5.7935   7.8131  10.1184   N.3       1 RES1   0.0000
     9 N8       4.1692  10.1924  10.7224   N.3       1 RES1   0.0000
    10 C1       2.5228   9.0748  13.7927   C.3       1 RES1   0.0000
    11 H1       2.4589   9.3660  14.7366   H         1 RES1   0.0000
    12 H2       2.0012   9.7091  13.2415   H         1 RES1   0.0000
    13 C2       1.9387   7.7129  13.6598   C.ar      1 RES1   0.0000
    14 C3       0.9336   7.2713  14.5025   C.ar      1 RES1   0.0000
    15 H3       0.6212   7.8213  15.2123   H         1 RES1   0.0000
    16 C4       0.3859   6.0066  14.2971   C.ar      1 RES1   0.0000
    17 H4      -0.3024   5.6813  14.8649   H         1 RES1   0.0000
    18 C5       0.8598   5.2356  13.2551   C.ar      1 RES1   0.0000
    19 H5       0.4828   4.3789  13.0965   H         1 RES1   0.0000
    20 C6       1.8701   5.6961  12.4441   C.ar      1 RES1   0.0000
    21 C7       2.3671   4.8875  11.2782   C.3       1 RES1   0.0000
    22 H6       3.3059   5.1104  11.1030   H         1 RES1   0.0000
    23 H7       1.8293   5.0916  10.4853   H         1 RES1   0.0000
    24 H8       2.2922   3.9332  11.4866   H         1 RES1   0.0000
    25 C8       4.7879   8.4083  14.3756   C.3       1 RES1   0.0000
    26 H9       4.2542   7.6986  14.8136   H         1 RES1   0.0000
    27 H10      5.0692   9.0541  15.0718   H         1 RES1   0.0000
    28 C9       6.0163   7.7912  13.7338   C.3       1 RES1   0.0000
    29 H11      6.5367   8.4972  13.2732   H         1 RES1   0.0000
    30 H12      6.5907   7.3941  14.4345   H         1 RES1   0.0000
    31 C10      5.1658   5.4811  13.4816   C.3       1 RES1   0.0000
    32 H13      4.3723   5.7093  14.0283   H         1 RES1   0.0000
    33 H14      4.8735   4.8306  12.7960   H         1 RES1   0.0000
    34 C11      6.1566   4.8063  14.3651   C.ar      1 RES1   0.0000
    35 C12      6.9019   3.7573  13.9135   C.ar      1 RES1   0.0000
    36 H15      6.8413   3.4822  13.0059   H         1 RES1   0.0000
    37 C13      7.7551   3.0909  14.7940   C.ar      1 RES1   0.0000
    38 H16      8.2583   2.3359  14.5131   H         1 RES1   0.0000
    39 C14      7.8455   3.5642  16.0897   C.ar      1 RES1   0.0000
    40 H17      8.4239   3.1357  16.7104   H         1 RES1   0.0000
    41 C15      7.0856   4.6763  16.4914   C.ar      1 RES1   0.0000
    42 C16      7.1478   5.1747  17.8974   C.3       1 RES1   0.0000
    43 H18      6.8077   4.4849  18.5030   H         1 RES1   0.0000
    44 H19      6.5994   5.9817  17.9820   H         1 RES1   0.0000
    45 H20      8.0765   5.3843  18.1285   H         1 RES1   0.0000
    46 C17      6.7864   6.4013  11.9019   C.3       1 RES1   0.0000
    47 H21      6.6101   5.5291  11.4670   H         1 RES1   0.0000
    48 H22      7.5932   6.2994  12.4667   H         1 RES1   0.0000
    49 C18      7.0611   7.4326  10.8387   C.3       1 RES1   0.0000
    50 H23      7.7141   7.0692  10.1878   H         1 RES1   0.0000
    51 H24      7.4583   8.2386  11.2540   H         1 RES1   0.0000
    52 C19      5.4520   6.7594   9.1413   C.3       1 RES1   0.0000
    53 H25      5.4996   5.8697   9.5732   H         1 RES1   0.0000
    54 H26      6.0946   6.7753   8.3892   H         1 RES1   0.0000
    55 C20      4.0504   7.0122   8.6293   C.ar      1 RES1   0.0000
    56 C21      3.7150   6.7837   7.2898   C.ar      1 RES1   0.0000
    57 H27      4.3685   6.5109   6.6570   H         1 RES1   0.0000
    58 C22      2.3959   6.9714   6.9228   C.ar      1 RES1   0.0000
    59 H28      2.1335   6.8267   6.0212   H         1 RES1   0.0000
    60 C23      1.4680   7.3611   7.8395   C.ar      1 RES1   0.0000
    61 H29      0.5553   7.4541   7.5918   H         1 RES1   0.0000
    62 C24      1.8725   7.6198   9.1488   C.ar      1 RES1   0.0000
    63 C25      0.9029   8.1258  10.1773   C.3       1 RES1   0.0000
    64 H30      1.3842   8.6507  10.8508   H         1 RES1   0.0000
    65 H31      0.4592   7.3664  10.6107   H         1 RES1   0.0000
    66 H32      0.2308   8.6923   9.7408   H         1 RES1   0.0000
    67 C26      5.9875   9.1318   9.4509   C.3       1 RES1   0.0000
    68 H33      5.4261   9.1744   8.6353   H         1 RES1   0.0000
    69 H34      6.9340   9.2270   9.1760   H         1 RES1   0.0000
    70 C27      5.6205  10.2567  10.3660   C.3       1 RES1   0.0000
    71 H35      6.1657  10.2024  11.1906   H         1 RES1   0.0000
    72 H36      5.8155  11.1196   9.9235   H         1 RES1   0.0000
    73 C28      3.3234  10.6399   9.5671   C.3       1 RES1   0.0000
    74 H37      2.3806  10.4137   9.7635   H         1 RES1   0.0000
    75 H38      3.5921  10.1254   8.7652   H         1 RES1   0.0000
    76 C29      3.4051  12.1346   9.2319   C.ar      1 RES1   0.0000
    77 C30      2.3860  12.9854   9.5687   C.ar      1 RES1   0.0000
    78 H39      1.5871  12.6566   9.9643   H         1 RES1   0.0000
    79 C31      2.5540  14.3432   9.3180   C.ar      1 RES1   0.0000
    80 H40      1.8829  14.9676   9.5687   H         1 RES1   0.0000
    81 C32      3.7066  14.7662   8.7003   C.ar      1 RES1   0.0000
    82 H41      3.8312  15.6891   8.5160   H         1 RES1   0.0000
    83 C33      4.6904  13.8542   8.3424   C.ar      1 RES1   0.0000
    84 C34      5.9511  14.2434   7.6326   C.3       1 RES1   0.0000
    85 H42      5.9166  13.9242   6.7068   H         1 RES1   0.0000
    86 H43      6.7193  13.8393   8.0887   H         1 RES1   0.0000
    87 H44      6.0428  15.2184   7.6386   H         1 RES1   0.0000
    88 C35      3.9034  11.0968  11.8944   C.3       1 RES1   0.0000
    89 H45      4.3482  11.9685  11.7403   H         1 RES1   0.0000
    90 H46      2.9292  11.2602  11.9653   H         1 RES1   0.0000
    91 C36      4.4017  10.5063  13.1795   C.3       1 RES1   0.0000
    92 H47      5.3907  10.5321  13.1886   H         1 RES1   0.0000
    93 H48      4.0767  11.0566  13.9377   H         1 RES1   0.0000
    94 S1       7.5787   7.1415   5.5077   S.o2      2 RES2   0.0000
    95 F1       5.6669   8.9308   5.3507   F         2 RES2   0.0000
    96 F2       6.4640   8.3630   3.4493   F         2 RES2   0.0000
    97 F3       7.5930   9.6560   4.7571   F         2 RES2   0.0000
    98 O1       6.6017   6.0910   5.2797   O.3       2 RES2  -1.0000
    99 O2       7.7452   7.5687   6.8760   O.2       2 RES2   0.0000
   100 O3       8.8104   7.0001   4.7738   O.2       2 RES2   0.0000
   101 C37      6.7924   8.5960   4.7390   C.3       2 RES2   0.0000
   102 S2      -0.6465  11.3905  12.3418   S.o2      3 RES3   0.0000
   103 F4      -0.4526  13.7387  11.2148   F         3 RES3   0.0000
   104 F5      -2.4756  13.0788  11.4881   F         3 RES3   0.0000
   105 F6      -1.3208  13.7941  13.1705   F         3 RES3   0.0000
   106 O4       0.6255  11.6094  12.9908   O.2       3 RES3   0.0000
   107 O5      -0.5627  10.7893  11.0290   O.3       3 RES3  -1.0000
   108 O6      -1.6557  10.8236  13.2037   O.2       3 RES3   0.0000
   109 C38     -1.2415  13.0880  12.0137   C.3       3 RES3   0.0000
@<TRIPOS>BOND
     1     1     2    1
     2     2    13   ar
     3     3    34   ar
     4     4     1    1
     5     5    76   ar
     6     6     1    1
     7     7     1    1
     8     8     1    1
     9     9     1    1
    10    10     6    1
    11    11    10    1
    12    12    10    1
    13    13    10    1
    14    14    13   ar
    15    15    14    1
    16    16    14   ar
    17    17    16    1
    18    18    16   ar
    19    19    18    1
    20    20     2   ar
    21    21    20    1
    22    22    21    1
    23    23    21    1
    24    24    21    1
    25    25     6    1
    26    26    25    1
    27    27    25    1
    28    28     7    1
    29    29    28    1
    30    30    28    1
    31    31     7    1
    32    32    31    1
    33    33    31    1
    34    34    31    1
    35    35    34   ar
    36    36    35    1
    37    37    35   ar
    38    38    37    1
    39    39    37   ar
    40    40    39    1
    41    41     3   ar
    42    42    41    1
    43    43    42    1
    44    44    42    1
    45    45    42    1
    46    46     7    1
    47    47    46    1
    48    48    46    1
    49    49     8    1
    50    50    49    1
    51    51    49    1
    52    52     8    1
    53    53    52    1
    54    54    52    1
    55    55     4   ar
    56    56    55   ar
    57    57    56    1
    58    58    56   ar
    59    59    58    1
    60    60    58   ar
    61    61    60    1
    62    62     4   ar
    63    63    62    1
    64    64    63    1
    65    65    63    1
    66    66    63    1
    67    67     8    1
    68    68    67    1
    69    69    67    1
    70    70     9    1
    71    71    70    1
    72    72    70    1
    73    73     9    1
    74    74    73    1
    75    75    73    1
    76    76    73    1
    77    77    76   ar
    78    78    77    1
    79    79    77   ar
    80    80    79    1
    81    81    79   ar
    82    82    81    1
    83    83     5   ar
    84    84    83    1
    85    85    84    1
    86    86    84    1
    87    87    84    1
    88    88     9    1
    89    89    88    1
    90    90    88    1
    91    91     6    1
    92    92    91    1
    93    93    91    1
    94    18    20   ar
    95    25    28    1
    96    39    41   ar
    97    46    49    1
    98    52    55    1
    99    60    62   ar
   100    67    70    1
   101    81    83   ar
   102    88    91    1
   103    94    98    1
   104    95   101    1
   105    96   101    1
   106    97   101    1
   107    99    94    2
   108   100    94    2
   109   101    94    1
   110   102   106    2
   111   103   109    1
   112   104   109    1
   113   105   109    1
   114   107   102    1
   115   108   102    2
   116   109   102    1
@<TRIPOS>SUBSTRUCTURE
     1 RES1        1 GROUP             0 ****  ****    0  
     2 RES2       94 GROUP             0 ****  ****    0  
     3 RES3      102 GROUP             0 ****  ****    0  
@<TRIPOS>CRYSIN
    9.4620   15.0310   16.1770  106.1570  102.7300   91.1410     2     1
