@<TRIPOS>MOLECULE
KAFWAQ
    83    88     5     0     0
SMALL
USER_CHARGES
****
Generated from the CSD

@<TRIPOS>ATOM
     1 Fe1      4.4271   9.2865   9.9598   Fe        1 RES1   2.0000
     2 S1       4.0838   4.5411  14.2300   S.3       1 RES1   0.0000
     3 N1       5.7388   9.9957  11.2789   N.ar      1 RES1   0.0000
     4 N2       4.4086   7.8714  11.2077   N.ar      1 RES1   0.0000
     5 N3       3.1222   8.0895   9.0580   N.ar      1 RES1   0.0000
     6 C1       6.4074  11.1672  11.2238   C.ar      1 RES1   0.0000
     7 H1       6.2458  11.7453  10.5135   H         1 RES1   0.0000
     8 C2       7.3320  11.5360  12.1919   C.ar      1 RES1   0.0000
     9 H2       7.7731  12.3527  12.1275   H         1 RES1   0.0000
    10 C3       7.5933  10.7040  13.2419   C.ar      1 RES1   0.0000
    11 H3       8.2118  10.9437  13.8931   H         1 RES1   0.0000
    12 C4       6.9192   9.4891  13.3252   C.ar      1 RES1   0.0000
    13 H4       7.0819   8.9048  14.0288   H         1 RES1   0.0000
    14 C5       5.9999   9.1660  12.3396   C.ar      1 RES1   0.0000
    15 C6       5.1945   7.9314  12.3222   C.ar      1 RES1   0.0000
    16 C7       5.1520   6.9396  13.2715   C.ar      1 RES1   0.0000
    17 H5       5.6988   6.9866  14.0220   H         1 RES1   0.0000
    18 C8       4.2795   5.8634  13.1023   C.ar      1 RES1   0.0000
    19 C9       3.4666   5.8175  11.9542   C.ar      1 RES1   0.0000
    20 H6       2.8664   5.1181  11.8267   H         1 RES1   0.0000
    21 C10      3.5739   6.8189  11.0251   C.ar      1 RES1   0.0000
    22 C11      2.8393   6.9396   9.7455   C.ar      1 RES1   0.0000
    23 C12      1.9573   5.9879   9.2567   C.ar      1 RES1   0.0000
    24 H7       1.7802   5.2156   9.7428   H         1 RES1   0.0000
    25 C13      1.3425   6.2020   8.0295   C.ar      1 RES1   0.0000
    26 H8       0.7508   5.5734   7.6831   H         1 RES1   0.0000
    27 C14      1.6188   7.3625   7.3339   C.ar      1 RES1   0.0000
    28 H9       1.2175   7.5252   6.5109   H         1 RES1   0.0000
    29 C15      2.5077   8.2752   7.8724   C.ar      1 RES1   0.0000
    30 H10      2.6875   9.0536   7.3957   H         1 RES1   0.0000
    31 C16      5.1957   4.9381  15.5689   C.3       1 RES1   0.0000
    32 H11      5.1342   4.2620  16.2469   H         1 RES1   0.0000
    33 H12      4.9554   5.7897  15.9421   H         1 RES1   0.0000
    34 H13      6.0961   4.9781  15.2372   H         1 RES1   0.0000
    35 S2       4.2985  14.1794   5.8351   S.3       1 RES1   0.0000
    36 N4       2.9545  10.3688  10.7297   N.ar      1 RES1   0.0000
    37 N5       4.4263  10.7116   8.7290   N.ar      1 RES1   0.0000
    38 N6       5.8955   8.6794   8.7827   N.ar      1 RES1   0.0000
    39 C17      2.1870  10.0649  11.7998   C.ar      1 RES1   0.0000
    40 H14      2.3501   9.2730  12.2590   H         1 RES1   0.0000
    41 C18      1.1669  10.8860  12.2349   C.ar      1 RES1   0.0000
    42 H15      0.6450  10.6341  12.9613   H         1 RES1   0.0000
    43 C19      0.9250  12.0728  11.5971   C.ar      1 RES1   0.0000
    44 H16      0.2468  12.6375  11.8925   H         1 RES1   0.0000
    45 C20      1.7082  12.4173  10.5028   C.ar      1 RES1   0.0000
    46 H17      1.5756  13.2265  10.0650   H         1 RES1   0.0000
    47 C21      2.6901  11.5395  10.0718   C.ar      1 RES1   0.0000
    48 C22      3.5502  11.7383   8.8781   C.ar      1 RES1   0.0000
    49 C23      3.5046  12.7862   7.9811   C.ar      1 RES1   0.0000
    50 H18      2.8880  13.4733   8.0886   H         1 RES1   0.0000
    51 C24      4.4053  12.7995   6.9043   C.ar      1 RES1   0.0000
    52 C25      5.3167  11.7454   6.7660   C.ar      1 RES1   0.0000
    53 H19      5.9248  11.7366   6.0624   H         1 RES1   0.0000
    54 C26      5.2982  10.7118   7.6951   C.ar      1 RES1   0.0000
    55 C27      6.1785   9.5267   7.7354   C.ar      1 RES1   0.0000
    56 C28      7.2243   9.2679   6.8600   C.ar      1 RES1   0.0000
    57 H20      7.3915   9.8398   6.1456   H         1 RES1   0.0000
    58 C29      8.0148   8.1530   7.0627   C.ar      1 RES1   0.0000
    59 H21      8.7377   7.9809   6.5028   H         1 RES1   0.0000
    60 C30      7.7245   7.2984   8.0980   C.ar      1 RES1   0.0000
    61 H22      8.2405   6.5370   8.2363   H         1 RES1   0.0000
    62 C31      6.6544   7.5778   8.9372   C.ar      1 RES1   0.0000
    63 H23      6.4582   6.9875   9.6287   H         1 RES1   0.0000
    64 C32      5.5403  13.8380   4.5854   C.3       1 RES1   0.0000
    65 H24      5.5614  14.5588   3.9516   H         1 RES1   0.0000
    66 H25      5.3215  13.0201   4.1329   H         1 RES1   0.0000
    67 H26      6.4014  13.7539   5.0016   H         1 RES1   0.0000
    68 Cl1     -0.0568   8.5662   3.4187   Cl        2 RES2   0.0000
    69 O1       1.1046   7.9922   4.0147   O.3       2 RES2  -1.0000
    70 O2      -0.4913   7.7073   2.3780   O.2       2 RES2   0.0000
    71 O3       0.1620   9.8331   2.9218   O.2       2 RES2   0.0000
    72 O4      -1.0215   8.6530   4.3974   O.2       2 RES2   0.0000
    73 Cl2      0.7367   2.5628  11.1571   Cl        3 RES3   0.0000
    74 O5       0.0161   1.7728  12.0482   O.3       3 RES3  -1.0000
    75 O6       0.8496   1.9004   9.9858   O.2       3 RES3   0.0000
    76 O7       0.2282   3.7674  11.0493   O.2       3 RES3   0.0000
    77 O8       2.0044   2.7942  11.6521   O.2       3 RES3   0.0000
    78 O9      -1.9020   0.9055   9.1520   O.3       4 RES4   0.0000
    79 H27     -2.6152   1.2661   9.3990   H         4 RES4   0.0000
    80 H28     -1.3251   1.2838   9.6273   H         4 RES4   0.0000
    81 O10      3.2331   2.4124   8.3007   O.3       5 RES5   0.0000
    82 H29      3.8060   2.9113   8.7143   H         5 RES5   0.0000
    83 H30      2.5450   2.8973   8.3786   H         5 RES5   0.0000
@<TRIPOS>BOND
     1     1     3    1
     2     2    18    1
     3     3     6   ar
     4     4     1    1
     5     5     1    1
     6     6     7    1
     7     8     6   ar
     8     9     8    1
     9    10     8   ar
    10    11    10    1
    11    12    10   ar
    12    13    12    1
    13    14     3   ar
    14    15     4   ar
    15    16    15   ar
    16    17    16    1
    17    18    16   ar
    18    19    18   ar
    19    20    19    1
    20    21     4   ar
    21    22     5   ar
    22    23    22   ar
    23    24    23    1
    24    25    23   ar
    25    26    25    1
    26    27    25   ar
    27    28    27    1
    28    29     5   ar
    29    30    29    1
    30    31     2    1
    31    32    31    1
    32    33    31    1
    33    34    31    1
    34    35    51    1
    35    36     1    1
    36    37     1    1
    37    38     1    1
    38    39    36   ar
    39    40    39    1
    40    41    39   ar
    41    42    41    1
    42    43    41   ar
    43    44    43    1
    44    45    43   ar
    45    46    45    1
    46    47    36   ar
    47    48    37   ar
    48    49    48   ar
    49    50    49    1
    50    51    49   ar
    51    52    51   ar
    52    53    52    1
    53    54    37   ar
    54    55    38   ar
    55    56    55   ar
    56    57    56    1
    57    58    56   ar
    58    59    58    1
    59    60    58   ar
    60    61    60    1
    61    62    38   ar
    62    63    62    1
    63    64    35    1
    64    65    64    1
    65    66    64    1
    66    67    64    1
    67    12    14   ar
    68    14    15    1
    69    19    21   ar
    70    21    22    1
    71    27    29   ar
    72    45    47   ar
    73    47    48    1
    74    52    54   ar
    75    54    55    1
    76    60    62   ar
    77    68    69    1
    78    70    68    2
    79    71    68    2
    80    72    68    2
    81    73    74    1
    82    75    73    2
    83    76    73    2
    84    77    73    2
    85    78    79    1
    86    80    78    1
    87    81    82    1
    88    83    81    1
@<TRIPOS>SUBSTRUCTURE
     1 RES1        1 GROUP             0 ****  ****    0  
     2 RES2       68 GROUP             0 ****  ****    0  
     3 RES3       73 GROUP             0 ****  ****    0  
     4 RES4       78 GROUP             0 ****  ****    0  
     5 RES5       81 GROUP             0 ****  ****    0  
@<TRIPOS>CRYSIN
   10.5834   13.0290   13.6333   90.4210   99.7730   99.0610     2     1
