@<TRIPOS>MOLECULE
KAGPUE
    75    79     2     0     0
SMALL
NO_CHARGES
****
Generated from the CSD

@<TRIPOS>ATOM
     1 Fe1      9.3945  13.8855  14.8550   Fe        1 RES1   0.0000
     2 Cl1      9.9918  12.1882  16.3447   Cl        1 RES1   0.0000
     3 Cl2      7.6638  15.0937  16.2813   Cl        1 RES1   0.0000
     4 O1      10.6134  12.9260  13.3160   O.2       1 RES1   0.0000
     5 N1      10.9003  15.3750  15.3237   N.ar      1 RES1   0.0000
     6 N2       7.6818  13.2282  13.7386   N.ar      1 RES1   0.0000
     7 N3       9.0986  15.5591  13.2904   N.3       1 RES1   0.0000
     8 N4      11.4337  12.2685  11.3138   N.am      1 RES1   0.0000
     9 H1      11.6105  12.5271  10.4906   H         1 RES1   0.0000
    10 C1      12.0236  15.1313  16.0271   C.ar      1 RES1   0.0000
    11 H2      12.1197  14.2862  16.4520   H         1 RES1   0.0000
    12 C2      13.0417  16.0574  16.1571   C.ar      1 RES1   0.0000
    13 H3      13.8224  15.8527  16.6580   H         1 RES1   0.0000
    14 C3      12.8990  17.2891  15.5437   C.ar      1 RES1   0.0000
    15 H4      13.5908  17.9374  15.6015   H         1 RES1   0.0000
    16 C4      11.7399  17.5653  14.8461   C.ar      1 RES1   0.0000
    17 H5      11.6171  18.4115  14.4319   H         1 RES1   0.0000
    18 C5      10.7541  16.5879  14.7595   C.ar      1 RES1   0.0000
    19 C6       9.4429  16.7995  14.0357   C.3       1 RES1   0.0000
    20 H6       8.7276  17.0107  14.6881   H         1 RES1   0.0000
    21 H7       9.5237  17.5590  13.4069   H         1 RES1   0.0000
    22 C7       7.6795  15.5198  12.9077   C.3       1 RES1   0.0000
    23 H8       7.5750  15.9255  12.0108   H         1 RES1   0.0000
    24 H9       7.1553  16.0626  13.5499   H         1 RES1   0.0000
    25 C8       7.1271  14.1147  12.8818   C.ar      1 RES1   0.0000
    26 C9       6.0486  13.7695  12.0703   C.ar      1 RES1   0.0000
    27 H10      5.7039  14.3862  11.4355   H         1 RES1   0.0000
    28 C10      5.4899  12.5139  12.2078   C.ar      1 RES1   0.0000
    29 H11      4.7461  12.2629  11.6744   H         1 RES1   0.0000
    30 C11      6.0208  11.6189  13.1311   C.ar      1 RES1   0.0000
    31 H12      5.6289  10.7636  13.2622   H         1 RES1   0.0000
    32 C12      7.1400  12.0113  13.8565   C.ar      1 RES1   0.0000
    33 H13      7.5342  11.3919  14.4586   H         1 RES1   0.0000
    34 C13     10.0111  15.5210  12.1135   C.3       1 RES1   0.0000
    35 H14     10.9316  15.7141  12.4227   H         1 RES1   0.0000
    36 H15      9.7487  16.2439  11.4905   H         1 RES1   0.0000
    37 C14     10.0262  14.2118  11.3521   C.3       1 RES1   0.0000
    38 H16      9.0934  13.9364  11.1666   H         1 RES1   0.0000
    39 H17     10.4776  14.3519  10.4828   H         1 RES1   0.0000
    40 C15     10.7276  13.0978  12.0946   C.2       1 RES1   0.0000
    41 C16     11.9200  10.9853  11.7353   C.ar      1 RES1   0.0000
    42 C17     12.9984  10.8871  12.6196   C.ar      1 RES1   0.0000
    43 C18     13.4245   9.6046  12.9950   C.ar      1 RES1   0.0000
    44 H18     14.1447   9.5113  13.6065   H         1 RES1   0.0000
    45 C19     12.8099   8.4742  12.4861   C.ar      1 RES1   0.0000
    46 H19     13.1092   7.6122  12.7529   H         1 RES1   0.0000
    47 C20     11.7579   8.5923  11.5873   C.ar      1 RES1   0.0000
    48 H20     11.3566   7.8092  11.2295   H         1 RES1   0.0000
    49 C21     11.2801   9.8493  11.2015   C.ar      1 RES1   0.0000
    50 C22     13.7308  12.1004  13.1673   C.3       1 RES1   0.0000
    51 H21     13.2829  12.9226  12.8142   H         1 RES1   0.0000
    52 C23     13.6804  12.1458  14.6966   C.3       1 RES1   0.0000
    53 H22     12.7487  12.0901  14.9947   H         1 RES1   0.0000
    54 H23     14.0737  12.9854  15.0120   H         1 RES1   0.0000
    55 H24     14.1868  11.3904  15.0623   H         1 RES1   0.0000
    56 C24     15.1908  12.1034  12.6831   C.3       1 RES1   0.0000
    57 H25     15.6276  11.2691  12.9572   H         1 RES1   0.0000
    58 H26     15.6645  12.8655  13.0783   H         1 RES1   0.0000
    59 H27     15.2105  12.1772  11.7059   H         1 RES1   0.0000
    60 C25     10.0640   9.9972  10.2973   C.3       1 RES1   0.0000
    61 H28     10.2329  10.7636   9.6778   H         1 RES1   0.0000
    62 C26      9.7776   8.7575   9.4455   C.3       1 RES1   0.0000
    63 H29     10.5776   8.5246   8.9295   H         1 RES1   0.0000
    64 H30      9.0368   8.9459   8.8321   H         1 RES1   0.0000
    65 H31      9.5355   8.0091  10.0300   H         1 RES1   0.0000
    66 C27      8.8203  10.3371  11.1432   C.3       1 RES1   0.0000
    67 H32      8.6092   9.5827  11.7326   H         1 RES1   0.0000
    68 H33      8.0592  10.5108  10.5504   H         1 RES1   0.0000
    69 H34      9.0013  11.1334  11.6838   H         1 RES1   0.0000
    70 N5       9.4483   6.8394  13.9065   N.1       2 RES2   0.0000
    71 C28     10.0516   7.6248  14.4762   C.1       2 RES2   0.0000
    72 C29     10.8299   8.6053  15.2292   C.3       2 RES2   0.0000
    73 H35     10.4158   8.7474  16.1062   H         2 RES2   0.0000
    74 H36     10.8526   9.4528  14.7369   H         2 RES2   0.0000
    75 H37     11.7434   8.2733  15.3500   H         2 RES2   0.0000
@<TRIPOS>BOND
     1     1     2    1
     2     3     1    1
     3     4     1    1
     4     5     1    1
     5     6     1    1
     6     7     1    1
     7     8     9    1
     8    10     5   ar
     9    11    10    1
    10    12    10   ar
    11    13    12    1
    12    14    12   ar
    13    15    14    1
    14    16    14   ar
    15    17    16    1
    16    18     5   ar
    17    19     7    1
    18    20    19    1
    19    21    19    1
    20    22     7    1
    21    23    22    1
    22    24    22    1
    23    25     6   ar
    24    26    25   ar
    25    27    26    1
    26    28    26   ar
    27    29    28    1
    28    30    28   ar
    29    31    30    1
    30    32     6   ar
    31    33    32    1
    32    34     7    1
    33    35    34    1
    34    36    34    1
    35    37    34    1
    36    38    37    1
    37    39    37    1
    38    40     4    2
    39    41     8    1
    40    42    41   ar
    41    43    42   ar
    42    44    43    1
    43    45    43   ar
    44    46    45    1
    45    47    45   ar
    46    48    47    1
    47    49    41   ar
    48    50    42    1
    49    51    50    1
    50    52    50    1
    51    53    52    1
    52    54    52    1
    53    55    52    1
    54    56    50    1
    55    57    56    1
    56    58    56    1
    57    59    56    1
    58    60    49    1
    59    61    60    1
    60    62    60    1
    61    63    62    1
    62    64    62    1
    63    65    62    1
    64    66    60    1
    65    67    66    1
    66    68    66    1
    67    69    66    1
    68     8    40   am
    69    16    18   ar
    70    18    19    1
    71    22    25    1
    72    30    32   ar
    73    37    40    1
    74    47    49   ar
    75    70    71    3
    76    71    72    1
    77    72    73    1
    78    74    72    1
    79    75    72    1
@<TRIPOS>SUBSTRUCTURE
     1 RES1        1 GROUP             0 ****  ****    0  
     2 RES2       70 GROUP             0 ****  ****    0  
@<TRIPOS>CRYSIN
   13.1579   14.2791   15.7210   90.0000   90.0000   90.0000    19     1
