@<TRIPOS>MOLECULE
KAHNAK
    95   100     3     0     0
SMALL
USER_CHARGES
****
Generated from the CSD

@<TRIPOS>ATOM
     1 Fe1      6.2784   5.9459   2.1247   Fe        1 RES1   2.0000
     2 O1       7.1799   7.7676   2.7447   O.3       1 RES1   0.0000
     3 O2       5.3734   4.1345   1.4654   O.3       1 RES1   0.0000
     4 N1       7.9855   4.8522   2.9137   N.ar      1 RES1   0.0000
     5 N2       5.7212   5.4871   4.1641   N.2       1 RES1   0.0000
     6 N3       4.6358   5.6686   4.9917   N.2       1 RES1   0.0000
     7 N4       6.2305   4.6421   6.1182   N.pl3     1 RES1   0.0000
     8 N5       6.9981   4.0199   7.1231   N.3       1 RES1   0.0000
     9 N6       4.4692   4.3939   8.3875   N.ar      1 RES1   0.0000
    10 N7       4.5750   7.0364   1.3400   N.ar      1 RES1   0.0000
    11 N8       6.8359   6.4078   0.0873   N.2       1 RES1   0.0000
    12 N9       7.9403   6.2606  -0.7248   N.2       1 RES1   0.0000
    13 N10      6.3519   7.3109  -1.8392   N.pl3     1 RES1   0.0000
    14 N11      5.5974   7.9665  -2.8447   N.3       1 RES1   0.0000
    15 N12      8.1688   7.6928  -4.0345   N.ar      1 RES1   0.0000
    16 C1       9.0826   4.5745   2.2188   C.ar      1 RES1   0.0000
    17 C2      10.1577   3.9133   2.7717   C.ar      1 RES1   0.0000
    18 C3      10.1033   3.5321   4.0840   C.ar      1 RES1   0.0000
    19 C4       8.9792   3.7955   4.8291   C.ar      1 RES1   0.0000
    20 C5       7.9316   4.4814   4.2219   C.ar      1 RES1   0.0000
    21 C6       6.6613   4.8601   4.8494   C.2       1 RES1   0.0000
    22 C7       4.9624   5.1450   6.1656   C.2       1 RES1   0.0000
    23 C8       4.0389   5.0869   7.3188   C.ar      1 RES1   0.0000
    24 C9       2.7890   5.6725   7.2514   C.ar      1 RES1   0.0000
    25 C10      1.9251   5.5572   8.3160   C.ar      1 RES1   0.0000
    26 C11      2.3774   4.8530   9.4321   C.ar      1 RES1   0.0000
    27 C12      3.6257   4.2952   9.4292   C.ar      1 RES1   0.0000
    28 C13      3.4706   7.3196   2.0399   C.ar      1 RES1   0.0000
    29 C14      2.3961   7.9697   1.5016   C.ar      1 RES1   0.0000
    30 C15      2.4693   8.3708   0.1852   C.ar      1 RES1   0.0000
    31 C16      3.5985   8.0986  -0.5580   C.ar      1 RES1   0.0000
    32 C17      4.6289   7.4398   0.0464   C.ar      1 RES1   0.0000
    33 C18      5.8956   7.0515  -0.5882   C.2       1 RES1   0.0000
    34 C19      7.6284   6.8080  -1.8884   C.2       1 RES1   0.0000
    35 C20      8.5729   6.9441  -3.0140   C.ar      1 RES1   0.0000
    36 C21      9.8193   6.3807  -2.9486   C.ar      1 RES1   0.0000
    37 C22     10.7172   6.6274  -3.9767   C.ar      1 RES1   0.0000
    38 C23     10.3226   7.4119  -5.0190   C.ar      1 RES1   0.0000
    39 C24      9.0421   7.9101  -5.0092   C.ar      1 RES1   0.0000
    40 H1       9.1271   4.8410   1.3085   H         1 RES1   0.0000
    41 H2       7.3976   8.3708   2.2010   H         1 RES1   0.0000
    42 H3       7.7751   7.8536   3.2872   H         1 RES1   0.0000
    43 H4      10.9281   3.7239   2.2486   H         1 RES1   0.0000
    44 H5       5.3399   3.5966   2.1279   H         1 RES1   0.0000
    45 H6       4.7940   4.2093   0.8893   H         1 RES1   0.0000
    46 H7      10.8430   3.0857   4.4813   H         1 RES1   0.0000
    47 H8       8.9196   3.5170   5.7359   H         1 RES1   0.0000
    48 H9       6.4470   3.7048   7.7748   H         1 RES1   0.0000
    49 H10      7.5762   4.6254   7.4827   H         1 RES1   0.0000
    50 H11      2.5288   6.1531   6.4759   H         1 RES1   0.0000
    51 H12      1.0561   5.9399   8.2925   H         1 RES1   0.0000
    52 H13      1.8179   4.7607  10.1950   H         1 RES1   0.0000
    53 H14      4.9828   7.3897  -3.1887   H         1 RES1   0.0000
    54 H15      6.1545   8.2466  -3.5063   H         1 RES1   0.0000
    55 H16      3.9114   3.8162  10.1981   H         1 RES1   0.0000
    56 H17      3.4318   7.0571   2.9537   H         1 RES1   0.0000
    57 H18      1.6190   8.1400   2.0199   H         1 RES1   0.0000
    58 H19      1.7414   8.8347  -0.2096   H         1 RES1   0.0000
    59 H20      3.6580   8.3636  -1.4673   H         1 RES1   0.0000
    60 H21     10.0642   5.8309  -2.2137   H         1 RES1   0.0000
    61 H22     11.5913   6.2566  -3.9541   H         1 RES1   0.0000
    62 H23     10.9179   7.6085  -5.7327   H         1 RES1   0.0000
    63 H24      8.7649   8.4424  -5.7454   H         1 RES1   0.0000
    64 S1       5.2477   1.2428   7.2362   S.3       2 RES2   0.0000
    65 N13      0.9625   0.3422   4.5036   N.1       2 RES2   0.0000
    66 N14      4.6205   2.4030   3.5657   N.1       2 RES2   0.0000
    67 N15      0.1616   1.4609   7.4989   N.1       2 RES2   0.0000
    68 N16      3.3791   0.6127  10.2023   N.1       2 RES2   0.0000
    69 C25      3.5849   1.1792   6.7268   C.2       2 RES2   0.0000
    70 C26      3.1988   1.2707   5.3630   C.2       2 RES2   0.0000
    71 C27      1.9506   0.7838   4.9104   C.1       2 RES2   0.0000
    72 C28      4.0083   1.9033   4.3880   C.1       2 RES2   0.0000
    73 C29      2.6665   1.0694   7.7736   C.2       2 RES2  -1.0000
    74 C30      1.2857   1.3018   7.6094   C.1       2 RES2   0.0000
    75 C31      3.0883   0.8068   9.1088   C.1       2 RES2   0.0000
    76 C32      6.2446   0.6652   5.8632   C.3       2 RES2   0.0000
    77 H25      6.5575   1.4331   5.3420   H         2 RES2   0.0000
    78 H26      5.7038   0.0796   5.2912   H         2 RES2   0.0000
    79 H27      7.0150   0.1663   6.2059   H         2 RES2   0.0000
    80 S2       7.3024  10.9013  -3.0804   S.3       3 RES3   0.0000
    81 N17     11.5658  11.5361  -0.2677   N.1       3 RES3   0.0000
    82 N18      7.8891   9.4776   0.5818   N.1       3 RES3   0.0000
    83 N19     12.3651  10.3640  -3.2637   N.1       3 RES3   0.0000
    84 N20      9.2938  11.9061  -5.8912   N.1       3 RES3   0.0000
    85 C33      8.9554  10.8605  -2.5300   C.2       3 RES3   0.0000
    86 C34      9.3278  10.6687  -1.1723   C.2       3 RES3   0.0000
    87 C35     10.5675  11.1167  -0.6879   C.1       3 RES3   0.0000
    88 C36      8.5047  10.0187  -0.2150   C.1       3 RES3   0.0000
    89 C37      9.8992  11.0292  -3.5438   C.2       3 RES3  -1.0000
    90 C38     11.2614  10.6608  -3.3866   C.1       3 RES3   0.0000
    91 C39      9.5421  11.5098  -4.8405   C.1       3 RES3   0.0000
    92 C40      6.2718  11.3117  -1.6741   C.3       3 RES3   0.0000
    93 H28      6.7769  11.8798  -1.0544   H         3 RES3   0.0000
    94 H29      6.0014  10.4889  -1.2164   H         3 RES3   0.0000
    95 H30      5.4759  11.7923  -1.9818   H         3 RES3   0.0000
@<TRIPOS>BOND
     1     1     2    1
     2     2    41    1
     3     3     1    1
     4     4     1    1
     5     5     1    1
     6     6     5    1
     7     7     8    1
     8     8    48    1
     9     9    23   ar
    10    10     1    1
    11    11     1    1
    12    12    11    1
    13    13    14    1
    14    14    53    1
    15    15    35   ar
    16    16     4   ar
    17    17    16   ar
    18    18    17   ar
    19    19    18   ar
    20    20     4   ar
    21    21     5    2
    22    22     6    2
    23    23    22    1
    24    24    23   ar
    25    25    24   ar
    26    26    25   ar
    27    27     9   ar
    28    28    10   ar
    29    29    28   ar
    30    30    29   ar
    31    31    30   ar
    32    32    10   ar
    33    33    11    2
    34    34    12    2
    35    35    34    1
    36    36    35   ar
    37    37    36   ar
    38    38    37   ar
    39    39    15   ar
    40    40    16    1
    41    42     2    1
    42    43    17    1
    43    44     3    1
    44    45     3    1
    45    46    18    1
    46    47    19    1
    47    49     8    1
    48    50    24    1
    49    51    25    1
    50    52    26    1
    51    54    14    1
    52    55    27    1
    53    56    28    1
    54    57    29    1
    55    58    30    1
    56    59    31    1
    57    60    36    1
    58    61    37    1
    59    62    38    1
    60    63    39    1
    61     7    21    1
    62     7    22    1
    63    13    33    1
    64    13    34    1
    65    19    20   ar
    66    20    21    1
    67    26    27   ar
    68    31    32   ar
    69    32    33    1
    70    38    39   ar
    71    64    69    1
    72    65    71    3
    73    66    72    3
    74    67    74    3
    75    68    75    3
    76    69    70    2
    77    70    71    1
    78    72    70    1
    79    73    69    1
    80    74    73    1
    81    75    73    1
    82    76    64    1
    83    77    76    1
    84    78    76    1
    85    79    76    1
    86    80    85    1
    87    81    87    3
    88    82    88    3
    89    83    90    3
    90    84    91    3
    91    85    86    2
    92    86    87    1
    93    88    86    1
    94    89    85    1
    95    90    89    1
    96    91    89    1
    97    92    80    1
    98    93    92    1
    99    94    92    1
   100    95    92    1
@<TRIPOS>SUBSTRUCTURE
     1 RES1        1 GROUP             0 ****  ****    0  
     2 RES2       64 GROUP             0 ****  ****    0  
     3 RES3       80 GROUP             0 ****  ****    0  
@<TRIPOS>CRYSIN
   17.0060    7.9570   31.7600   90.0000   90.0000   90.0000    29     1
