@<TRIPOS>MOLECULE
KAKTEV
    91    94     1     0     0
SMALL
NO_CHARGES
****
Generated from the CSD

@<TRIPOS>ATOM
     1 I1       5.8051   5.4327   9.8665   I         1 RES1   0.0000
     2 Fe1      4.3956   6.4320   7.8779   Fe        1 RES1   0.0000
     3 O1       7.4633  -0.7410   0.6003   O.3       1 RES1   0.0000
     4 O2      -3.1836  -0.6278  10.7234   O.3       1 RES1   0.0000
     5 N1       5.4129   4.2335   6.0786   N.1       1 RES1   0.0000
     6 N2       6.7394   0.1557   1.3692   N.2       1 RES1   0.0000
     7 N3       2.1731   4.4870   8.5302   N.1       1 RES1   0.0000
     8 N4      -2.0654   0.2637  10.7392   N.2       1 RES1   0.0000
     9 C1       5.0666   5.0697   6.7404   C.1       1 RES1   0.0000
    10 C2       5.8308   3.2404   5.2089   C.ar      1 RES1   0.0000
    11 C3       7.0107   2.5098   5.5335   C.ar      1 RES1   0.0000
    12 C4       7.4101   1.5257   4.6306   C.ar      1 RES1   0.0000
    13 C5       6.7401   1.2761   3.4789   C.ar      1 RES1   0.0000
    14 C6       5.5331   1.9823   3.2126   C.ar      1 RES1   0.0000
    15 C7       5.0606   2.9561   4.0823   C.ar      1 RES1   0.0000
    16 C8       7.7706   2.7876   6.8176   C.3       1 RES1   0.0000
    17 C9       3.7839   3.6881   3.8271   C.3       1 RES1   0.0000
    18 C10      7.2763   0.3177   2.5162   C.2       1 RES1   0.0000
    19 C11      2.9863   5.2537   8.2955   C.1       1 RES1   0.0000
    20 C12      1.1642   3.5453   8.7949   C.ar      1 RES1   0.0000
    21 C13      0.2486   3.2777   7.7928   C.ar      1 RES1   0.0000
    22 C14     -0.7475   2.3490   8.1095   C.ar      1 RES1   0.0000
    23 C15     -0.8187   1.7598   9.3511   C.ar      1 RES1   0.0000
    24 C16      0.1141   2.0364  10.3059   C.ar      1 RES1   0.0000
    25 C17      1.1625   2.9446  10.0475   C.ar      1 RES1   0.0000
    26 C18      0.3033   3.9364   6.4615   C.3       1 RES1   0.0000
    27 C19      2.1858   3.3048  11.0890   C.3       1 RES1   0.0000
    28 C20     -1.9426   0.8477   9.6190   C.2       1 RES1   0.0000
    29 H1       8.1680   0.9944   4.8402   H         1 RES1   0.0000
    30 H2       5.0441   1.7868   2.4185   H         1 RES1   0.0000
    31 H3       7.7872   2.0081   7.3438   H         1 RES1   0.0000
    32 H4       8.6629   3.0475   6.5954   H         1 RES1   0.0000
    33 H5       7.3455   3.4939   7.2824   H         1 RES1   0.0000
    34 H6       3.9607   4.6195   3.7499   H         1 RES1   0.0000
    35 H7       3.3931   3.3729   3.0220   H         1 RES1   0.0000
    36 H8       3.1837   3.5415   4.5503   H         1 RES1   0.0000
    37 H9       8.0482  -0.1917   2.7462   H         1 RES1   0.0000
    38 H10     -1.3991   2.1303   7.4604   H         1 RES1   0.0000
    39 H11      0.0665   1.6080  11.1536   H         1 RES1   0.0000
    40 H12      1.0387   4.5256   6.4237   H         1 RES1   0.0000
    41 H13      0.3956   3.2675   5.7808   H         1 RES1   0.0000
    42 H14     -0.5049   4.4136   6.3134   H         1 RES1   0.0000
    43 H15      2.0234   2.7992  11.8799   H         1 RES1   0.0000
    44 H16      3.0540   3.1015  10.7613   H         1 RES1   0.0000
    45 H17      2.1289   4.2297  11.2875   H         1 RES1   0.0000
    46 H18     -2.5997   0.7101   8.9446   H         1 RES1   0.0000
    47 I1B      2.9862   7.4313   5.8894   I         1 RES1   0.0000
    48 C1B      3.7247   7.7943   9.0155   C.1       1 RES1   0.0000
    49 N1B      3.3784   8.6305   9.6772   N.1       1 RES1   0.0000
    50 C2B      2.9605   9.6236  10.5470   C.ar      1 RES1   0.0000
    51 C3B      1.7806  10.3542  10.2224   C.ar      1 RES1   0.0000
    52 C4B      1.3812  11.3383  11.1252   C.ar      1 RES1   0.0000
    53 C5B      2.0511  11.5879  12.2770   C.ar      1 RES1   0.0000
    54 C6B      3.2582  10.8817  12.5432   C.ar      1 RES1   0.0000
    55 C7B      3.7307   9.9079  11.6735   C.ar      1 RES1   0.0000
    56 C9B      5.0073   9.1759  11.9288   C.3       1 RES1   0.0000
    57 H6B      4.8305   8.2445  12.0060   H         1 RES1   0.0000
    58 H7B      5.3982   9.4911  12.7339   H         1 RES1   0.0000
    59 H8B      5.6076   9.3225  11.2056   H         1 RES1   0.0000
    60 H2B      3.7472  11.0772  13.3373   H         1 RES1   0.0000
    61 C10B     1.5149  12.5463  13.2396   C.2       1 RES1   0.0000
    62 N2B      2.0518  12.7083  14.3867   N.2       1 RES1   0.0000
    63 O1B      1.3280  13.6050  15.1556   O.3       1 RES1   0.0000
    64 H9B      0.7431  13.0557  13.0096   H         1 RES1   0.0000
    65 H1B      0.6232  11.8696  10.9157   H         1 RES1   0.0000
    66 C8B      1.0206  10.0764   8.9383   C.3       1 RES1   0.0000
    67 H3B      1.0040  10.8559   8.4121   H         1 RES1   0.0000
    68 H4B      0.1284   9.8165   9.1605   H         1 RES1   0.0000
    69 H5B      1.4458   9.3701   8.4735   H         1 RES1   0.0000
    70 C11B     5.8050   7.6103   7.4604   C.1       1 RES1   0.0000
    71 N3B      6.6181   8.3770   7.2256   N.1       1 RES1   0.0000
    72 C12B     7.6270   9.3187   6.9609   C.ar      1 RES1   0.0000
    73 C13B     8.5427   9.5863   7.9630   C.ar      1 RES1   0.0000
    74 C14B     9.5387  10.5150   7.6463   C.ar      1 RES1   0.0000
    75 C15B     9.6100  11.1042   6.4048   C.ar      1 RES1   0.0000
    76 C16B     8.6772  10.8276   5.4500   C.ar      1 RES1   0.0000
    77 C17B     7.6288   9.9194   5.7083   C.ar      1 RES1   0.0000
    78 C19B     6.6054   9.5592   4.6669   C.3       1 RES1   0.0000
    79 H15B     6.7679  10.0648   3.8759   H         1 RES1   0.0000
    80 H16B     5.7373   9.7625   4.9946   H         1 RES1   0.0000
    81 H17B     6.6624   8.6343   4.4684   H         1 RES1   0.0000
    82 H11B     8.7248  11.2560   4.6023   H         1 RES1   0.0000
    83 C20B    10.7339  12.0163   6.1369   C.2       1 RES1   0.0000
    84 N4B     10.8567  12.6003   5.0167   N.2       1 RES1   0.0000
    85 O2B     11.9749  13.4918   5.0324   O.3       1 RES1   0.0000
    86 H18B    11.3909  12.1539   6.8113   H         1 RES1   0.0000
    87 H10B    10.1904  10.7337   8.2955   H         1 RES1   0.0000
    88 C18B     8.4880   8.9276   9.2944   C.3       1 RES1   0.0000
    89 H12B     7.7525   8.3384   9.3322   H         1 RES1   0.0000
    90 H13B     8.3957   9.5965   9.9750   H         1 RES1   0.0000
    91 H14B     9.2961   8.4504   9.4425   H         1 RES1   0.0000
@<TRIPOS>BOND
     1     1     2    1
     2     2     9    1
     3     3     6    1
     4     4     8    1
     5     5     9    3
     6     6    18    2
     7     7    19    3
     8     8    28    2
     9    10     5    1
    10    11    10   ar
    11    12    11   ar
    12    13    12   ar
    13    14    13   ar
    14    15    10   ar
    15    16    11    1
    16    17    15    1
    17    18    13    1
    18    19     2    1
    19    20     7    1
    20    21    20   ar
    21    22    21   ar
    22    23    22   ar
    23    24    23   ar
    24    25    20   ar
    25    26    21    1
    26    27    25    1
    27    28    23    1
    28    29    12    1
    29    30    14    1
    30    31    16    1
    31    32    16    1
    32    33    16    1
    33    34    17    1
    34    35    17    1
    35    36    17    1
    36    37    18    1
    37    38    22    1
    38    39    24    1
    39    40    26    1
    40    41    26    1
    41    42    26    1
    42    43    27    1
    43    44    27    1
    44    45    27    1
    45    46    28    1
    46    47     2    1
    47    48     2    1
    48    49    48    3
    49    50    49    1
    50    51    50   ar
    51    52    51   ar
    52    53    52   ar
    53    54    53   ar
    54    55    50   ar
    55    56    55    1
    56    57    56    1
    57    58    56    1
    58    59    56    1
    59    60    54    1
    60    61    53    1
    61    62    61    2
    62    63    62    1
    63    64    61    1
    64    65    52    1
    65    66    51    1
    66    67    66    1
    67    68    66    1
    68    69    66    1
    69    70     2    1
    70    71    70    3
    71    72    71    1
    72    73    72   ar
    73    74    73   ar
    74    75    74   ar
    75    76    75   ar
    76    77    72   ar
    77    78    77    1
    78    79    78    1
    79    80    78    1
    80    81    78    1
    81    82    76    1
    82    83    75    1
    83    84    83    2
    84    85    84    1
    85    86    83    1
    86    87    74    1
    87    88    73    1
    88    89    88    1
    89    90    88    1
    90    91    88    1
    91    14    15   ar
    92    24    25   ar
    93    54    55   ar
    94    76    77   ar
@<TRIPOS>SUBSTRUCTURE
     1 RES1        1 GROUP             0 ****  ****    0  
@<TRIPOS>CRYSIN
   12.4230   12.8640   16.1690   90.0000  102.9800   90.0000   231     1
