@<TRIPOS>MOLECULE
KAKTIZ
   135   138     1     0     0
SMALL
NO_CHARGES
****
Generated from the CSD

@<TRIPOS>ATOM
     1 I1      10.4451   7.9189   5.8967   I         1 RES1   0.0000
     2 Fe1     11.7856   7.0925   8.0097   Fe        1 RES1   0.0000
     3 O1      17.7669   3.0937   2.0505   O.2       1 RES1   0.0000
     4 O2       6.1263   0.1262  10.4686   O.2       1 RES1   0.0000
     5 N1      13.6598   5.5492   6.2203   N.1       1 RES1   0.0000
     6 N2       9.8546   4.7789   8.3124   N.1       1 RES1   0.0000
     7 C1      12.9313   6.1166   6.8979   C.1       1 RES1   0.0000
     8 C2      14.5233   4.8442   5.3905   C.ar      1 RES1   0.0000
     9 C3      15.1852   5.5378   4.3637   C.ar      1 RES1   0.0000
    10 C4      16.0350   4.7832   3.5819   C.ar      1 RES1   0.0000
    11 C5      16.2037   3.4314   3.7726   C.ar      1 RES1   0.0000
    12 C6      15.5214   2.7817   4.7754   C.ar      1 RES1   0.0000
    13 C7      14.6639   3.4597   5.6228   C.ar      1 RES1   0.0000
    14 C8      17.1065   2.6370   2.9187   C.2       1 RES1   0.0000
    15 C9      15.0026   7.0343   4.1923   C.3       1 RES1   0.0000
    16 C10     15.0432   7.4585   2.7137   C.3       1 RES1   0.0000
    17 C11     16.0301   7.7819   4.9868   C.3       1 RES1   0.0000
    18 C12     13.9579   2.7774   6.7506   C.3       1 RES1   0.0000
    19 C13     14.8635   2.6157   7.8751   C.3       1 RES1   0.0000
    20 C14     13.3637   1.4752   6.3661   C.3       1 RES1   0.0000
    21 C15     10.6190   5.6414   8.1827   C.1       1 RES1   0.0000
    22 C16      8.9282   3.7987   8.6200   C.ar      1 RES1   0.0000
    23 C17      7.7868   3.6853   7.8206   C.ar      1 RES1   0.0000
    24 C18      6.8980   2.7037   8.1859   C.ar      1 RES1   0.0000
    25 C19      7.0986   1.8795   9.2720   C.ar      1 RES1   0.0000
    26 C20      8.2335   2.0171  10.0281   C.ar      1 RES1   0.0000
    27 C21      9.1901   2.9774   9.7462   C.ar      1 RES1   0.0000
    28 C22      6.0592   0.8922   9.6100   C.2       1 RES1   0.0000
    29 C23      7.5308   4.6484   6.6817   C.3       1 RES1   0.0000
    30 C24      6.7184   5.7889   7.1174   C.3       1 RES1   0.0000
    31 C25      6.9108   4.0058   5.4802   C.3       1 RES1   0.0000
    32 C26     10.4556   3.1590  10.5632   C.3       1 RES1   0.0000
    33 C27     10.2632   2.9335  12.0289   C.3       1 RES1   0.0000
    34 C28     11.5395   2.3689  10.0249   C.3       1 RES1   0.0000
    35 H1      16.5252   5.2130   2.8867   H         1 RES1   0.0000
    36 H2      15.6370   1.8455   4.8843   H         1 RES1   0.0000
    37 H3      17.1637   1.6979   3.0741   H         1 RES1   0.0000
    38 H4      14.1467   7.2641   4.5351   H         1 RES1   0.0000
    39 H5      15.9039   7.2726   2.3580   H         1 RES1   0.0000
    40 H6      14.3873   6.9705   2.2299   H         1 RES1   0.0000
    41 H7      14.8635   8.3876   2.6464   H         1 RES1   0.0000
    42 H8      15.9321   7.5592   5.9063   H         1 RES1   0.0000
    43 H9      16.8936   7.5393   4.6889   H         1 RES1   0.0000
    44 H10     15.8964   8.7138   4.8715   H         1 RES1   0.0000
    45 H11     13.2605   3.3477   7.0533   H         1 RES1   0.0000
    46 H12     14.3709   2.1873   8.5864   H         1 RES1   0.0000
    47 H13     15.5324   1.9363   7.5884   H         1 RES1   0.0000
    48 H14     15.2559   3.3704   8.1122   H         1 RES1   0.0000
    49 H15     12.8950   1.1263   7.1190   H         1 RES1   0.0000
    50 H16     12.7697   1.6114   5.6500   H         1 RES1   0.0000
    51 H17     14.0579   0.8851   6.1194   H         1 RES1   0.0000
    52 H18      6.1096   2.5859   7.6653   H         1 RES1   0.0000
    53 H19      8.3681   1.4369  10.7714   H         1 RES1   0.0000
    54 H20      5.2623   0.8993   9.0862   H         1 RES1   0.0000
    55 H21      8.3792   4.9917   6.4174   H         1 RES1   0.0000
    56 H22      7.1082   6.1875   7.8703   H         1 RES1   0.0000
    57 H23      6.6724   6.4201   6.3997   H         1 RES1   0.0000
    58 H24      5.8417   5.4825   7.3160   H         1 RES1   0.0000
    59 H25      6.0443   3.7349   5.6917   H         1 RES1   0.0000
    60 H26      6.8895   4.6640   4.7802   H         1 RES1   0.0000
    61 H27      7.4492   3.2824   5.2095   H         1 RES1   0.0000
    62 H28     10.7099   4.0711  10.4590   H         1 RES1   0.0000
    63 H29      9.5506   3.4767  12.3349   H         1 RES1   0.0000
    64 H30     10.0806   2.0256  12.1843   H         1 RES1   0.0000
    65 H31     11.0683   3.1860  12.4807   H         1 RES1   0.0000
    66 H32     11.3578   1.4511  10.1691   H         1 RES1   0.0000
    67 H33     11.6233   2.5405   9.0974   H         1 RES1   0.0000
    68 H34     12.3465   2.6086  10.4686   H         1 RES1   0.0000
    69 I1B     13.1261   6.2661  10.1226   I         1 RES1   0.0000
    70 C1B     10.6399   8.0684   9.1214   C.1       1 RES1   0.0000
    71 N1B      9.9114   8.6358   9.7990   N.1       1 RES1   0.0000
    72 C2B      9.0478   9.3408  10.6288   C.ar      1 RES1   0.0000
    73 C3B      8.3860   8.6472  11.6557   C.ar      1 RES1   0.0000
    74 C4B      7.5361   9.4018  12.4374   C.ar      1 RES1   0.0000
    75 C5B      7.3674  10.7536  12.2468   C.ar      1 RES1   0.0000
    76 C6B      8.0498  11.4033  11.2440   C.ar      1 RES1   0.0000
    77 C7B      8.9073  10.7253  10.3966   C.ar      1 RES1   0.0000
    78 C12B     9.6132  11.4076   9.2688   C.3       1 RES1   0.0000
    79 C13B     8.7076  11.5693   8.1442   C.3       1 RES1   0.0000
    80 H12B     9.2003  11.9977   7.4330   H         1 RES1   0.0000
    81 H13B     8.0388  12.2487   8.4310   H         1 RES1   0.0000
    82 H14B     8.3153  10.8146   7.9072   H         1 RES1   0.0000
    83 C14B    10.2075  12.7098   9.6533   C.3       1 RES1   0.0000
    84 H15B    10.6761  13.0587   8.9004   H         1 RES1   0.0000
    85 H16B    10.8015  12.5736  10.3693   H         1 RES1   0.0000
    86 H17B     9.5133  13.2999   9.9000   H         1 RES1   0.0000
    87 H11B    10.3107  10.8373   8.9660   H         1 RES1   0.0000
    88 H2B      7.9342  12.3395  11.1351   H         1 RES1   0.0000
    89 C8B      6.4647  11.5480  13.1006   C.2       1 RES1   0.0000
    90 O1B      5.8042  11.0913  13.9689   O.2       1 RES1   0.0000
    91 H3B      6.4075  12.4871  12.9452   H         1 RES1   0.0000
    92 H1B      7.0460   8.9720  13.1327   H         1 RES1   0.0000
    93 C9B      8.5686   7.1507  11.8271   C.3       1 RES1   0.0000
    94 C10B     8.5280   6.7265  13.3057   C.3       1 RES1   0.0000
    95 H5B      7.6673   6.9124  13.6613   H         1 RES1   0.0000
    96 H6B      9.1839   7.2145  13.7895   H         1 RES1   0.0000
    97 H7B      8.7077   5.7974  13.3730   H         1 RES1   0.0000
    98 C11B     7.5411   6.4031  11.0325   C.3       1 RES1   0.0000
    99 H8B      7.6391   6.6258  10.1130   H         1 RES1   0.0000
   100 H9B      6.6776   6.6457  11.3305   H         1 RES1   0.0000
   101 H10B     7.6748   5.4712  11.1479   H         1 RES1   0.0000
   102 H4B      9.4245   6.9209  11.4843   H         1 RES1   0.0000
   103 C15B    12.9522   8.5436   7.8367   C.1       1 RES1   0.0000
   104 N2B     13.7166   9.4061   7.7069   N.1       1 RES1   0.0000
   105 C16B    14.6430  10.3863   7.3993   C.ar      1 RES1   0.0000
   106 C17B    15.7844  10.4997   8.1987   C.ar      1 RES1   0.0000
   107 C18B    16.6732  11.4813   7.8335   C.ar      1 RES1   0.0000
   108 C19B    16.4726  12.3055   6.7474   C.ar      1 RES1   0.0000
   109 C20B    15.3377  12.1679   5.9912   C.ar      1 RES1   0.0000
   110 C21B    14.3811  11.2076   6.2732   C.ar      1 RES1   0.0000
   111 C26B    13.1156  11.0260   5.4562   C.3       1 RES1   0.0000
   112 C27B    13.3080  11.2515   3.9904   C.3       1 RES1   0.0000
   113 H29B    14.0206  10.7083   3.6845   H         1 RES1   0.0000
   114 H30B    13.4906  12.1594   3.8350   H         1 RES1   0.0000
   115 H31B    12.5029  10.9990   3.5387   H         1 RES1   0.0000
   116 C28B    12.0317  11.8161   5.9944   C.3       1 RES1   0.0000
   117 H32B    12.2134  12.7339   5.8503   H         1 RES1   0.0000
   118 H33B    11.9479  11.6445   6.9220   H         1 RES1   0.0000
   119 H34B    11.2247  11.5764   5.5507   H         1 RES1   0.0000
   120 H28B    12.8613  10.1139   5.5603   H         1 RES1   0.0000
   121 H19B    15.2030  12.7481   5.2479   H         1 RES1   0.0000
   122 C22B    17.5120  13.2928   6.4093   C.2       1 RES1   0.0000
   123 O2B     17.4449  14.0588   5.5507   O.2       1 RES1   0.0000
   124 H20B    18.3089  13.2857   6.9332   H         1 RES1   0.0000
   125 H18B    17.4616  11.5991   8.3541   H         1 RES1   0.0000
   126 C23B    16.0404   9.5366   9.3377   C.3       1 RES1   0.0000
   127 C24B    16.8527   8.3961   8.9020   C.3       1 RES1   0.0000
   128 H22B    16.4629   7.9975   8.1490   H         1 RES1   0.0000
   129 H23B    16.8987   7.7649   9.6196   H         1 RES1   0.0000
   130 H24B    17.7295   8.7025   8.7033   H         1 RES1   0.0000
   131 C25B    16.6603  10.1792  10.5391   C.3       1 RES1   0.0000
   132 H25B    17.5269  10.4501  10.3277   H         1 RES1   0.0000
   133 H26B    16.6816   9.5210  11.2392   H         1 RES1   0.0000
   134 H27B    16.1220  10.9026  10.8099   H         1 RES1   0.0000
   135 H21B    15.1920   9.1933   9.6020   H         1 RES1   0.0000
@<TRIPOS>BOND
     1     1     2    1
     2     2     7    1
     3     3    14    2
     4     4    28    2
     5     5     7    3
     6     6    21    3
     7     8     5    1
     8     9     8   ar
     9    10     9   ar
    10    11    10   ar
    11    12    11   ar
    12    13     8   ar
    13    14    11    1
    14    15     9    1
    15    16    15    1
    16    17    15    1
    17    18    13    1
    18    19    18    1
    19    20    18    1
    20    21     2    1
    21    22     6    1
    22    23    22   ar
    23    24    23   ar
    24    25    24   ar
    25    26    25   ar
    26    27    22   ar
    27    28    25    1
    28    29    23    1
    29    30    29    1
    30    31    29    1
    31    32    27    1
    32    33    32    1
    33    34    32    1
    34    35    10    1
    35    36    12    1
    36    37    14    1
    37    38    15    1
    38    39    16    1
    39    40    16    1
    40    41    16    1
    41    42    17    1
    42    43    17    1
    43    44    17    1
    44    45    18    1
    45    46    19    1
    46    47    19    1
    47    48    19    1
    48    49    20    1
    49    50    20    1
    50    51    20    1
    51    52    24    1
    52    53    26    1
    53    54    28    1
    54    55    29    1
    55    56    30    1
    56    57    30    1
    57    58    30    1
    58    59    31    1
    59    60    31    1
    60    61    31    1
    61    62    32    1
    62    63    33    1
    63    64    33    1
    64    65    33    1
    65    66    34    1
    66    67    34    1
    67    68    34    1
    68    69     2    1
    69    70     2    1
    70    71    70    3
    71    72    71    1
    72    73    72   ar
    73    74    73   ar
    74    75    74   ar
    75    76    75   ar
    76    77    72   ar
    77    78    77    1
    78    79    78    1
    79    80    79    1
    80    81    79    1
    81    82    79    1
    82    83    78    1
    83    84    83    1
    84    85    83    1
    85    86    83    1
    86    87    78    1
    87    88    76    1
    88    89    75    1
    89    90    89    2
    90    91    89    1
    91    92    74    1
    92    93    73    1
    93    94    93    1
    94    95    94    1
    95    96    94    1
    96    97    94    1
    97    98    93    1
    98    99    98    1
    99   100    98    1
   100   101    98    1
   101   102    93    1
   102   103     2    1
   103   104   103    3
   104   105   104    1
   105   106   105   ar
   106   107   106   ar
   107   108   107   ar
   108   109   108   ar
   109   110   105   ar
   110   111   110    1
   111   112   111    1
   112   113   112    1
   113   114   112    1
   114   115   112    1
   115   116   111    1
   116   117   116    1
   117   118   116    1
   118   119   116    1
   119   120   111    1
   120   121   109    1
   121   122   108    1
   122   123   122    2
   123   124   122    1
   124   125   107    1
   125   126   106    1
   126   127   126    1
   127   128   127    1
   128   129   127    1
   129   130   127    1
   130   131   126    1
   131   132   131    1
   132   133   131    1
   133   134   131    1
   134   135   126    1
   135    12    13   ar
   136    26    27   ar
   137    76    77   ar
   138   109   110   ar
@<TRIPOS>SUBSTRUCTURE
     1 RES1        1 GROUP             0 ****  ****    0  
@<TRIPOS>CRYSIN
   12.4230   14.1850   16.0700   90.0000   94.5500   90.0000    14     1
