@<TRIPOS>MOLECULE
KALXON
    79    84     1     0     0
SMALL
NO_CHARGES
****
Generated from the CSD

@<TRIPOS>ATOM
     1 Fe1      1.7904   8.6850   6.0320   Fe        1 RES1   0.0000
     2 S1      -2.8120   9.8906   5.2981   S.2       1 RES1   0.0000
     3 S2       2.9091  13.3491   5.8237   S.2       1 RES1   0.0000
     4 N1      -0.1457   9.4101   5.8960   N.2       1 RES1   0.0000
     5 N2       2.6461  10.6332   6.0035   N.2       1 RES1   0.0000
     6 N3       1.9475   8.3989   3.8617   N.ar      1 RES1   0.0000
     7 N4       3.7786   7.7083   5.7023   N.2       1 RES1   0.0000
     8 N5       1.9408   8.5875   8.2127   N.ar      1 RES1   0.0000
     9 N6       0.9474   6.6318   6.6049   N.2       1 RES1   0.0000
    10 C1      -1.2883   9.6364   5.6467   C.1       1 RES1   0.0000
    11 C2       2.7868  11.7126   5.9028   C.1       1 RES1   0.0000
    12 C3       1.0177   8.7790   2.9434   C.ar      1 RES1   0.0000
    13 C4       1.2154   8.6194   1.6032   C.ar      1 RES1   0.0000
    14 C5       2.4166   8.0478   1.1710   C.ar      1 RES1   0.0000
    15 C6       3.3372   7.6256   2.1041   C.ar      1 RES1   0.0000
    16 C7       3.0842   7.8751   3.4580   C.ar      1 RES1   0.0000
    17 C8       4.0240   7.4689   4.4986   C.2       1 RES1   0.0000
    18 C9       4.7218   7.3572   6.7765   C.3       1 RES1   0.0000
    19 C10      5.7613   6.2763   6.3762   C.3       1 RES1   0.0000
    20 C11      5.3006   8.6238   7.3322   C.3       1 RES1   0.0000
    21 C12      6.3125   9.3086   6.3991   C.3       1 RES1   0.0000
    22 C13      6.7732  10.6346   7.0303   C.3       1 RES1   0.0000
    23 C14      7.3168  10.4736   8.4277   C.3       1 RES1   0.0000
    24 C15      6.2689   9.7757   9.3677   C.3       1 RES1   0.0000
    25 C16      5.8903   8.4381   8.7067   C.3       1 RES1   0.0000
    26 C17      2.3680   9.5421   9.0406   C.ar      1 RES1   0.0000
    27 C18      2.4585   9.4029  10.3785   C.ar      1 RES1   0.0000
    28 C19      2.1209   8.1711  10.9320   C.ar      1 RES1   0.0000
    29 C20      1.6233   7.2019  10.1247   C.ar      1 RES1   0.0000
    30 C21      1.5672   7.4123   8.7639   C.ar      1 RES1   0.0000
    31 C22      0.9859   6.4374   7.8514   C.2       1 RES1   0.0000
    32 C23      0.3217   5.5857   5.7633   C.3       1 RES1   0.0000
    33 C24     -0.7489   6.2183   4.8897   C.3       1 RES1   0.0000
    34 C25      1.3687   4.8226   5.0292   C.3       1 RES1   0.0000
    35 C26      0.7623   3.9231   3.9657   C.3       1 RES1   0.0000
    36 C27      1.7942   2.8930   3.3688   C.3       1 RES1   0.0000
    37 C28      2.5707   2.1574   4.3659   C.3       1 RES1   0.0000
    38 C29      3.2601   3.1773   5.2853   C.3       1 RES1   0.0000
    39 C30      2.2893   4.1247   5.9486   C.3       1 RES1   0.0000
    40 H1       0.2220   9.1591   3.2384   H         1 RES1   0.0000
    41 H2       0.5671   8.8835   0.9903   H         1 RES1   0.0000
    42 H3       2.5925   7.9549   0.2607   H         1 RES1   0.0000
    43 H4       4.1120   7.1831   1.8388   H         1 RES1   0.0000
    44 H5       4.8089   7.0293   4.2653   H         1 RES1   0.0000
    45 H6       4.1848   6.9640   7.4969   H         1 RES1   0.0000
    46 H7       5.4019   5.4044   6.5546   H         1 RES1   0.0000
    47 H8       6.5663   6.3996   6.8862   H         1 RES1   0.0000
    48 H9       5.9615   6.3561   5.4408   H         1 RES1   0.0000
    49 H10      4.5517   9.2476   7.4351   H         1 RES1   0.0000
    50 H11      5.9012   9.4812   5.5369   H         1 RES1   0.0000
    51 H12      7.0764   8.7282   6.2596   H         1 RES1   0.0000
    52 H13      7.4583  11.0292   6.4700   H         1 RES1   0.0000
    53 H14      6.0218  11.2483   7.0555   H         1 RES1   0.0000
    54 H15      7.5438  11.3455   8.7868   H         1 RES1   0.0000
    55 H16      8.1285   9.9411   8.3980   H         1 RES1   0.0000
    56 H17      6.6542   9.6219  10.2459   H         1 RES1   0.0000
    57 H18      5.4832  10.3357   9.4706   H         1 RES1   0.0000
    58 H19      6.6835   7.8824   8.6381   H         1 RES1   0.0000
    59 H20      5.2503   7.9738   9.2693   H         1 RES1   0.0000
    60 H21      2.6176  10.3575   8.6701   H         1 RES1   0.0000
    61 H22      2.7382  10.1080  10.9160   H         1 RES1   0.0000
    62 H23      2.2331   8.0144  11.8422   H         1 RES1   0.0000
    63 H24      1.3243   6.3996  10.4860   H         1 RES1   0.0000
    64 H25      0.6333   5.6496   8.1967   H         1 RES1   0.0000
    65 H26     -0.1282   4.9575   6.3671   H         1 RES1   0.0000
    66 H27     -1.5890   6.2081   5.3539   H         1 RES1   0.0000
    67 H28     -0.8301   5.7206   4.0732   H         1 RES1   0.0000
    68 H29     -0.5051   7.1251   4.6907   H         1 RES1   0.0000
    69 H30      1.9090   5.4856   4.5535   H         1 RES1   0.0000
    70 H31      0.4138   4.4744   3.2453   H         1 RES1   0.0000
    71 H32      0.0168   3.4356   4.3499   H         1 RES1   0.0000
    72 H33      1.3117   2.2546   2.8199   H         1 RES1   0.0000
    73 H34      2.4074   3.3717   2.7879   H         1 RES1   0.0000
    74 H35      3.2341   1.6032   3.9268   H         1 RES1   0.0000
    75 H36      1.9860   1.5829   4.8851   H         1 RES1   0.0000
    76 H37      3.7535   2.7000   5.9714   H         1 RES1   0.0000
    77 H38      3.8967   3.6909   4.7662   H         1 RES1   0.0000
    78 H39      1.7616   3.6256   6.5912   H         1 RES1   0.0000
    79 H40      2.7944   4.7907   6.4403   H         1 RES1   0.0000
@<TRIPOS>BOND
     1     1     4    1
     2     2    10    2
     3     3    11    2
     4     4    10    2
     5     5     1    1
     6     6     1    1
     7     7     1    1
     8     8     1    1
     9     9     1    1
    10    11     5    2
    11    12     6   ar
    12    13    12   ar
    13    14    13   ar
    14    15    14   ar
    15    16     6   ar
    16    17     7    2
    17    18     7    1
    18    19    18    1
    19    20    18    1
    20    21    20    1
    21    22    21    1
    22    23    22    1
    23    24    23    1
    24    25    20    1
    25    26     8   ar
    26    27    26   ar
    27    28    27   ar
    28    29    28   ar
    29    30     8   ar
    30    31     9    2
    31    32     9    1
    32    33    32    1
    33    34    32    1
    34    35    34    1
    35    36    35    1
    36    37    36    1
    37    38    37    1
    38    39    34    1
    39    40    12    1
    40    41    13    1
    41    42    14    1
    42    43    15    1
    43    44    17    1
    44    45    18    1
    45    46    19    1
    46    47    19    1
    47    48    19    1
    48    49    20    1
    49    50    21    1
    50    51    21    1
    51    52    22    1
    52    53    22    1
    53    54    23    1
    54    55    23    1
    55    56    24    1
    56    57    24    1
    57    58    25    1
    58    59    25    1
    59    60    26    1
    60    61    27    1
    61    62    28    1
    62    63    29    1
    63    64    31    1
    64    65    32    1
    65    66    33    1
    66    67    33    1
    67    68    33    1
    68    69    34    1
    69    70    35    1
    70    71    35    1
    71    72    36    1
    72    73    36    1
    73    74    37    1
    74    75    37    1
    75    76    38    1
    76    77    38    1
    77    78    39    1
    78    79    39    1
    79    15    16   ar
    80    16    17    1
    81    24    25    1
    82    29    30   ar
    83    30    31    1
    84    38    39    1
@<TRIPOS>SUBSTRUCTURE
     1 RES1        1 GROUP             0 ****  ****    0  
@<TRIPOS>CRYSIN
   16.7528   16.7528   22.8703   90.0000   90.0000  120.0000   154     1
