@<TRIPOS>MOLECULE
KALXIH
    79    84     1     0     0
SMALL
NO_CHARGES
****
Generated from the CSD

@<TRIPOS>ATOM
     1 Fe1      6.5824   5.8254   6.0786   Fe        1 RES1   0.0000
     2 S1       9.9535   2.4691   5.2784   S.2       1 RES1   0.0000
     3 S2       9.9449   9.2536   5.8045   S.2       1 RES1   0.0000
     4 N1       8.1945   4.4787   5.9534   N.2       1 RES1   0.0000
     5 N2       7.8382   7.5121   6.0149   N.2       1 RES1   0.0000
     6 N3       6.2754   5.8082   3.9162   N.ar      1 RES1   0.0000
     7 N4       4.7443   7.0468   5.7385   N.2       1 RES1   0.0000
     8 N5       6.4181   5.9137   8.2663   N.ar      1 RES1   0.0000
     9 N6       5.2266   4.0870   6.6485   N.2       1 RES1   0.0000
    10 C1       8.9463   3.6419   5.6720   C.1       1 RES1   0.0000
    11 C2       8.7160   8.2521   5.9456   C.1       1 RES1   0.0000
    12 C3       7.0606   5.2027   3.0025   C.ar      1 RES1   0.0000
    13 C4       6.8328   5.2822   1.6382   C.ar      1 RES1   0.0000
    14 C5       5.7381   6.0366   1.2065   C.ar      1 RES1   0.0000
    15 C6       4.9387   6.6407   2.1311   C.ar      1 RES1   0.0000
    16 C7       5.2333   6.4947   3.4890   C.ar      1 RES1   0.0000
    17 C8       4.4030   7.1292   4.5299   C.2       1 RES1   0.0000
    18 C9       3.9475   7.6928   6.8145   C.3       1 RES1   0.0000
    19 C10      2.5107   8.0396   6.4207   C.3       1 RES1   0.0000
    20 C11      4.7810   8.8591   7.3568   C.3       1 RES1   0.0000
    21 C12      4.8586  10.0716   6.4139   C.3       1 RES1   0.0000
    22 C13      5.8532  11.1179   7.0306   C.3       1 RES1   0.0000
    23 C14      5.3960  11.5139   8.3737   C.3       1 RES1   0.0000
    24 C15      5.2800  10.3216   9.3216   C.3       1 RES1   0.0000
    25 C16      4.3463   9.3085   8.7117   C.3       1 RES1   0.0000
    26 C17      7.0255   6.7780   9.0765   C.ar      1 RES1   0.0000
    27 C18      6.8445   6.7794  10.3975   C.ar      1 RES1   0.0000
    28 C19      5.9341   5.8935  10.9776   C.ar      1 RES1   0.0000
    29 C20      5.3150   4.9801  10.1599   C.ar      1 RES1   0.0000
    30 C21      5.5595   5.0221   8.8161   C.ar      1 RES1   0.0000
    31 C22      5.0013   4.0437   7.9032   C.2       1 RES1   0.0000
    32 C23      4.6717   2.9439   5.8292   C.3       1 RES1   0.0000
    33 C24      5.7381   2.3745   4.9635   C.3       1 RES1   0.0000
    34 C25      3.4627   3.4916   5.0777   C.3       1 RES1   0.0000
    35 C26      2.9454   2.4193   4.1000   C.3       1 RES1   0.0000
    36 C27      1.5670   2.8817   3.4262   C.3       1 RES1   0.0000
    37 C28      0.5165   3.2098   4.3879   C.3       1 RES1   0.0000
    38 C29      1.0622   4.3457   5.2810   C.3       1 RES1   0.0000
    39 C30      2.3788   3.9671   5.9708   C.3       1 RES1   0.0000
    40 H1       7.7873   4.7070   3.3029   H         1 RES1   0.0000
    41 H2       7.3893   4.8501   1.0324   H         1 RES1   0.0000
    42 H3       5.5570   6.1247   0.2992   H         1 RES1   0.0000
    43 H4       4.2045   7.1436   1.8616   H         1 RES1   0.0000
    44 H5       3.6304   7.5887   4.2942   H         1 RES1   0.0000
    45 H6       3.8832   7.0381   7.5423   H         1 RES1   0.0000
    46 H7       2.4823   8.9328   6.0713   H         1 RES1   0.0000
    47 H8       1.9450   7.9818   7.1951   H         1 RES1   0.0000
    48 H9       2.2044   7.4225   5.7538   H         1 RES1   0.0000
    49 H10      5.6972   8.5238   7.4555   H         1 RES1   0.0000
    50 H11      3.9800  10.4690   6.3111   H         1 RES1   0.0000
    51 H12      5.1715   9.7927   5.5391   H         1 RES1   0.0000
    52 H13      6.7402  10.7320   7.0877   H         1 RES1   0.0000
    53 H14      5.8983  11.9012   6.4573   H         1 RES1   0.0000
    54 H15      4.5315  11.9474   8.3029   H         1 RES1   0.0000
    55 H16      6.0201  12.1556   8.7460   H         1 RES1   0.0000
    56 H17      6.1544   9.9227   9.4609   H         1 RES1   0.0000
    57 H18      4.9371  10.6121  10.1805   H         1 RES1   0.0000
    58 H19      4.2904   8.5382   9.2965   H         1 RES1   0.0000
    59 H20      3.4594   9.6973   8.6455   H         1 RES1   0.0000
    60 H21      7.6021   7.4066   8.7049   H         1 RES1   0.0000
    61 H22      7.3251   7.3691  10.9319   H         1 RES1   0.0000
    62 H23      5.7497   5.9239  11.8890   H         1 RES1   0.0000
    63 H24      4.7393   4.3414  10.5162   H         1 RES1   0.0000
    64 H25      4.4656   3.3644   8.2435   H         1 RES1   0.0000
    65 H26      4.3647   2.2444   6.4436   H         1 RES1   0.0000
    66 H27      5.7364   2.8254   4.1160   H         1 RES1   0.0000
    67 H28      5.5762   1.4380   4.8287   H         1 RES1   0.0000
    68 H29      6.5925   2.4930   5.3883   H         1 RES1   0.0000
    69 H30      3.7656   4.2561   4.5455   H         1 RES1   0.0000
    70 H31      2.8077   1.5854   4.5774   H         1 RES1   0.0000
    71 H32      3.6070   2.2646   3.4102   H         1 RES1   0.0000
    72 H33      1.7372   3.6592   2.8712   H         1 RES1   0.0000
    73 H34      1.2499   2.1707   2.8461   H         1 RES1   0.0000
    74 H35      0.2979   2.4323   4.9246   H         1 RES1   0.0000
    75 H36     -0.2837   3.5003   3.9242   H         1 RES1   0.0000
    76 H37      1.2049   5.1362   4.7396   H         1 RES1   0.0000
    77 H38      0.4013   4.5625   5.9571   H         1 RES1   0.0000
    78 H39      2.7017   4.7431   6.4550   H         1 RES1   0.0000
    79 H40      2.1936   3.2734   6.6218   H         1 RES1   0.0000
@<TRIPOS>BOND
     1     1     4    1
     2     2    10    2
     3     3    11    2
     4     4    10    2
     5     5     1    1
     6     6     1    1
     7     7     1    1
     8     8     1    1
     9     9     1    1
    10    11     5    2
    11    12     6   ar
    12    13    12   ar
    13    14    13   ar
    14    15    14   ar
    15    16     6   ar
    16    17     7    2
    17    18     7    1
    18    19    18    1
    19    20    18    1
    20    21    20    1
    21    22    21    1
    22    23    22    1
    23    24    23    1
    24    25    20    1
    25    26     8   ar
    26    27    26   ar
    27    28    27   ar
    28    29    28   ar
    29    30     8   ar
    30    31     9    2
    31    32     9    1
    32    33    32    1
    33    34    32    1
    34    35    34    1
    35    36    35    1
    36    37    36    1
    37    38    37    1
    38    39    34    1
    39    40    12    1
    40    41    13    1
    41    42    14    1
    42    43    15    1
    43    44    17    1
    44    45    18    1
    45    46    19    1
    46    47    19    1
    47    48    19    1
    48    49    20    1
    49    50    21    1
    50    51    21    1
    51    52    22    1
    52    53    22    1
    53    54    23    1
    54    55    23    1
    55    56    24    1
    56    57    24    1
    57    58    25    1
    58    59    25    1
    59    60    26    1
    60    61    27    1
    61    62    28    1
    62    63    29    1
    63    64    31    1
    64    65    32    1
    65    66    33    1
    66    67    33    1
    67    68    33    1
    68    69    34    1
    69    70    35    1
    70    71    35    1
    71    72    36    1
    72    73    36    1
    73    74    37    1
    74    75    37    1
    75    76    38    1
    76    77    38    1
    77    78    39    1
    78    79    39    1
    79    15    16   ar
    80    16    17    1
    81    24    25    1
    82    29    30   ar
    83    30    31    1
    84    38    39    1
@<TRIPOS>SUBSTRUCTURE
     1 RES1        1 GROUP             0 ****  ****    0  
@<TRIPOS>CRYSIN
   16.6877   16.6877   22.8415   90.0000   90.0000  120.0000   152     1
