@<TRIPOS>MOLECULE
KAPHES
    77    81     1     0     0
SMALL
NO_CHARGES
****
Generated from the CSD

@<TRIPOS>ATOM
     1 Fe1      2.4511   4.1223  13.2248   Fe        1 RES1   0.0000
     2 O1       0.6864   5.0101  12.7221   O.2       1 RES1   0.0000
     3 O2       3.3039   5.8868  12.7201   O.2       1 RES1   0.0000
     4 O3       2.1778   4.9832  15.0548   O.2       1 RES1   0.0000
     5 O4       1.4482   2.5499  13.9857   O.2       1 RES1   0.0000
     6 N1       2.6728   3.3363  11.3277   N.2       1 RES1   0.0000
     7 N2       4.3146   3.3923  13.6947   N.2       1 RES1   0.0000
     8 C1       3.9628   3.0558   9.2456   C.3       1 RES1   0.0000
     9 H1       3.6010   2.1699   9.0350   H         1 RES1   0.0000
    10 H2       4.9024   3.0990   8.9697   H         1 RES1   0.0000
    11 H3       3.4503   3.7405   8.7675   H         1 RES1   0.0000
    12 C2       3.8635   3.3002  10.7363   C.2       1 RES1   0.0000
    13 C3       5.0783   3.4077  11.4180   C.2       1 RES1   0.0000
    14 H4       5.8468   3.5751  10.8850   H         1 RES1   0.0000
    15 C4       5.2920   3.2966  12.7974   C.2       1 RES1   0.0000
    16 C5       6.7001   2.9725  13.2272   C.3       1 RES1   0.0000
    17 H5       6.9712   3.5827  13.9447   H         1 RES1   0.0000
    18 H6       7.3066   3.0755  12.4644   H         1 RES1   0.0000
    19 H7       6.7380   2.0488  13.5524   H         1 RES1   0.0000
    20 C6       1.5362   2.9298  10.5475   C.ar      1 RES1   0.0000
    21 C7       0.8048   3.8551   9.8018   C.ar      1 RES1   0.0000
    22 C8      -0.3080   3.4054   9.0953   C.ar      1 RES1   0.0000
    23 H8      -0.8298   4.0290   8.6042   H         1 RES1   0.0000
    24 C9      -0.6688   2.0734   9.0936   C.ar      1 RES1   0.0000
    25 H9      -1.4345   1.7861   8.6103   H         1 RES1   0.0000
    26 C10      0.0927   1.1586   9.8012   C.ar      1 RES1   0.0000
    27 H10     -0.1427   0.2385   9.7815   H         1 RES1   0.0000
    28 C11      1.1940   1.5673  10.5376   C.ar      1 RES1   0.0000
    29 C12      1.2209   5.2932   9.6677   C.3       1 RES1   0.0000
    30 H11      1.5568   5.4528   8.7611   H         1 RES1   0.0000
    31 H12      1.9273   5.4909  10.3175   H         1 RES1   0.0000
    32 H13      0.4494   5.8735   9.8372   H         1 RES1   0.0000
    33 C13      2.0206   0.5645  11.2881   C.3       1 RES1   0.0000
    34 H14      1.8845   0.6844  12.2513   H         1 RES1   0.0000
    35 H15      2.9676   0.6953  11.0732   H         1 RES1   0.0000
    36 H16      1.7489  -0.3411  11.0302   H         1 RES1   0.0000
    37 C14      4.6283   3.0722  15.0639   C.ar      1 RES1   0.0000
    38 C15      4.4957   1.7496  15.4988   C.ar      1 RES1   0.0000
    39 C16      4.7811   1.4508  16.8286   C.ar      1 RES1   0.0000
    40 H17      4.6839   0.5587  17.1405   H         1 RES1   0.0000
    41 C17      5.2015   2.4342  17.6969   C.ar      1 RES1   0.0000
    42 H18      5.3949   2.2193  18.6018   H         1 RES1   0.0000
    43 C18      5.3416   3.7290  17.2504   C.ar      1 RES1   0.0000
    44 H19      5.6416   4.3973  17.8550   H         1 RES1   0.0000
    45 C19      5.0534   4.0827  15.9377   C.ar      1 RES1   0.0000
    46 C20      4.1046   0.6532  14.5473   C.3       1 RES1   0.0000
    47 H20      4.8804   0.3992  14.0050   H         1 RES1   0.0000
    48 H21      3.3860   0.9701  13.9612   H         1 RES1   0.0000
    49 H22      3.7927  -0.1245  15.0556   H         1 RES1   0.0000
    50 C21      5.2482   5.5042  15.4930   C.3       1 RES1   0.0000
    51 H23      4.6989   6.0977  16.0465   H         1 RES1   0.0000
    52 H24      4.9806   5.5924  14.5544   H         1 RES1   0.0000
    53 H25      6.1922   5.7498  15.5880   H         1 RES1   0.0000
    54 C22     -1.0283   6.6247  12.6143   C.3       1 RES1   0.0000
    55 H26     -1.5524   5.8303  12.3811   H         1 RES1   0.0000
    56 H27     -1.1358   7.3038  11.9160   H         1 RES1   0.0000
    57 H28     -1.3422   6.9837  13.4703   H         1 RES1   0.0000
    58 C23      0.4291   6.2494  12.7305   C.2       1 RES1   0.0000
    59 C24      1.3907   7.2637  12.8074   C.2       1 RES1   0.0000
    60 H29      1.0880   8.1605  12.8891   H         1 RES1   0.0000
    61 C25      2.7637   7.0381  12.7713   C.2       1 RES1   0.0000
    62 C26      3.7199   8.2030  12.7848   C.3       1 RES1   0.0000
    63 H30      3.9955   8.3887  13.7068   H         1 RES1   0.0000
    64 H31      3.2770   8.9933  12.4109   H         1 RES1   0.0000
    65 H32      4.5086   7.9848  12.2458   H         1 RES1   0.0000
    66 C27      1.3496   5.5811  17.1679   C.3       1 RES1   0.0000
    67 H33      2.2430   5.7745  17.5211   H         1 RES1   0.0000
    68 H34      0.7951   5.1928  17.8764   H         1 RES1   0.0000
    69 H35      0.9379   6.4112  16.8486   H         1 RES1   0.0000
    70 C28      1.4614   4.6059  16.0273   C.2       1 RES1   0.0000
    71 C29      0.8205   3.3719  16.1090   C.2       1 RES1   0.0000
    72 H36      0.3055   3.1861  16.8853   H         1 RES1   0.0000
    73 C30      0.8910   2.3978  15.1232   C.2       1 RES1   0.0000
    74 C31      0.2949   1.0415  15.3965   C.3       1 RES1   0.0000
    75 H37     -0.0426   0.6583  14.5600   H         1 RES1   0.0000
    76 H38     -0.4430   1.1318  16.0353   H         1 RES1   0.0000
    77 H39      0.9818   0.4523  15.7722   H         1 RES1   0.0000
@<TRIPOS>BOND
     1     1     2    1
     2     2    58   un
     3     3     1    1
     4     4     1    1
     5     5     1    1
     6     6     1    1
     7     7     1    1
     8     8     9    1
     9    10     8    1
    10    11     8    1
    11    12     6   un
    12    13    12   un
    13    14    13    1
    14    15     7   un
    15    16    15    1
    16    17    16    1
    17    18    16    1
    18    19    16    1
    19    20     6    1
    20    21    20   ar
    21    22    21   ar
    22    23    22    1
    23    24    22   ar
    24    25    24    1
    25    26    24   ar
    26    27    26    1
    27    28    20   ar
    28    29    21    1
    29    30    29    1
    30    31    29    1
    31    32    29    1
    32    33    28    1
    33    34    33    1
    34    35    33    1
    35    36    33    1
    36    37     7    1
    37    38    37   ar
    38    39    38   ar
    39    40    39    1
    40    41    39   ar
    41    42    41    1
    42    43    41   ar
    43    44    43    1
    44    45    37   ar
    45    46    38    1
    46    47    46    1
    47    48    46    1
    48    49    46    1
    49    50    45    1
    50    51    50    1
    51    52    50    1
    52    53    50    1
    53    54    55    1
    54    56    54    1
    55    57    54    1
    56    58    54    1
    57    59    58   un
    58    60    59    1
    59    61     3   un
    60    62    61    1
    61    63    62    1
    62    64    62    1
    63    65    62    1
    64    66    67    1
    65    68    66    1
    66    69    66    1
    67    70     4   un
    68    71    70   un
    69    72    71    1
    70    73     5   un
    71    74    73    1
    72    75    74    1
    73    76    74    1
    74    77    74    1
    75     8    12    1
    76    13    15   un
    77    26    28   ar
    78    43    45   ar
    79    59    61   un
    80    66    70    1
    81    71    73   un
@<TRIPOS>SUBSTRUCTURE
     1 RES1        1 GROUP             0 ****  ****    0  
@<TRIPOS>CRYSIN
    8.5730   15.7016   22.1488   90.0000   92.1270   90.0000    14     1
