@<TRIPOS>MOLECULE
KAPHUG
    82    80     2     0     0
SMALL
USER_CHARGES
****
Generated from the CSD

@<TRIPOS>ATOM
     1 B1       3.0555  -0.9020   7.3279   B         1 RES1  -1.0000
     2 C1       3.3389  -2.1551   8.2582   C.1       1 RES1   0.0000
     3 N1       3.5576  -3.0427   8.9359   N.1       1 RES1   0.0000
     4 C2       4.3892  -0.0404   7.1960   C.1       1 RES1   0.0000
     5 N2       5.3245   0.5983   7.1324   N.1       1 RES1   0.0000
     6 C3       1.9430   0.0268   7.9892   C.1       1 RES1   0.0000
     7 N3       1.1587   0.7127   8.4452   N.1       1 RES1   0.0000
     8 C4       2.5568  -1.3829   5.8984   C.1       1 RES1   0.0000
     9 N4       2.1776  -1.7201   4.8825   N.1       1 RES1   0.0000
    10 Fe1      0.0000   0.0000   0.0000   Fe        2 RES2   2.0000
    11 O1      -0.9519  -0.0714   1.8847   O.2       2 RES2   0.0000
    12 C5      -0.5812   0.6153   2.8502   C.2       2 RES2   0.0000
    13 H1      -0.1244   1.4284   2.6709   H         2 RES2   0.0000
    14 N5      -0.7825   0.2854   4.1038   N.am      2 RES2   0.0000
    15 C6      -1.4221  -0.9738   4.4502   C.3       2 RES2   0.0000
    16 H2      -1.6800  -1.4453   3.6306   H         2 RES2   0.0000
    17 H3      -2.2204  -0.7971   4.9908   H         2 RES2   0.0000
    18 H4      -0.7963  -1.5276   4.9633   H         2 RES2   0.0000
    19 C7      -0.3255   1.1345   5.1928   C.3       2 RES2   0.0000
    20 H5       0.0829   1.9463   4.8257   H         2 RES2   0.0000
    21 H6       0.3364   0.6495   5.7292   H         2 RES2   0.0000
    22 H7      -1.0876   1.3793   5.7578   H         2 RES2   0.0000
    23 O2       1.8218   0.2834   1.0018   O.2       2 RES2   0.0000
    24 C8       2.7113   1.0855   0.6797   C.2       2 RES2   0.0000
    25 H8       2.5596   1.6380  -0.0781   H         2 RES2   0.0000
    26 N6       3.8484   1.2168   1.3215   N.am      2 RES2   0.0000
    27 C9       4.8330   2.2096   0.9309   C.3       2 RES2   0.0000
    28 H9       4.5336   2.6639   0.1156   H         2 RES2   0.0000
    29 H10      5.6921   1.7692   0.7626   H         2 RES2   0.0000
    30 H11      4.9379   2.8657   1.6508   H         2 RES2   0.0000
    31 C10      4.1183   0.4421   2.5173   C.3       2 RES2   0.0000
    32 H12      3.3811  -0.1851   2.6731   H         2 RES2   0.0000
    33 H13      4.2012   1.0453   3.2850   H         2 RES2   0.0000
    34 H14      4.9531  -0.0570   2.4013   H         2 RES2   0.0000
    35 O3       0.3049  -2.0902   0.1682   O.2       2 RES2   0.0000
    36 C11      0.8217  -2.5904   1.1800   C.2       2 RES2   0.0000
    37 H15      1.0034  -2.0201   1.9182   H         2 RES2   0.0000
    38 N7       1.1316  -3.8595   1.2891   N.am      2 RES2   0.0000
    39 C12      0.8757  -4.7732   0.1912   C.3       2 RES2   0.0000
    40 H16      0.4069  -4.2980  -0.5260   H         2 RES2   0.0000
    41 H17      0.3214  -5.5171   0.5073   H         2 RES2   0.0000
    42 H18      1.7260  -5.1211  -0.1497   H         2 RES2   0.0000
    43 C13      1.8208  -4.3820   2.4601   C.3       2 RES2   0.0000
    44 H19      1.9282  -3.6670   3.1221   H         2 RES2   0.0000
    45 H20      2.7036  -4.7182   2.1966   H         2 RES2   0.0000
    46 H21      1.2959  -5.1128   2.8492   H         2 RES2   0.0000
    47 O1A      0.9519   0.0714  -1.8847   O.2       2 RES2   0.0000
    48 C5A      0.5812  -0.6153  -2.8502   C.2       2 RES2   0.0000
    49 H1A      0.1244  -1.4284  -2.6709   H         2 RES2   0.0000
    50 N5A      0.7825  -0.2854  -4.1038   N.am      2 RES2   0.0000
    51 C6A      1.4221   0.9738  -4.4502   C.3       2 RES2   0.0000
    52 H2A      1.6800   1.4453  -3.6306   H         2 RES2   0.0000
    53 H3A      2.2204   0.7971  -4.9908   H         2 RES2   0.0000
    54 H4A      0.7963   1.5276  -4.9633   H         2 RES2   0.0000
    55 C7A      0.3255  -1.1345  -5.1928   C.3       2 RES2   0.0000
    56 H5A     -0.0829  -1.9463  -4.8257   H         2 RES2   0.0000
    57 H6A     -0.3364  -0.6495  -5.7292   H         2 RES2   0.0000
    58 H7A      1.0876  -1.3793  -5.7578   H         2 RES2   0.0000
    59 O2A     -1.8218  -0.2834  -1.0018   O.2       2 RES2   0.0000
    60 C8A     -2.7113  -1.0855  -0.6797   C.2       2 RES2   0.0000
    61 H8A     -2.5596  -1.6380   0.0781   H         2 RES2   0.0000
    62 N6A     -3.8484  -1.2168  -1.3215   N.am      2 RES2   0.0000
    63 C9A     -4.8330  -2.2096  -0.9309   C.3       2 RES2   0.0000
    64 H9A     -4.5336  -2.6639  -0.1156   H         2 RES2   0.0000
    65 H10A    -5.6921  -1.7692  -0.7626   H         2 RES2   0.0000
    66 H11A    -4.9379  -2.8657  -1.6508   H         2 RES2   0.0000
    67 C10A    -4.1183  -0.4421  -2.5173   C.3       2 RES2   0.0000
    68 H12A    -3.3811   0.1851  -2.6731   H         2 RES2   0.0000
    69 H13A    -4.2012  -1.0453  -3.2850   H         2 RES2   0.0000
    70 H14A    -4.9531   0.0570  -2.4013   H         2 RES2   0.0000
    71 O3A     -0.3049   2.0902  -0.1682   O.2       2 RES2   0.0000
    72 C11A    -0.8217   2.5904  -1.1800   C.2       2 RES2   0.0000
    73 H15A    -1.0034   2.0201  -1.9182   H         2 RES2   0.0000
    74 N7A     -1.1316   3.8595  -1.2891   N.am      2 RES2   0.0000
    75 C12A    -0.8757   4.7732  -0.1912   C.3       2 RES2   0.0000
    76 H16A    -0.4069   4.2980   0.5260   H         2 RES2   0.0000
    77 H17A    -0.3214   5.5171  -0.5073   H         2 RES2   0.0000
    78 H18A    -1.7260   5.1211   0.1497   H         2 RES2   0.0000
    79 C13A    -1.8208   4.3820  -2.4601   C.3       2 RES2   0.0000
    80 H19A    -1.9282   3.6670  -3.1221   H         2 RES2   0.0000
    81 H20A    -2.7036   4.7182  -2.1966   H         2 RES2   0.0000
    82 H21A    -1.2959   5.1128  -2.8492   H         2 RES2   0.0000
@<TRIPOS>BOND
     1     1     2    1
     2     2     3    3
     3     4     1    1
     4     5     4    3
     5     6     1    1
     6     7     6    3
     7     8     1    1
     8     9     8    3
     9    10    11    1
    10    11    12    2
    11    12    13    1
    12    14    12   am
    13    15    14    1
    14    16    15    1
    15    17    15    1
    16    18    15    1
    17    19    14    1
    18    20    19    1
    19    21    19    1
    20    22    19    1
    21    23    10    1
    22    24    23    2
    23    25    24    1
    24    26    24   am
    25    27    26    1
    26    28    27    1
    27    29    27    1
    28    30    27    1
    29    31    26    1
    30    32    31    1
    31    33    31    1
    32    34    31    1
    33    35    10    1
    34    36    35    2
    35    37    36    1
    36    38    36   am
    37    39    38    1
    38    40    39    1
    39    41    39    1
    40    42    39    1
    41    43    38    1
    42    44    43    1
    43    45    43    1
    44    46    43    1
    45    47    10    1
    46    48    47    2
    47    49    48    1
    48    50    48   am
    49    51    50    1
    50    52    51    1
    51    53    51    1
    52    54    51    1
    53    55    50    1
    54    56    55    1
    55    57    55    1
    56    58    55    1
    57    59    10    1
    58    60    59    2
    59    61    60    1
    60    62    60   am
    61    63    62    1
    62    64    63    1
    63    65    63    1
    64    66    63    1
    65    67    62    1
    66    68    67    1
    67    69    67    1
    68    70    67    1
    69    71    10    1
    70    72    71    2
    71    73    72    1
    72    74    72   am
    73    75    74    1
    74    76    75    1
    75    77    75    1
    76    78    75    1
    77    79    74    1
    78    80    79    1
    79    81    79    1
    80    82    79    1
@<TRIPOS>SUBSTRUCTURE
     1 RES1        1 GROUP             0 ****  ****    0  
     2 RES2       10 GROUP             0 ****  ****    0  
@<TRIPOS>CRYSIN
    8.6255   11.0544   12.2377   65.9870   75.5210   76.6390     2     1
