@<TRIPOS>MOLECULE
KARHER
    83    90     1     0     0
SMALL
NO_CHARGES
****
Generated from the CSD

@<TRIPOS>ATOM
     1 Fe1     -2.7983   1.1182  -3.4302   Fe        1 RES1   0.0000
     2 O1      -2.7931   6.6800  -3.5515   O.2       1 RES1   0.0000
     3 O2      -4.8433   5.9766  -4.1057   O.3       1 RES1   0.0000
     4 O3      -3.6149  -4.1910  -2.7220   O.2       1 RES1   0.0000
     5 O4      -1.5886  -4.0162  -1.8147   O.3       1 RES1   0.0000
     6 N1      -1.6498   2.6310  -3.0646   N.2       1 RES1   0.0000
     7 N2      -4.1857   2.1487  -4.2199   N.2       1 RES1   0.0000
     8 N3      -3.9515  -0.3495  -3.7732   N.2       1 RES1   0.0000
     9 N4      -1.4161   0.0429  -2.6223   N.2       1 RES1   0.0000
    10 N5      -1.8898   0.9347  -5.2091   N.ar      1 RES1   0.0000
    11 N6      -3.6083   1.4159  -1.5874   N.ar      1 RES1   0.0000
    12 C1      -2.0630   3.8940  -2.9533   C.2       1 RES1   0.0000
    13 C2      -3.2764   4.3192  -3.6041   C.2       1 RES1   0.0000
    14 C3      -4.2230   3.4609  -4.2172   C.2       1 RES1   0.0000
    15 H1      -4.9519   3.8726  -4.6675   H         1 RES1   0.0000
    16 C4      -5.2215   1.3720  -4.7961   C.ar      1 RES1   0.0000
    17 C5      -6.2935   1.8371  -5.5535   C.ar      1 RES1   0.0000
    18 H2      -6.3609   2.7619  -5.7633   H         1 RES1   0.0000
    19 C6      -7.2663   0.9496  -6.0027   C.ar      1 RES1   0.0000
    20 H3      -7.9860   1.2672  -6.5351   H         1 RES1   0.0000
    21 C7      -7.1912  -0.3928  -5.6775   C.ar      1 RES1   0.0000
    22 H4      -7.8755  -0.9855  -5.9639   H         1 RES1   0.0000
    23 C8      -6.1252  -0.8804  -4.9378   C.ar      1 RES1   0.0000
    24 H5      -6.0818  -1.8034  -4.7193   H         1 RES1   0.0000
    25 C9      -5.1169  -0.0140  -4.5148   C.ar      1 RES1   0.0000
    26 C10     -3.7003  -1.5900  -3.4201   C.2       1 RES1   0.0000
    27 H6      -4.2925  -2.2591  -3.7431   H         1 RES1   0.0000
    28 C11     -2.6280  -2.0221  -2.6014   C.2       1 RES1   0.0000
    29 C12     -1.5503  -1.1875  -2.1393   C.2       1 RES1   0.0000
    30 C13     -0.2138   0.7859  -2.5488   C.ar      1 RES1   0.0000
    31 C14      1.0556   0.2084  -2.5147   C.ar      1 RES1   0.0000
    32 H7       1.1390  -0.7363  -2.4506   H         1 RES1   0.0000
    33 C15      2.1915   0.9889  -2.5715   C.ar      1 RES1   0.0000
    34 H8       3.0503   0.5844  -2.5184   H         1 RES1   0.0000
    35 C16      2.0768   2.3622  -2.7082   C.ar      1 RES1   0.0000
    36 H9       2.8590   2.9011  -2.7296   H         1 RES1   0.0000
    37 C17      0.8268   2.9564  -2.8135   C.ar      1 RES1   0.0000
    38 H10      0.7627   3.8968  -2.9355   H         1 RES1   0.0000
    39 C18     -0.3367   2.1886  -2.7418   C.ar      1 RES1   0.0000
    40 C19     -3.5595   5.7620  -3.7247   C.2       1 RES1   0.0000
    41 C20     -5.2275   7.3058  -4.5055   C.3       1 RES1   0.0000
    42 H11     -4.5171   7.7269  -5.0514   H         1 RES1   0.0000
    43 H12     -5.3994   7.8744  -3.7125   H         1 RES1   0.0000
    44 C21     -6.4859   7.1234  -5.3144   C.3       1 RES1   0.0000
    45 H13     -6.8039   7.9962  -5.6252   H         1 RES1   0.0000
    46 H14     -7.1743   6.7037  -4.7578   H         1 RES1   0.0000
    47 H15     -6.2969   6.5505  -6.0874   H         1 RES1   0.0000
    48 C22     -1.3604   4.8558  -2.0261   C.3       1 RES1   0.0000
    49 H16     -0.5593   4.4284  -1.6577   H         1 RES1   0.0000
    50 H17     -1.9635   5.1044  -1.2951   H         1 RES1   0.0000
    51 H18     -1.1012   5.6596  -2.5237   H         1 RES1   0.0000
    52 C23     -0.6730  -1.6683  -1.0030   C.3       1 RES1   0.0000
    53 H19      0.0099  -0.9922  -0.8089   H         1 RES1   0.0000
    54 H20     -0.2375  -2.5078  -1.2592   H         1 RES1   0.0000
    55 H21     -1.2225  -1.8164  -0.2059   H         1 RES1   0.0000
    56 C24     -2.6874  -3.4809  -2.3788   C.2       1 RES1   0.0000
    57 C25     -1.5360  -5.4643  -1.7812   C.3       1 RES1   0.0000
    58 H22     -1.4988  -5.8276  -2.7004   H         1 RES1   0.0000
    59 H23     -2.3389  -5.8270  -1.3296   H         1 RES1   0.0000
    60 C26     -0.3045  -5.8355  -1.0267   C.3       1 RES1   0.0000
    61 H24     -0.2319  -6.8115  -0.9803   H         1 RES1   0.0000
    62 H25     -0.3543  -5.4685  -0.1195   H         1 RES1   0.0000
    63 H26      0.4814  -5.4701  -1.4837   H         1 RES1   0.0000
    64 C27     -1.3223  -0.2258  -5.5887   C.ar      1 RES1   0.0000
    65 H27     -1.4483  -0.9916  -5.0408   H         1 RES1   0.0000
    66 C28     -0.5616  -0.3555  -6.7423   C.ar      1 RES1   0.0000
    67 H28     -0.1714  -1.1913  -6.9681   H         1 RES1   0.0000
    68 C29     -0.3769   0.7497  -7.5605   C.ar      1 RES1   0.0000
    69 H29      0.1491   0.6921  -8.3495   H         1 RES1   0.0000
    70 C30     -0.9848   1.9422  -7.1908   C.ar      1 RES1   0.0000
    71 H30     -0.9020   2.7136  -7.7385   H         1 RES1   0.0000
    72 C31     -1.7106   1.9946  -6.0181   C.ar      1 RES1   0.0000
    73 H31     -2.1045   2.8230  -5.7687   H         1 RES1   0.0000
    74 C32     -2.8495   1.7952  -0.5378   C.ar      1 RES1   0.0000
    75 H32     -1.9050   1.7789  -0.6376   H         1 RES1   0.0000
    76 C33     -3.3716   2.2063   0.6710   C.ar      1 RES1   0.0000
    77 H33     -2.7953   2.4917   1.3708   H         1 RES1   0.0000
    78 C34     -4.7399   2.1982   0.8516   C.ar      1 RES1   0.0000
    79 H34     -5.1288   2.5006   1.6630   H         1 RES1   0.0000
    80 C35     -5.5233   1.7366  -0.1846   C.ar      1 RES1   0.0000
    81 H35     -6.4653   1.6686  -0.0797   H         1 RES1   0.0000
    82 C36     -4.9299   1.3743  -1.3733   C.ar      1 RES1   0.0000
    83 H36     -5.4891   1.0783  -2.0814   H         1 RES1   0.0000
@<TRIPOS>BOND
     1     1     6    1
     2     2    40    2
     3     3    40    1
     4     4    56    2
     5     5    56    1
     6     6    12    1
     7     7     1    1
     8     8     1    1
     9     9     1    1
    10    10     1    1
    11    11     1    1
    12    12    13    2
    13    13    14    1
    14    14     7    2
    15    15    14    1
    16    16     7    1
    17    17    16   ar
    18    18    17    1
    19    19    17   ar
    20    20    19    1
    21    21    19   ar
    22    22    21    1
    23    23    21   ar
    24    24    23    1
    25    25     8    1
    26    26     8    1
    27    27    26    1
    28    28    26    2
    29    29     9    2
    30    30     9    1
    31    31    30   ar
    32    32    31    1
    33    33    31   ar
    34    34    33    1
    35    35    33   ar
    36    36    35    1
    37    37    35   ar
    38    38    37    1
    39    39     6    1
    40    40    13    1
    41    41     3    1
    42    42    41    1
    43    43    41    1
    44    44    41    1
    45    45    44    1
    46    46    44    1
    47    47    44    1
    48    48    12    1
    49    49    48    1
    50    50    48    1
    51    51    48    1
    52    52    29    1
    53    53    52    1
    54    54    52    1
    55    55    52    1
    56    56    28    1
    57    57     5    1
    58    58    57    1
    59    59    57    1
    60    60    57    1
    61    61    60    1
    62    62    60    1
    63    63    60    1
    64    64    10   ar
    65    65    64    1
    66    66    64   ar
    67    67    66    1
    68    68    66   ar
    69    69    68    1
    70    70    68   ar
    71    71    70    1
    72    72    10   ar
    73    73    72    1
    74    74    11   ar
    75    75    74    1
    76    76    74   ar
    77    77    76    1
    78    78    76   ar
    79    79    78    1
    80    80    78   ar
    81    81    80    1
    82    82    11   ar
    83    83    82    1
    84    16    25   ar
    85    23    25   ar
    86    28    29    1
    87    30    39   ar
    88    37    39   ar
    89    70    72   ar
    90    80    82   ar
@<TRIPOS>SUBSTRUCTURE
     1 RES1        1 GROUP             0 ****  ****    0  
@<TRIPOS>CRYSIN
   10.6327   12.0421   14.7871   66.0150   71.5820   66.3680     2     1
