@<TRIPOS>MOLECULE
KASHIW
   102   111     3     0     0
SMALL
USER_CHARGES
****
Generated from the CSD

@<TRIPOS>ATOM
     1 Fe1      0.0000   0.0000   0.0000   Fe        1 RES1   3.0000
     2 O1       0.5075   1.6004   1.1042   O.3       1 RES1   0.0000
     3 N1      -0.1233   1.9653   2.2117   N.pl3     1 RES1   0.0000
     4 N2       0.4159   1.7117   3.3807   N.2       1 RES1   0.0000
     5 N3      -0.4042   2.2684   4.2663   N.pl3     1 RES1   0.0000
     6 C1      -1.4701   2.8826   3.6757   C.ar      1 RES1   0.0000
     7 C2      -2.5457   3.6340   4.1743   C.ar      1 RES1   0.0000
     8 H1      -2.6714   3.7721   5.0848   H         1 RES1   0.0000
     9 C3      -3.4011   4.1527   3.2304   C.ar      1 RES1   0.0000
    10 H2      -4.1165   4.6766   3.5107   H         1 RES1   0.0000
    11 C4      -3.2289   3.9146   1.8346   C.ar      1 RES1   0.0000
    12 H3      -3.8477   4.2713   1.2401   H         1 RES1   0.0000
    13 C5      -2.1819   3.1791   1.3403   C.ar      1 RES1   0.0000
    14 H4      -2.0715   3.0180   0.4303   H         1 RES1   0.0000
    15 C6      -1.2892   2.6861   2.3029   C.ar      1 RES1   0.0000
    16 H6      -0.1891   2.1684   5.1612   H         1 RES1   0.0000
    17 O1A     -1.6397  -0.3607   1.1042   O.3       1 RES1   0.0000
    18 O1B      1.1322  -1.2397   1.1042   O.3       1 RES1   0.0000
    19 O1F     -0.5075  -1.6004  -1.1042   O.3       1 RES1   0.0000
    20 O1G      1.6397   0.3607  -1.1042   O.3       1 RES1   0.0000
    21 O1H     -1.1322   1.2397  -1.1042   O.3       1 RES1   0.0000
    22 N1A     -1.6403  -1.0894   2.2117   N.pl3     1 RES1   0.0000
    23 N1B      1.7636  -0.8758   2.2117   N.pl3     1 RES1   0.0000
    24 N1F      0.1233  -1.9653  -2.2117   N.pl3     1 RES1   0.0000
    25 N1G      1.6403   1.0894  -2.2117   N.pl3     1 RES1   0.0000
    26 N1H     -1.7636   0.8758  -2.2117   N.pl3     1 RES1   0.0000
    27 N2A     -1.6903  -0.4956   3.3807   N.2       1 RES1   0.0000
    28 N2B      1.2744  -1.2161   3.3807   N.2       1 RES1   0.0000
    29 N2F     -0.4159  -1.7117  -3.3807   N.2       1 RES1   0.0000
    30 N2G      1.6903   0.4956  -3.3807   N.2       1 RES1   0.0000
    31 N2H     -1.2744   1.2161  -3.3807   N.2       1 RES1   0.0000
    32 N3A     -1.7624  -1.4842   4.2663   N.pl3     1 RES1   0.0000
    33 N3B      2.1666  -0.7842   4.2663   N.pl3     1 RES1   0.0000
    34 N3F      0.4042  -2.2684  -4.2663   N.pl3     1 RES1   0.0000
    35 N3G      1.7624   1.4842  -4.2663   N.pl3     1 RES1   0.0000
    36 N3H     -2.1666   0.7842  -4.2663   N.pl3     1 RES1   0.0000
    37 C1A     -1.7614  -2.7145   3.6757   C.ar      1 RES1   0.0000
    38 C1B      3.2315  -0.1682   3.6757   C.ar      1 RES1   0.0000
    39 C1F      1.4701  -2.8826  -3.6757   C.ar      1 RES1   0.0000
    40 C1G      1.7614   2.7145  -3.6757   C.ar      1 RES1   0.0000
    41 C1H     -3.2315   0.1682  -3.6757   C.ar      1 RES1   0.0000
    42 C2A     -1.8743  -4.0217   4.1743   C.ar      1 RES1   0.0000
    43 C2B      4.4200   0.3877   4.1743   C.ar      1 RES1   0.0000
    44 C2F      2.5457  -3.6340  -4.1743   C.ar      1 RES1   0.0000
    45 C2G      1.8743   4.0217  -4.1743   C.ar      1 RES1   0.0000
    46 C2H     -4.4200  -0.3877  -4.1743   C.ar      1 RES1   0.0000
    47 H1A     -1.9310  -4.1996   5.0848   H         1 RES1   0.0000
    48 H1B      4.6024   0.4275   5.0848   H         1 RES1   0.0000
    49 H1F      2.6714  -3.7721  -5.0848   H         1 RES1   0.0000
    50 H1G      1.9310   4.1996  -5.0848   H         1 RES1   0.0000
    51 H1H     -4.6024  -0.4275  -5.0848   H         1 RES1   0.0000
    52 C3A     -1.8958  -5.0218   3.2304   C.ar      1 RES1   0.0000
    53 C3B      5.2969   0.8691   3.2304   C.ar      1 RES1   0.0000
    54 C3F      3.4011  -4.1527  -3.2304   C.ar      1 RES1   0.0000
    55 C3G      1.8958   5.0218  -3.2304   C.ar      1 RES1   0.0000
    56 C3H     -5.2969  -0.8691  -3.2304   C.ar      1 RES1   0.0000
    57 H2A     -1.9918  -5.9033   3.5107   H         1 RES1   0.0000
    58 H2B      6.1083   1.2267   3.5107   H         1 RES1   0.0000
    59 H2F      4.1165  -4.6766  -3.5107   H         1 RES1   0.0000
    60 H2G      1.9918   5.9033  -3.5107   H         1 RES1   0.0000
    61 H2H     -6.1083  -1.2267  -3.5107   H         1 RES1   0.0000
    62 C4A     -1.7757  -4.7536   1.8346   C.ar      1 RES1   0.0000
    63 C4B      5.0046   0.8390   1.8346   C.ar      1 RES1   0.0000
    64 C4F      3.2289  -3.9146  -1.8346   C.ar      1 RES1   0.0000
    65 C4G      1.7757   4.7536  -1.8346   C.ar      1 RES1   0.0000
    66 C4H     -5.0046  -0.8390  -1.8346   C.ar      1 RES1   0.0000
    67 H3A     -1.7752  -5.4679   1.2401   H         1 RES1   0.0000
    68 H3B      5.6229   1.1966   1.2401   H         1 RES1   0.0000
    69 H3F      3.8477  -4.2713  -1.2401   H         1 RES1   0.0000
    70 H3G      1.7752   5.4679  -1.2401   H         1 RES1   0.0000
    71 H3H     -5.6229  -1.1966  -1.2401   H         1 RES1   0.0000
    72 C5A     -1.6622  -3.4791   1.3403   C.ar      1 RES1   0.0000
    73 C5B      3.8441   0.3000   1.3403   C.ar      1 RES1   0.0000
    74 C5F      2.1819  -3.1791  -1.3403   C.ar      1 RES1   0.0000
    75 C5G      1.6622   3.4791  -1.3403   C.ar      1 RES1   0.0000
    76 C5H     -3.8441  -0.3000  -1.3403   C.ar      1 RES1   0.0000
    77 H4A     -1.5779  -3.3030   0.4303   H         1 RES1   0.0000
    78 H4B      3.6495   0.2850   0.4303   H         1 RES1   0.0000
    79 H4F      2.0715  -3.0180  -0.4303   H         1 RES1   0.0000
    80 H4G      1.5779   3.3030  -0.4303   H         1 RES1   0.0000
    81 H4H     -3.6495  -0.2850  -0.4303   H         1 RES1   0.0000
    82 C6A     -1.6817  -2.4596   2.3029   C.ar      1 RES1   0.0000
    83 C6B      2.9709  -0.2266   2.3029   C.ar      1 RES1   0.0000
    84 C6F      1.2892  -2.6861  -2.3029   C.ar      1 RES1   0.0000
    85 C6G      1.6817   2.4596  -2.3029   C.ar      1 RES1   0.0000
    86 C6H     -2.9709   0.2266  -2.3029   C.ar      1 RES1   0.0000
    87 H6A     -1.7833  -1.2479   5.1612   H         1 RES1   0.0000
    88 H6B      1.9724  -0.9205   5.1612   H         1 RES1   0.0000
    89 H6F      0.1891  -2.1684  -5.1612   H         1 RES1   0.0000
    90 H6G      1.7833   1.2479  -5.1612   H         1 RES1   0.0000
    91 H6H     -1.9724   0.9205  -5.1612   H         1 RES1   0.0000
    92 Cl1      1.7373   2.4102   7.0780   Cl        2 RES2   0.0000
    93 O2       0.2693   2.2507   7.0780   O.3       2 RES2  -1.0000
    94 O3       2.0271   3.8172   7.0780   O.2       2 RES2   0.0000
    95 O4       2.2381   1.7949   5.8940   O.2       2 RES2   0.0000
    96 O4K      2.2381   1.7949   8.2619   O.2       2 RES2   0.0000
    97 N4      -0.0005   5.9006   2.4592   N.1       3 RES3   0.0000
    98 C7      -0.0005   5.9006   3.5984   C.1       3 RES3   0.0000
    99 C8      -0.0005   5.9006   5.0565   C.3       3 RES3   0.0000
   100 H5       0.4241   6.6467   5.4868   H         3 RES3   0.0000
   101 H5A     -0.8585   5.8944   5.4868   H         3 RES3   0.0000
   102 H5B      0.4343   5.1599   5.4868   H         3 RES3   0.0000
@<TRIPOS>BOND
     1     1     2    1
     2     2     3    1
     3     3     4    1
     4     4     5    2
     5     5     6    1
     6     6     7   ar
     7     7     8    1
     8     9     7   ar
     9    10     9    1
    10    11     9   ar
    11    12    11    1
    12    13    11   ar
    13    14    13    1
    14    15     3    1
    15    16     5    1
    16    17     1    1
    17    18     1    1
    18    19     1    1
    19    20     1    1
    20    21     1    1
    21    22    17    1
    22    23    18    1
    23    24    19    1
    24    25    20    1
    25    26    21    1
    26    27    22    1
    27    28    23    1
    28    29    24    1
    29    30    25    1
    30    31    26    1
    31    32    27    2
    32    33    28    2
    33    34    29    2
    34    35    30    2
    35    36    31    2
    36    37    32    1
    37    38    33    1
    38    39    34    1
    39    40    35    1
    40    41    36    1
    41    42    37   ar
    42    43    38   ar
    43    44    39   ar
    44    45    40   ar
    45    46    41   ar
    46    47    42    1
    47    48    43    1
    48    49    44    1
    49    50    45    1
    50    51    46    1
    51    52    42   ar
    52    53    43   ar
    53    54    44   ar
    54    55    45   ar
    55    56    46   ar
    56    57    52    1
    57    58    53    1
    58    59    54    1
    59    60    55    1
    60    61    56    1
    61    62    52   ar
    62    63    53   ar
    63    64    54   ar
    64    65    55   ar
    65    66    56   ar
    66    67    62    1
    67    68    63    1
    68    69    64    1
    69    70    65    1
    70    71    66    1
    71    72    62   ar
    72    73    63   ar
    73    74    64   ar
    74    75    65   ar
    75    76    66   ar
    76    77    72    1
    77    78    73    1
    78    79    74    1
    79    80    75    1
    80    81    76    1
    81    82    22    1
    82    83    23    1
    83    84    24    1
    84    85    25    1
    85    86    26    1
    86    87    32    1
    87    88    33    1
    88    89    34    1
    89    90    35    1
    90    91    36    1
    91     6    15   ar
    92    13    15   ar
    93    37    82   ar
    94    38    83   ar
    95    39    84   ar
    96    40    85   ar
    97    41    86   ar
    98    72    82   ar
    99    73    83   ar
   100    74    84   ar
   101    75    85   ar
   102    76    86   ar
   103    92    93    1
   104    94    92    2
   105    95    92    2
   106    96    92    2
   107    97    98    3
   108    98    99    1
   109    99   100    1
   110   101    99    1
   111   102    99    1
@<TRIPOS>SUBSTRUCTURE
     1 RES1        1 GROUP             0 ****  ****    0  
     2 RES2       92 GROUP             0 ****  ****    0  
     3 RES3       97 GROUP             0 ****  ****    0  
@<TRIPOS>CRYSIN
   10.2197   10.2197   28.3118   90.0000   90.0000  120.0000   176     1
