@<TRIPOS>MOLECULE
KATZUB01
    77    82     3     0     0
SMALL
USER_CHARGES
****
Generated from the CSD

@<TRIPOS>ATOM
     1 Fe1      9.0349   2.1135   3.6760   Fe        1 RES1   2.0000
     2 N1      13.0395   1.6726   1.9243   N.pl3     1 RES1   0.0000
     3 N2      11.1225   1.8185   2.9893   N.2       1 RES1   0.0000
     4 N3       9.1108   0.0672   3.1560   N.2       1 RES1   0.0000
     5 N4       6.9676   1.3749   4.1689   N.3       1 RES1   0.0000
     6 N5       9.8665   2.7345   7.9668   N.pl3     1 RES1   0.0000
     7 N6       9.4708   2.4445   5.8250   N.2       1 RES1   0.0000
     8 N7       8.9008   4.2093   3.9307   N.2       1 RES1   0.0000
     9 N8       8.4745   2.8459   1.6418   N.3       1 RES1   0.0000
    10 C1      12.1420   4.3610   4.2171   C.ar      1 RES1   0.0000
    11 C2      12.3746   5.6764   4.5595   C.ar      1 RES1   0.0000
    12 C3      12.9924   6.5213   3.6586   C.ar      1 RES1   0.0000
    13 C4      13.3470   6.0509   2.4061   C.ar      1 RES1   0.0000
    14 C5      13.1210   4.7278   2.0584   C.ar      1 RES1   0.0000
    15 C6      12.4995   3.8694   2.9763   C.ar      1 RES1   0.0000
    16 C7      12.2078   2.4829   2.6391   C.2       1 RES1   0.0000
    17 C8      12.4717   0.4532   1.8097   C.2       1 RES1   0.0000
    18 C9      11.2708   0.5223   2.4620   C.2       1 RES1   0.0000
    19 C10     10.1650  -0.3802   2.5792   C.2       1 RES1   0.0000
    20 C11      7.8823  -0.7086   3.2927   C.3       1 RES1   0.0000
    21 C12      7.0743  -0.0749   4.3864   C.3       1 RES1   0.0000
    22 C13      6.2550   2.0029   5.3082   C.3       1 RES1   0.0000
    23 C14     10.3931  -0.4263   6.1701   C.ar      1 RES1   0.0000
    24 C15     10.3078  -1.7974   6.2599   C.ar      1 RES1   0.0000
    25 C16      9.6143  -2.3985   7.2924   C.ar      1 RES1   0.0000
    26 C17      9.0517  -1.6169   8.2767   C.ar      1 RES1   0.0000
    27 C18      9.1275  -0.2381   8.2129   C.ar      1 RES1   0.0000
    28 C19      9.7746   0.3745   7.1322   C.ar      1 RES1   0.0000
    29 C20      9.7331   1.8243   6.9630   C.2       1 RES1   0.0000
    30 C21      9.6726   3.9616   7.4694   C.2       1 RES1   0.0000
    31 C22      9.4115   3.8003   6.1427   C.2       1 RES1   0.0000
    32 C23      9.0775   4.7201   5.0790   C.2       1 RES1   0.0000
    33 C24      8.5886   5.0081   2.7563   C.3       1 RES1   0.0000
    34 C25      8.1429   4.1478   1.7160   C.3       1 RES1   0.0000
    35 C26      8.7309   2.1911   0.5364   C.3       1 RES1   0.0000
    36 H1      11.7277   3.7830   4.8460   H         1 RES1   0.0000
    37 H2      12.1115   6.0009   5.4123   H         1 RES1   0.0000
    38 H3      13.1739   7.4220   3.8968   H         1 RES1   0.0000
    39 H4      13.7486   6.6404   1.7798   H         1 RES1   0.0000
    40 H5      13.3842   4.4052   1.2043   H         1 RES1   0.0000
    41 H6      13.8829   1.9241   1.5663   H         1 RES1   0.0000
    42 H7      12.8340  -0.3034   1.3632   H         1 RES1   0.0000
    43 H8      10.2104  -1.2674   2.2459   H         1 RES1   0.0000
    44 H9       7.3953  -0.6932   2.4777   H         1 RES1   0.0000
    45 H10      8.0894  -1.6073   3.5218   H         1 RES1   0.0000
    46 H11      6.2039  -0.4551   4.3942   H         1 RES1   0.0000
    47 H12      7.4974  -0.2362   5.2209   H         1 RES1   0.0000
    48 H13      6.4300   1.5055   3.3969   H         1 RES1   0.0000
    49 H14      5.3195   1.9721   5.1454   H         1 RES1   0.0000
    50 H15      6.4493   1.5324   6.1102   H         1 RES1   0.0000
    51 H16      6.5347   2.9073   5.3980   H         1 RES1   0.0000
    52 H17     10.8725  -0.0269   5.4540   H         1 RES1   0.0000
    53 H18     10.7316  -2.3389   5.6037   H         1 RES1   0.0000
    54 H19      9.5258  -3.3432   7.3223   H         1 RES1   0.0000
    55 H20      8.6074  -2.0317   9.0084   H         1 RES1   0.0000
    56 H21      8.7427   0.2938   8.9003   H         1 RES1   0.0000
    57 H22     10.0657   2.5310   8.8730   H         1 RES1   0.0000
    58 H23      9.7092   4.7815   7.9473   H         1 RES1   0.0000
    59 H24      8.9953   5.6553   5.2300   H         1 RES1   0.0000
    60 H25      9.3653   5.4748   2.4725   H         1 RES1   0.0000
    61 H26      7.9046   5.6322   2.9685   H         1 RES1   0.0000
    62 H27      8.4467   4.5396   0.9049   H         1 RES1   0.0000
    63 H28      7.1936   4.1747   1.7433   H         1 RES1   0.0000
    64 H29      7.5766   2.5386   1.7004   H         1 RES1   0.0000
    65 H30      8.4983   1.3077   0.7968   H         1 RES1   0.0000
    66 H31      9.5782   2.1815   0.1068   H         1 RES1   0.0000
    67 H32      8.1651   2.5079  -0.1575   H         1 RES1   0.0000
    68 Cl1      4.3040   1.5362   1.0890   Cl        2 RES2   0.0000
    69 O1       4.9702   1.4479  -0.0820   O.3       2 RES2  -1.0000
    70 O2       3.1872   2.2756   0.9622   O.2       2 RES2   0.0000
    71 O3       5.1308   2.4522   1.8202   O.2       2 RES2   0.0000
    72 O4       4.2464   0.4532   1.8827   O.2       2 RES2   0.0000
    73 Cl2      5.1395   6.1115   4.8185   Cl        3 RES3   0.0000
    74 O5       5.3532   5.2040   3.8031   O.3       3 RES3  -1.0000
    75 O6       4.3026   7.1454   4.3304   O.2       3 RES3   0.0000
    76 O7       6.3017   6.5847   5.3889   O.2       3 RES3   0.0000
    77 O8       4.4315   5.3922   5.8433   O.2       3 RES3   0.0000
@<TRIPOS>BOND
     1     1     3    1
     2     2    16    1
     3     3    16    2
     4     4     1    1
     5     5     1    1
     6     6    29    1
     7     7     1    1
     8     8     1    1
     9     9     1    1
    10    10    11   ar
    11    11    12   ar
    12    12    13   ar
    13    13    14   ar
    14    14    15   ar
    15    15    10   ar
    16    16    15    1
    17    17     2    1
    18    18     3    1
    19    19     4    2
    20    20     4    1
    21    21     5    1
    22    22     5    1
    23    23    24   ar
    24    24    25   ar
    25    25    26   ar
    26    26    27   ar
    27    27    28   ar
    28    28    23   ar
    29    29     7    2
    30    30     6    1
    31    31     7    1
    32    32     8    2
    33    33     8    1
    34    34     9    1
    35    35     9    1
    36    36    10    1
    37    37    11    1
    38    38    12    1
    39    39    13    1
    40    40    14    1
    41    41     2    1
    42    42    17    1
    43    43    19    1
    44    44    20    1
    45    45    20    1
    46    46    21    1
    47    47    21    1
    48    48     5    1
    49    49    22    1
    50    50    22    1
    51    51    22    1
    52    52    23    1
    53    53    24    1
    54    54    25    1
    55    55    26    1
    56    56    27    1
    57    57     6    1
    58    58    30    1
    59    59    32    1
    60    60    33    1
    61    61    33    1
    62    62    34    1
    63    63    34    1
    64    64     9    1
    65    65    35    1
    66    66    35    1
    67    67    35    1
    68    17    18    2
    69    18    19    1
    70    20    21    1
    71    28    29    1
    72    30    31    2
    73    31    32    1
    74    33    34    1
    75    68    69    1
    76    70    68    2
    77    71    68    2
    78    72    68    2
    79    73    74    1
    80    75    73    2
    81    76    73    2
    82    77    73    2
@<TRIPOS>SUBSTRUCTURE
     1 RES1        1 GROUP             0 ****  ****    0  
     2 RES2       68 GROUP             0 ****  ****    0  
     3 RES3       73 GROUP             0 ****  ****    0  
@<TRIPOS>CRYSIN
   12.4980   19.2030   13.0540   90.0000   94.1500   90.0000   231     1
