@<TRIPOS>MOLECULE
KATZUB
    77    82     3     0     0
SMALL
USER_CHARGES
****
Generated from the CSD

@<TRIPOS>ATOM
     1 Fe1      2.9137   2.1730   2.9973   Fe        1 RES1   2.0000
     2 N1       2.1804   2.6113  -1.1597   N.pl3     1 RES1   0.0000
     3 N2       2.5334   2.3905   1.0085   N.2       1 RES1   0.0000
     4 N3       3.0503   4.0836   2.8477   N.2       1 RES1   0.0000
     5 N4       3.3310   2.5765   4.9638   N.3       1 RES1   0.0000
     6 N5      -1.0258   1.9411   4.4379   N.pl3     1 RES1   0.0000
     7 N6       0.9778   2.0147   3.5247   N.2       1 RES1   0.0000
     8 N7       2.8210   0.2751   3.2669   N.2       1 RES1   0.0000
     9 N8       4.8856   1.7415   2.6051   N.3       1 RES1   0.0000
    10 C1       1.4770  -0.5269   0.5309   C.ar      1 RES1   0.0000
    11 C2       1.4816  -1.9023   0.3468   C.ar      1 RES1   0.0000
    12 C3       2.2152  -2.4699  -0.6795   C.ar      1 RES1   0.0000
    13 C4       2.9098  -1.6621  -1.5610   C.ar      1 RES1   0.0000
    14 C5       2.9123  -0.2925  -1.3997   C.ar      1 RES1   0.0000
    15 C6       2.2167   0.2809  -0.3302   C.ar      1 RES1   0.0000
    16 C7       2.2919   1.7241  -0.1257   C.2       1 RES1   0.0000
    17 C8       2.3777   3.8802  -0.6821   C.2       1 RES1   0.0000
    18 C9       2.6008   3.7446   0.6414   C.2       1 RES1   0.0000
    19 C10      2.9007   4.6454   1.7096   C.2       1 RES1   0.0000
    20 C11      3.3407   4.8430   4.0658   C.3       1 RES1   0.0000
    21 C12      3.3049   3.9364   5.1594   C.3       1 RES1   0.0000
    22 C13      3.2408   1.6621   6.0218   C.3       1 RES1   0.0000
    23 C14     -0.1184   4.6377   2.2749   C.ar      1 RES1   0.0000
    24 C15     -0.3459   5.9666   1.9688   C.ar      1 RES1   0.0000
    25 C16     -0.7874   6.8325   2.9417   C.ar      1 RES1   0.0000
    26 C17     -0.9998   6.3715   4.2131   C.ar      1 RES1   0.0000
    27 C18     -0.7820   5.0173   4.5446   C.ar      1 RES1   0.0000
    28 C19     -0.3198   4.1534   3.5488   C.ar      1 RES1   0.0000
    29 C20     -0.0918   2.7295   3.8410   C.2       1 RES1   0.0000
    30 C21     -0.5512   0.6703   4.5053   C.2       1 RES1   0.0000
    31 C22      0.6829   0.6955   3.9388   C.2       1 RES1   0.0000
    32 C23      1.7548  -0.2421   3.7559   C.2       1 RES1   0.0000
    33 C24      4.0490  -0.4998   3.0522   C.3       1 RES1   0.0000
    34 C25      4.9023   0.3448   2.1390   C.3       1 RES1   0.0000
    35 C26      5.6364   2.6172   1.7122   C.3       1 RES1   0.0000
    36 H1       0.9751  -0.1414   1.2371   H         1 RES1   0.0000
    37 H2       0.9771  -2.4583   0.9285   H         1 RES1   0.0000
    38 H3       2.2425  -3.4153  -0.7773   H         1 RES1   0.0000
    39 H4       3.3887  -2.0534  -2.2825   H         1 RES1   0.0000
    40 H5       3.3858   0.2576  -2.0119   H         1 RES1   0.0000
    41 H6       1.9957   2.3847  -2.0640   H         1 RES1   0.0000
    42 H7       2.3621   4.6880  -1.1800   H         1 RES1   0.0000
    43 H8       2.9824   5.5830   1.5839   H         1 RES1   0.0000
    44 H9       4.2010   5.2401   4.0023   H         1 RES1   0.0000
    45 H10      2.6865   5.5210   4.1877   H         1 RES1   0.0000
    46 H11      4.0563   4.1437   5.7018   H         1 RES1   0.0000
    47 H12      2.5068   4.1243   5.6383   H         1 RES1   0.0000
    48 H13      4.2742   2.5145   4.8711   H         1 RES1   0.0000
    49 H14      3.8961   1.8694   6.6772   H         1 RES1   0.0000
    50 H15      3.3897   0.7826   5.6941   H         1 RES1   0.0000
    51 H16      2.3721   1.7222   6.4016   H         1 RES1   0.0000
    52 H17      0.1817   4.0468   1.5941   H         1 RES1   0.0000
    53 H18     -0.1979   6.2823   1.0847   H         1 RES1   0.0000
    54 H19     -0.9442   7.7469   2.7334   H         1 RES1   0.0000
    55 H20     -1.2983   6.9720   4.8838   H         1 RES1   0.0000
    56 H21     -0.9472   4.7016   5.4249   H         1 RES1   0.0000
    57 H22     -1.8723   2.2317   4.7568   H         1 RES1   0.0000
    58 H23     -0.9942  -0.0852   4.8736   H         1 RES1   0.0000
    59 H24      1.6806  -1.1623   3.9756   H         1 RES1   0.0000
    60 H25      4.4946  -0.6509   3.8778   H         1 RES1   0.0000
    61 H26      3.8478  -1.3328   2.6432   H         1 RES1   0.0000
    62 H27      5.7944   0.0174   2.1478   H         1 RES1   0.0000
    63 H28      4.5581   0.3003   1.2549   H         1 RES1   0.0000
    64 H29      5.3382   1.7551   3.4409   H         1 RES1   0.0000
    65 H30      6.5499   2.6249   1.9713   H         1 RES1   0.0000
    66 H31      5.2848   3.4986   1.7643   H         1 RES1   0.0000
    67 H32      5.5577   2.2917   0.8231   H         1 RES1   0.0000
    68 Cl1     -1.6816  -7.8604   1.0509   Cl        2 RES2   0.0000
    69 O1      -1.7961  -8.9305   1.9662   O.3       2 RES2  -1.0000
    70 O2      -2.8200  -7.1696   0.9666   O.2       2 RES2   0.0000
    71 O3      -0.6796  -6.9158   1.4277   O.2       2 RES2   0.0000
    72 O4      -1.2464  -8.3377  -0.1448   O.2       2 RES2   0.0000
    73 Cl2     -0.9119  -3.2958   4.4405   Cl        3 RES3   0.0000
    74 O5      -1.6022  -4.3374   4.9536   O.3       3 RES3  -1.0000
    75 O6      -1.7872  -2.2626   3.9299   O.2       3 RES3   0.0000
    76 O7      -0.0656  -2.7469   5.3550   O.2       3 RES3   0.0000
    77 O8      -0.0891  -3.6942   3.3520   O.2       3 RES3   0.0000
@<TRIPOS>BOND
     1     1     3    1
     2     2    16    1
     3     3    16    2
     4     4     1    1
     5     5     1    1
     6     6    29    1
     7     7     1    1
     8     8     1    1
     9     9     1    1
    10    10    11   ar
    11    11    12   ar
    12    12    13   ar
    13    13    14   ar
    14    14    15   ar
    15    15    10   ar
    16    16    15    1
    17    17     2    1
    18    18     3    1
    19    19     4    2
    20    20     4    1
    21    21     5    1
    22    22     5    1
    23    23    24   ar
    24    24    25   ar
    25    25    26   ar
    26    26    27   ar
    27    27    28   ar
    28    28    23   ar
    29    29     7    2
    30    30     6    1
    31    31     7    1
    32    32     8    2
    33    33     8    1
    34    34     9    1
    35    35     9    1
    36    36    10    1
    37    37    11    1
    38    38    12    1
    39    39    13    1
    40    40    14    1
    41    41     2    1
    42    42    17    1
    43    43    19    1
    44    44    20    1
    45    45    20    1
    46    46    21    1
    47    47    21    1
    48    48     5    1
    49    49    22    1
    50    50    22    1
    51    51    22    1
    52    52    23    1
    53    53    24    1
    54    54    25    1
    55    55    26    1
    56    56    27    1
    57    57     6    1
    58    58    30    1
    59    59    32    1
    60    60    33    1
    61    61    33    1
    62    62    34    1
    63    63    34    1
    64    64     9    1
    65    65    35    1
    66    66    35    1
    67    67    35    1
    68    17    18    2
    69    18    19    1
    70    20    21    1
    71    28    29    1
    72    30    31    2
    73    31    32    1
    74    33    34    1
    75    68    69    1
    76    70    68    2
    77    71    68    2
    78    72    68    2
    79    73    74    1
    80    75    73    2
    81    76    73    2
    82    77    73    2
@<TRIPOS>SUBSTRUCTURE
     1 RES1        1 GROUP             0 ****  ****    0  
     2 RES2       68 GROUP             0 ****  ****    0  
     3 RES3       73 GROUP             0 ****  ****    0  
@<TRIPOS>CRYSIN
   12.3960   19.3720   12.7110   90.0000   92.2000   90.0000   231     1
