@<TRIPOS>MOLECULE
KAYYOC
    80    85     1     0     0
SMALL
NO_CHARGES
****
Generated from the CSD

@<TRIPOS>ATOM
     1 Fe1      8.7551   4.4053   8.5298   Fe        1 RES1   0.0000
     2 N1       9.4551   7.4094   8.2512   N.pl3     1 RES1   0.0000
     3 N2       9.7737   6.7450  10.2764   N.pl3     1 RES1   0.0000
     4 C1       7.8519   2.7809   7.4140   C.ar      1 RES1   0.0000
     5 C2       8.0423   2.3651   8.8117   C.ar      1 RES1   0.0000
     6 C3       9.4637   2.2983   9.0128   C.ar      1 RES1   0.0000
     7 H1       9.8808   2.0520   9.8301   H         1 RES1   0.0000
     8 C4      10.1577   2.6476   7.8333   C.ar      1 RES1   0.0000
     9 C5       9.1732   2.9385   6.8695   C.ar      1 RES1   0.0000
    10 H2       9.3579   3.2042   5.9763   H         1 RES1   0.0000
    11 C6       6.6433   2.7973   6.4475   C.3       1 RES1   0.0000
    12 C7       6.8751   3.8200   5.3201   C.3       1 RES1   0.0000
    13 H3       7.6788   3.5739   4.8161   H         1 RES1   0.0000
    14 H4       6.9930   4.7124   5.7076   H         1 RES1   0.0000
    15 H5       6.1012   3.8245   4.7189   H         1 RES1   0.0000
    16 C8       5.2973   3.1582   7.0852   C.3       1 RES1   0.0000
    17 H6       5.3743   4.0200   7.5451   H         1 RES1   0.0000
    18 H7       5.0454   2.4648   7.7305   H         1 RES1   0.0000
    19 H8       4.6116   3.2199   6.3878   H         1 RES1   0.0000
    20 C9       6.5198   1.4162   5.7737   C.3       1 RES1   0.0000
    21 H9       5.7544   1.4185   5.1618   H         1 RES1   0.0000
    22 H10      6.3879   0.7288   6.4595   H         1 RES1   0.0000
    23 H11      7.3390   1.2236   5.2714   H         1 RES1   0.0000
    24 C10      7.0769   1.8332   9.8920   C.3       1 RES1   0.0000
    25 C11      5.9883   2.8310  10.3373   C.3       1 RES1   0.0000
    26 H12      5.3596   2.3812  10.9397   H         1 RES1   0.0000
    27 H13      5.5069   3.1620   9.5506   H         1 RES1   0.0000
    28 H14      6.4068   3.5838  10.8049   H         1 RES1   0.0000
    29 C12      6.4152   0.5314   9.3993   C.3       1 RES1   0.0000
    30 H15      7.1093  -0.1122   9.1455   H         1 RES1   0.0000
    31 H16      5.8502   0.7258   8.6225   H         1 RES1   0.0000
    32 H17      5.8651   0.1528  10.1166   H         1 RES1   0.0000
    33 C13      7.8523   1.4611  11.1694   C.3       1 RES1   0.0000
    34 H18      8.4975   0.7523  10.9652   H         1 RES1   0.0000
    35 H19      7.2245   1.1446  11.8521   H         1 RES1   0.0000
    36 H20      8.3284   2.2497  11.5040   H         1 RES1   0.0000
    37 C14     11.6648   2.6565   7.6045   C.3       1 RES1   0.0000
    38 C15     12.4251   2.3870   8.9062   C.3       1 RES1   0.0000
    39 H21     12.2089   3.0834   9.5609   H         1 RES1   0.0000
    40 H22     13.3889   2.3932   8.7289   H         1 RES1   0.0000
    41 H23     12.1640   1.5119   9.2618   H         1 RES1   0.0000
    42 C16     12.0303   1.5565   6.5976   C.3       1 RES1   0.0000
    43 H24     11.8119   0.6801   6.9776   H         1 RES1   0.0000
    44 H25     12.9898   1.5980   6.4024   H         1 RES1   0.0000
    45 H26     11.5226   1.6895   5.7699   H         1 RES1   0.0000
    46 C17     12.1210   4.0028   7.0310   C.3       1 RES1   0.0000
    47 H27     11.7173   4.1352   6.1478   H         1 RES1   0.0000
    48 H28     13.0974   4.0085   6.9481   H         1 RES1   0.0000
    49 H29     11.8398   4.7253   7.6304   H         1 RES1   0.0000
    50 C18      9.3692   6.2898   9.0412   C.3       1 RES1   0.0000
    51 C19      9.9075   8.5034   8.9689   C.2       1 RES1   0.0000
    52 H30     10.0507   9.3804   8.6328   H         1 RES1   0.0000
    53 C20     10.1049   8.0900  10.2273   C.2       1 RES1   0.0000
    54 H31     10.4145   8.6205  10.9521   H         1 RES1   0.0000
    55 C21      8.9449   7.5090   6.8437   C.3       1 RES1   0.0000
    56 C22      9.2158   8.9143   6.3046   C.3       1 RES1   0.0000
    57 H32      8.7598   9.5739   6.8679   H         1 RES1   0.0000
    58 H33      8.8810   8.9819   5.3860   H         1 RES1   0.0000
    59 H34     10.1804   9.0875   6.3142   H         1 RES1   0.0000
    60 C23      9.6728   6.4988   5.9634   C.3       1 RES1   0.0000
    61 H35     10.6342   6.6887   5.9745   H         1 RES1   0.0000
    62 H36      9.3375   6.5645   5.0448   H         1 RES1   0.0000
    63 H37      9.5147   5.5940   6.3049   H         1 RES1   0.0000
    64 C24      7.4362   7.2634   6.8755   C.3       1 RES1   0.0000
    65 H38      7.2570   6.3798   7.2596   H         1 RES1   0.0000
    66 H39      7.0796   7.3016   5.9635   H         1 RES1   0.0000
    67 H40      7.0047   7.9515   7.4241   H         1 RES1   0.0000
    68 C25      9.6558   5.9763  11.5539   C.3       1 RES1   0.0000
    69 C26     10.0325   6.8514  12.7391   C.3       1 RES1   0.0000
    70 H41     10.9683   7.1299  12.6550   H         1 RES1   0.0000
    71 H42      9.9160   6.3443  13.5695   H         1 RES1   0.0000
    72 H43      9.4560   7.6436  12.7564   H         1 RES1   0.0000
    73 C27     10.5581   4.7533  11.5118   C.3       1 RES1   0.0000
    74 H44     10.3577   4.2269  10.7099   H         1 RES1   0.0000
    75 H45     10.4030   4.2054  12.3094   H         1 RES1   0.0000
    76 H46     11.4951   5.0394  11.4891   H         1 RES1   0.0000
    77 C28      8.1897   5.5606  11.6956   C.3       1 RES1   0.0000
    78 H47      7.6235   6.3607  11.7105   H         1 RES1   0.0000
    79 H48      8.0710   5.0611  12.5303   H         1 RES1   0.0000
    80 H49      7.9357   4.9949  10.9371   H         1 RES1   0.0000
@<TRIPOS>BOND
     1     1     4   un
     2     2    50    1
     3     3    50    1
     4     4     5   ar
     5     5     1   un
     6     6     1   un
     7     7     6    1
     8     8     1   un
     9     9     1   un
    10    10     9    1
    11    11     4    1
    12    12    11    1
    13    13    12    1
    14    14    12    1
    15    15    12    1
    16    16    11    1
    17    17    16    1
    18    18    16    1
    19    19    16    1
    20    20    11    1
    21    21    20    1
    22    22    20    1
    23    23    20    1
    24    24     5    1
    25    25    24    1
    26    26    25    1
    27    27    25    1
    28    28    25    1
    29    29    24    1
    30    30    29    1
    31    31    29    1
    32    32    29    1
    33    33    24    1
    34    34    33    1
    35    35    33    1
    36    36    33    1
    37    37     8    1
    38    38    37    1
    39    39    38    1
    40    40    38    1
    41    41    38    1
    42    42    37    1
    43    43    42    1
    44    44    42    1
    45    45    42    1
    46    46    37    1
    47    47    46    1
    48    48    46    1
    49    49    46    1
    50    50     1    1
    51    51     2    1
    52    52    51    1
    53    53     3    1
    54    54    53    1
    55    55     2    1
    56    56    55    1
    57    57    56    1
    58    58    56    1
    59    59    56    1
    60    60    55    1
    61    61    60    1
    62    62    60    1
    63    63    60    1
    64    64    55    1
    65    65    64    1
    66    66    64    1
    67    67    64    1
    68    68     3    1
    69    69    68    1
    70    70    69    1
    71    71    69    1
    72    72    69    1
    73    73    68    1
    74    74    73    1
    75    75    73    1
    76    76    73    1
    77    77    68    1
    78    78    77    1
    79    79    77    1
    80    80    77    1
    81     4     9   ar
    82     5     6   ar
    83     6     8   ar
    84     8     9   ar
    85    51    53    2
@<TRIPOS>SUBSTRUCTURE
     1 RES1        1 GROUP             0 ****  ****    0  
@<TRIPOS>CRYSIN
   16.3260    9.9066   18.0105   90.0000  111.3570   90.0000    14     1
