@<TRIPOS>MOLECULE
KCROFE
   144   162     2     0     0
SMALL
USER_CHARGES
****
Generated from the CSD

@<TRIPOS>ATOM
     1 Fe1      0.0000   0.0000   0.0000   Fe        1 RES1   0.0000
     2 S1       1.1279   0.8017   1.8820   S.3       1 RES1   0.0000
     3 C1       0.0822   0.5985   3.2996   C.ar      1 RES1   0.0000
     4 C2       0.0266  -0.6114   3.9839   C.ar      1 RES1   0.0000
     5 C3      -0.7864  -0.7659   5.0711   C.ar      1 RES1   0.0000
     6 C4      -1.5793   0.2674   5.5154   C.ar      1 RES1   0.0000
     7 C5      -1.5435   1.4771   4.8579   C.ar      1 RES1   0.0000
     8 C6      -0.7294   1.6371   3.7562   C.ar      1 RES1   0.0000
     9 N1      -0.8326   1.8222  -0.1931   N.2       1 RES1   0.0000
    10 N2      -1.6108  -0.6207   1.0169   N.2       1 RES1   0.0000
    11 C7      -0.2844   2.9058  -0.8483   C.2       1 RES1   0.0000
    12 C8      -1.1676   4.0351  -0.7110   C.2       1 RES1   0.0000
    13 C9      -2.2253   3.6397   0.0179   C.2       1 RES1   0.0000
    14 C10     -2.0255   2.2529   0.3282   C.2       1 RES1   0.0000
    15 C11     -2.9328   1.4612   1.0348   C.2       1 RES1   0.0000
    16 C12     -2.7186   0.1246   1.3641   C.2       1 RES1   0.0000
    17 C13     -3.6133  -0.6659   2.1733   C.2       1 RES1   0.0000
    18 C14     -3.0476  -1.8776   2.3095   C.2       1 RES1   0.0000
    19 C15     -1.8099  -1.8599   1.5884   C.2       1 RES1   0.0000
    20 C16      0.9233   2.9243  -1.5214   C.2       1 RES1   0.0000
    21 C17     -4.2294   2.0917   1.4333   C.ar      1 RES1   0.0000
    22 C18     -4.2900   3.1110   2.3798   C.ar      1 RES1   0.0000
    23 C19     -5.4914   3.7474   2.6567   C.ar      1 RES1   0.0000
    24 C20     -6.6471   3.3456   2.0226   C.ar      1 RES1   0.0000
    25 C21     -6.6169   2.3219   1.1084   C.ar      1 RES1   0.0000
    26 C22     -5.4050   1.7068   0.8160   C.ar      1 RES1   0.0000
    27 C23      1.2763   4.1931  -2.2459   C.ar      1 RES1   0.0000
    28 C24      2.1442   5.1217  -1.6889   C.ar      1 RES1   0.0000
    29 C25      2.3875   6.3220  -2.3419   C.ar      1 RES1   0.0000
    30 C26      1.7930   6.5998  -3.5441   C.ar      1 RES1   0.0000
    31 C27      0.9455   5.6837  -4.1167   C.ar      1 RES1   0.0000
    32 C28      0.6823   4.4902  -3.4704   C.ar      1 RES1   0.0000
    33 H1      -0.7827  -1.5430   5.4562   H         1 RES1   0.0000
    34 H2      -2.0413   0.2039   6.3325   H         1 RES1   0.0000
    35 H3      -2.1176   2.1729   5.1347   H         1 RES1   0.0000
    36 H4      -0.7860   2.4393   3.2773   H         1 RES1   0.0000
    37 H5      -0.9688   4.8506  -1.0459   H         1 RES1   0.0000
    38 H6      -2.9389   4.1538   0.2835   H         1 RES1   0.0000
    39 H7      -4.4218  -0.3378   2.5986   H         1 RES1   0.0000
    40 H8      -3.4845   3.4217   2.8342   H         1 RES1   0.0000
    41 H9      -5.5123   4.4005   3.3007   H         1 RES1   0.0000
    42 H10     -7.4647   3.7407   2.2392   H         1 RES1   0.0000
    43 H11     -7.3810   2.0432   0.6541   H         1 RES1   0.0000
    44 H12     -5.4329   1.0637   0.1540   H         1 RES1   0.0000
    45 H13      2.5408   4.9649  -0.8841   H         1 RES1   0.0000
    46 H14      2.8860   6.8912  -1.9880   H         1 RES1   0.0000
    47 H15      1.9993   7.4146  -4.0185   H         1 RES1   0.0000
    48 H16      0.5431   5.8062  -5.0064   H         1 RES1   0.0000
    49 H17      0.1148   3.8912  -3.8767   H         1 RES1   0.0000
    50 H18      0.5255  -1.3341   3.6144   H         1 RES1   0.0000
    51 H19     -3.3255  -2.5444   2.8464   H         1 RES1   0.0000
    52 S1A     -1.1279  -0.8017  -1.8820   S.3       1 RES1  -1.0000
    53 N1A      0.8326  -1.8222   0.1931   N.2       1 RES1   0.0000
    54 N2A      1.6108   0.6207  -1.0169   N.2       1 RES1   0.0000
    55 C16A    -0.9233  -2.9243   1.5214   C.2       1 RES1   0.0000
    56 C15A     1.8099   1.8599  -1.5884   C.2       1 RES1   0.0000
    57 C1A     -0.0822  -0.5985  -3.2996   C.ar      1 RES1   0.0000
    58 C7A      0.2844  -2.9058   0.8483   C.2       1 RES1   0.0000
    59 C10A     2.0255  -2.2529  -0.3282   C.2       1 RES1   0.0000
    60 C12A     2.7186  -0.1246  -1.3641   C.2       1 RES1   0.0000
    61 C23A    -1.2763  -4.1931   2.2459   C.ar      1 RES1   0.0000
    62 C14A     3.0476   1.8776  -2.3095   C.2       1 RES1   0.0000
    63 C2A     -0.0266   0.6114  -3.9839   C.ar      1 RES1   0.0000
    64 C6A      0.7294  -1.6371  -3.7562   C.ar      1 RES1   0.0000
    65 C8A      1.1676  -4.0351   0.7110   C.2       1 RES1   0.0000
    66 C9A      2.2253  -3.6397  -0.0179   C.2       1 RES1   0.0000
    67 C11A     2.9328  -1.4612  -1.0348   C.2       1 RES1   0.0000
    68 C13A     3.6133   0.6659  -2.1733   C.2       1 RES1   0.0000
    69 C24A    -2.1442  -5.1217   1.6889   C.ar      1 RES1   0.0000
    70 C28A    -0.6823  -4.4902   3.4704   C.ar      1 RES1   0.0000
    71 H19A     3.3255   2.5444  -2.8464   H         1 RES1   0.0000
    72 C3A      0.7864   0.7659  -5.0711   C.ar      1 RES1   0.0000
    73 H18A    -0.5255   1.3341  -3.6144   H         1 RES1   0.0000
    74 C5A      1.5435  -1.4771  -4.8579   C.ar      1 RES1   0.0000
    75 H4A      0.7860  -2.4393  -3.2773   H         1 RES1   0.0000
    76 H5A      0.9688  -4.8506   1.0459   H         1 RES1   0.0000
    77 H6A      2.9389  -4.1538  -0.2835   H         1 RES1   0.0000
    78 C17A     4.2294  -2.0917  -1.4333   C.ar      1 RES1   0.0000
    79 H7A      4.4218   0.3378  -2.5986   H         1 RES1   0.0000
    80 C25A    -2.3875  -6.3220   2.3419   C.ar      1 RES1   0.0000
    81 H13A    -2.5408  -4.9649   0.8841   H         1 RES1   0.0000
    82 C27A    -0.9455  -5.6837   4.1167   C.ar      1 RES1   0.0000
    83 H17A    -0.1148  -3.8912   3.8767   H         1 RES1   0.0000
    84 C4A      1.5793  -0.2674  -5.5154   C.ar      1 RES1   0.0000
    85 H1A      0.7827   1.5430  -5.4562   H         1 RES1   0.0000
    86 H3A      2.1176  -2.1729  -5.1347   H         1 RES1   0.0000
    87 C18A     4.2900  -3.1110  -2.3798   C.ar      1 RES1   0.0000
    88 C22A     5.4050  -1.7068  -0.8160   C.ar      1 RES1   0.0000
    89 C26A    -1.7930  -6.5998   3.5441   C.ar      1 RES1   0.0000
    90 H14A    -2.8860  -6.8912   1.9880   H         1 RES1   0.0000
    91 H16A    -0.5431  -5.8062   5.0064   H         1 RES1   0.0000
    92 H2A      2.0413  -0.2039  -6.3325   H         1 RES1   0.0000
    93 C19A     5.4914  -3.7474  -2.6567   C.ar      1 RES1   0.0000
    94 H8A      3.4845  -3.4217  -2.8342   H         1 RES1   0.0000
    95 C21A     6.6169  -2.3219  -1.1084   C.ar      1 RES1   0.0000
    96 H12A     5.4329  -1.0637  -0.1540   H         1 RES1   0.0000
    97 H15A    -1.9993  -7.4146   4.0185   H         1 RES1   0.0000
    98 C20A     6.6471  -3.3456  -2.0226   C.ar      1 RES1   0.0000
    99 H9A      5.5123  -4.4005  -3.3007   H         1 RES1   0.0000
   100 H11A     7.3810  -2.0432  -0.6541   H         1 RES1   0.0000
   101 H10A     7.4647  -3.7407  -2.2392   H         1 RES1   0.0000
   102 K1       6.2452  -2.0855   5.5812   K         2 RES2   1.0000
   103 O1       4.6886  -0.8372   3.6702   O.3       2 RES2   0.0000
   104 O2       5.3847   0.5118   6.0467   O.3       2 RES2   0.0000
   105 O3       7.3357  -0.5938   7.6552   O.3       2 RES2   0.0000
   106 C29      3.9647   0.2893   4.1681   C.3       2 RES2   0.0000
   107 C30      4.9170   1.1940   4.8802   C.3       2 RES2   0.0000
   108 C31      6.2674   1.3095   6.8069   C.3       2 RES2   0.0000
   109 C32      6.6519   0.5789   8.0414   C.3       2 RES2   0.0000
   110 C33      7.7640  -1.3640   8.7692   C.3       2 RES2   0.0000
   111 C34      3.8822  -1.6769   2.8609   C.3       2 RES2   0.0000
   112 H20      3.5044   0.8358   3.5530   H         2 RES2   0.0000
   113 H21      3.2456  -0.0306   4.7742   H         2 RES2   0.0000
   114 H22      4.4768   1.9620   5.1459   H         2 RES2   0.0000
   115 H23      5.6780   1.4229   4.2853   H         2 RES2   0.0000
   116 H24      7.0763   1.5788   6.2186   H         2 RES2   0.0000
   117 H25      5.8299   2.0853   7.0402   H         2 RES2   0.0000
   118 H26      7.2973   1.1173   8.6509   H         2 RES2   0.0000
   119 H27      5.8808   0.3805   8.6018   H         2 RES2   0.0000
   120 H28      8.2190  -0.8371   9.2950   H         2 RES2   0.0000
   121 H29      7.0097  -1.6551   9.3218   H         2 RES2   0.0000
   122 H30      3.1143  -1.9503   3.4425   H         2 RES2   0.0000
   123 H31      3.5297  -1.2027   2.1566   H         2 RES2   0.0000
   124 O1A      7.8018  -3.3339   7.4923   O.3       2 RES2   0.0000
   125 O2A      7.1057  -4.6829   5.1158   O.3       2 RES2   0.0000
   126 O3A      5.1547  -3.5773   3.5072   O.3       2 RES2   0.0000
   127 C34A     8.6082  -2.4941   8.3015   C.3       2 RES2   0.0000
   128 C33A     4.7264  -2.8070   2.3932   C.3       2 RES2   0.0000
   129 C29A     8.5257  -4.4604   6.9944   C.3       2 RES2   0.0000
   130 C30A     7.5735  -5.3650   6.2822   C.3       2 RES2   0.0000
   131 C31A     6.2230  -5.4805   4.3556   C.3       2 RES2   0.0000
   132 C32A     5.8385  -4.7499   3.1210   C.3       2 RES2   0.0000
   133 H30A     9.3761  -2.2207   7.7200   H         2 RES2   0.0000
   134 H31A     8.9607  -2.9684   9.0059   H         2 RES2   0.0000
   135 H28A     4.2714  -3.3339   1.8675   H         2 RES2   0.0000
   136 H29A     5.4807  -2.5159   1.8407   H         2 RES2   0.0000
   137 H20A     8.9860  -5.0068   7.6095   H         2 RES2   0.0000
   138 H21A     9.2448  -4.1404   6.3883   H         2 RES2   0.0000
   139 H22A     8.0137  -6.1331   6.0166   H         2 RES2   0.0000
   140 H23A     6.8124  -5.5939   6.8772   H         2 RES2   0.0000
   141 H24A     5.4141  -5.7498   4.9439   H         2 RES2   0.0000
   142 H25A     6.6605  -6.2563   4.1223   H         2 RES2   0.0000
   143 H26A     5.1931  -5.2884   2.5116   H         2 RES2   0.0000
   144 H27A     6.6096  -4.5515   2.5607   H         2 RES2   0.0000
@<TRIPOS>BOND
     1     1     2    1
     2     2     3    1
     3     3     4   ar
     4     4     5   ar
     5     5     6   ar
     6     6     7   ar
     7     7     8   ar
     8     8     3   ar
     9     9     1    1
    10    10     1    1
    11    11     9    2
    12    12    11    1
    13    13    12    2
    14    14     9    1
    15    15    14    2
    16    16    10    1
    17    17    16    2
    18    18    17    1
    19    19    10    1
    20    20    11    1
    21    21    15    1
    22    22    21   ar
    23    23    22   ar
    24    24    23   ar
    25    25    24   ar
    26    26    21   ar
    27    27    20    1
    28    28    27   ar
    29    29    28   ar
    30    30    29   ar
    31    31    30   ar
    32    32    27   ar
    33    33     5    1
    34    34     6    1
    35    35     7    1
    36    36     8    1
    37    37    12    1
    38    38    13    1
    39    39    17    1
    40    40    22    1
    41    41    23    1
    42    42    24    1
    43    43    25    1
    44    44    26    1
    45    45    28    1
    46    46    29    1
    47    47    30    1
    48    48    31    1
    49    49    32    1
    50    50     4    1
    51    51    18    1
    52    52     1    1
    53    53     1    1
    54    54     1    1
    55    55    19    1
    56    56    20    2
    57    57    52    1
    58    58    53    1
    59    59    53    2
    60    60    54    1
    61    61    55    1
    62    62    56    1
    63    63    57   ar
    64    64    57   ar
    65    65    58    1
    66    66    59    1
    67    67    59    1
    68    68    60    1
    69    69    61   ar
    70    70    61   ar
    71    71    62    1
    72    72    63   ar
    73    73    63    1
    74    74    64   ar
    75    75    64    1
    76    76    65    1
    77    77    66    1
    78    78    67    1
    79    79    68    1
    80    80    69   ar
    81    81    69    1
    82    82    70   ar
    83    83    70    1
    84    84    72   ar
    85    85    72    1
    86    86    74    1
    87    87    78   ar
    88    88    78   ar
    89    89    80   ar
    90    90    80    1
    91    91    82    1
    92    92    84    1
    93    93    87   ar
    94    94    87    1
    95    95    88   ar
    96    96    88    1
    97    97    89    1
    98    98    93   ar
    99    99    93    1
   100   100    95    1
   101   101    98    1
   102    13    14    1
   103    15    16    1
   104    18    19    2
   105    25    26   ar
   106    31    32   ar
   107    54    56    1
   108    55    58    2
   109    60    67    2
   110    62    68    2
   111    65    66    2
   112    74    84   ar
   113    82    89   ar
   114    95    98   ar
   115   102   103    1
   116   103   106    1
   117   104   102    1
   118   105   102    1
   119   106   107    1
   120   107   104    1
   121   108   104    1
   122   109   105    1
   123   110   105    1
   124   111   103    1
   125   112   106    1
   126   113   106    1
   127   114   107    1
   128   115   107    1
   129   116   108    1
   130   117   108    1
   131   118   109    1
   132   119   109    1
   133   120   110    1
   134   121   110    1
   135   122   111    1
   136   123   111    1
   137   124   102    1
   138   125   102    1
   139   126   102    1
   140   127   110    1
   141   128   111    1
   142   129   124    1
   143   130   125    1
   144   131   125    1
   145   132   126    1
   146   133   127    1
   147   134   127    1
   148   135   128    1
   149   136   128    1
   150   137   129    1
   151   138   129    1
   152   139   130    1
   153   140   130    1
   154   141   131    1
   155   142   131    1
   156   143   132    1
   157   144   132    1
   158   108   109    1
   159   124   127    1
   160   126   128    1
   161   129   130    1
   162   131   132    1
@<TRIPOS>SUBSTRUCTURE
     1 RES1        1 GROUP             0 ****  ****    0  
     2 RES2      102 GROUP             0 ****  ****    0  
@<TRIPOS>CRYSIN
   11.5170   11.5540   11.9560  107.8700   85.3300   72.0700     2     1
