@<TRIPOS>MOLECULE
KEBSIV
   121   132     2     0     0
SMALL
NO_CHARGES
****
Generated from the CSD

@<TRIPOS>ATOM
     1 Fe1      4.5138   2.5052   0.0000   Fe        1 RES1   0.0000
     2 B1       4.5502   2.4584  -3.1339   B         1 RES1   0.0000
     3 N1       3.4106   3.6590  -1.1848   N.ar      1 RES1   0.0000
     4 N2       4.0814   0.9320  -1.1398   N.ar      1 RES1   0.0000
     5 N3       6.1011   2.8719  -1.1050   N.ar      1 RES1   0.0000
     6 C1       3.4513   3.5175  -2.5397   C.ar      1 RES1   0.0000
     7 C2       2.4977   4.2082  -3.3045   C.ar      1 RES1   0.0000
     8 H1       2.4710   4.0674  -4.2429   H         1 RES1   0.0000
     9 C3       1.5969   5.0849  -2.7360   C.ar      1 RES1   0.0000
    10 H2       0.9767   5.5615  -3.2741   H         1 RES1   0.0000
    11 C4       1.6173   5.2546  -1.3587   C.ar      1 RES1   0.0000
    12 H3       1.0272   5.8641  -0.9311   H         1 RES1   0.0000
    13 C5       2.5198   4.5124  -0.6294   C.ar      1 RES1   0.0000
    14 H4       2.5163   4.6045   0.3171   H         1 RES1   0.0000
    15 C6       4.0237   1.0389  -2.4997   C.ar      1 RES1   0.0000
    16 C7       3.4767  -0.0251  -3.2265   C.ar      1 RES1   0.0000
    17 H5       3.3704   0.0671  -4.1649   H         1 RES1   0.0000
    18 C8       3.0874  -1.2015  -2.6240   C.ar      1 RES1   0.0000
    19 H6       2.7243  -1.9150  -3.1356   H         1 RES1   0.0000
    20 C9       3.2377  -1.3190  -1.2490   C.ar      1 RES1   0.0000
    21 H7       3.0170  -2.1264  -0.8003   H         1 RES1   0.0000
    22 C10      3.7164  -0.2304  -0.5541   C.ar      1 RES1   0.0000
    23 H8       3.7944  -0.3006   0.3901   H         1 RES1   0.0000
    24 C11      6.0162   2.7600  -2.4587   C.ar      1 RES1   0.0000
    25 C12      7.1916   2.9004  -3.2162   C.ar      1 RES1   0.0000
    26 H9       7.1480   2.8048  -4.1599   H         1 RES1   0.0000
    27 C13      8.4079   3.1738  -2.6220   C.ar      1 RES1   0.0000
    28 H10      9.1962   3.2507  -3.1457   H         1 RES1   0.0000
    29 C14      8.4566   3.3339  -1.2449   C.ar      1 RES1   0.0000
    30 H11      9.2716   3.5503  -0.8078   H         1 RES1   0.0000
    31 C15      7.2935   3.1703  -0.5290   C.ar      1 RES1   0.0000
    32 H12      7.3263   3.2708   0.4152   H         1 RES1   0.0000
    33 C16      4.7310   2.4670  -4.7576   C.ar      1 RES1   0.0000
    34 C17      4.5764   3.6109  -5.5531   C.ar      1 RES1   0.0000
    35 H13      4.3206   4.4231  -5.1313   H         1 RES1   0.0000
    36 C18      4.7787   3.6145  -6.9342   C.ar      1 RES1   0.0000
    37 H14      4.6329   4.4161  -7.4214   H         1 RES1   0.0000
    38 C19      5.1881   2.4724  -7.6131   C.ar      1 RES1   0.0000
    39 C20      5.4405   1.3479  -6.8257   C.ar      1 RES1   0.0000
    40 H15      5.7675   0.5582  -7.2402   H         1 RES1   0.0000
    41 C21      5.2266   1.3510  -5.4549   C.ar      1 RES1   0.0000
    42 H16      5.4250   0.5622  -4.9652   H         1 RES1   0.0000
    43 C22      5.3040   2.3989  -9.1414   C.3       1 RES1   0.0000
    44 C23      4.0250   1.7347  -9.6840   C.3       1 RES1   0.0000
    45 H17      3.9045   0.8608  -9.2559   H         1 RES1   0.0000
    46 H18      3.2532   2.3038  -9.4875   H         1 RES1   0.0000
    47 H19      4.1046   1.6163 -10.6526   H         1 RES1   0.0000
    48 C24      6.5307   1.5644  -9.5461   C.3       1 RES1   0.0000
    49 H20      7.3258   1.9059  -9.0848   H         1 RES1   0.0000
    50 H21      6.3855   0.6283  -9.2962   H         1 RES1   0.0000
    51 H22      6.6629   1.6284 -10.5142   H         1 RES1   0.0000
    52 C25      5.4447   3.7818  -9.7900   C.3       1 RES1   0.0000
    53 H23      5.5055   3.6816 -10.7634   H         1 RES1   0.0000
    54 H24      4.6631   4.3289  -9.5655   H         1 RES1   0.0000
    55 H25      6.2558   4.2187  -9.4548   H         1 RES1   0.0000
    56 B1F      4.4774   2.5520   3.1339   B         1 RES1   0.0000
    57 N1F      5.6171   1.3514   1.1848   N.ar      1 RES1   0.0000
    58 N2F      4.9463   4.0783   1.1398   N.ar      1 RES1   0.0000
    59 N3F      2.9266   2.1384   1.1050   N.ar      1 RES1   0.0000
    60 C1F      5.5763   1.4929   2.5397   C.ar      1 RES1   0.0000
    61 C2F      6.5299   0.8022   3.3045   C.ar      1 RES1   0.0000
    62 H1F      6.5566   0.9429   4.2429   H         1 RES1   0.0000
    63 C3F      7.4308  -0.0746   2.7360   C.ar      1 RES1   0.0000
    64 H2F      8.0510  -0.5511   3.2741   H         1 RES1   0.0000
    65 C4F      7.4103  -0.2442   1.3587   C.ar      1 RES1   0.0000
    66 H3F      8.0005  -0.8538   0.9311   H         1 RES1   0.0000
    67 C5F      6.5078   0.4979   0.6294   C.ar      1 RES1   0.0000
    68 H4F      6.5113   0.4058  -0.3171   H         1 RES1   0.0000
    69 C6F      5.0040   3.9714   2.4997   C.ar      1 RES1   0.0000
    70 C7F      5.5509   5.0354   3.2265   C.ar      1 RES1   0.0000
    71 H5F      5.6573   4.9432   4.1649   H         1 RES1   0.0000
    72 C8F      5.9402   6.2118   2.6240   C.ar      1 RES1   0.0000
    73 H6F      6.3034   6.9253   3.1356   H         1 RES1   0.0000
    74 C9F      5.7899   6.3294   1.2490   C.ar      1 RES1   0.0000
    75 H7F      6.0107   7.1367   0.8003   H         1 RES1   0.0000
    76 C10F     5.3112   5.2407   0.5541   C.ar      1 RES1   0.0000
    77 H8F      5.2332   5.3110  -0.3901   H         1 RES1   0.0000
    78 C11F     3.0115   2.2503   2.4587   C.ar      1 RES1   0.0000
    79 C12F     1.8360   2.1100   3.2162   C.ar      1 RES1   0.0000
    80 H9F      1.8797   2.2056   4.1599   H         1 RES1   0.0000
    81 C13F     0.6197   1.8366   2.6220   C.ar      1 RES1   0.0000
    82 H10F    -0.1686   1.7596   3.1457   H         1 RES1   0.0000
    83 C14F     0.5711   1.6765   1.2449   C.ar      1 RES1   0.0000
    84 H11F    -0.2439   1.4600   0.8078   H         1 RES1   0.0000
    85 C15F     1.7342   1.8400   0.5290   C.ar      1 RES1   0.0000
    86 H12F     1.7013   1.7396  -0.4152   H         1 RES1   0.0000
    87 C16F     4.2966   2.5434   4.7576   C.ar      1 RES1   0.0000
    88 C17F     4.4513   1.3995   5.5531   C.ar      1 RES1   0.0000
    89 H13F     4.7071   0.5872   5.1313   H         1 RES1   0.0000
    90 C18F     4.2490   1.3959   6.9342   C.ar      1 RES1   0.0000
    91 H14F     4.3948   0.5942   7.4214   H         1 RES1   0.0000
    92 C19F     3.8395   2.5379   7.6131   C.ar      1 RES1   0.0000
    93 C20F     3.5871   3.6625   6.8257   C.ar      1 RES1   0.0000
    94 H15F     3.2602   4.4522   7.2402   H         1 RES1   0.0000
    95 C21F     3.8010   3.6594   5.4549   C.ar      1 RES1   0.0000
    96 H16F     3.6027   4.4482   4.9652   H         1 RES1   0.0000
    97 C22F     3.7236   2.6115   9.1414   C.3       1 RES1   0.0000
    98 C23F     5.0027   3.2757   9.6840   C.3       1 RES1   0.0000
    99 H17F     5.1232   4.1496   9.2559   H         1 RES1   0.0000
   100 H18F     5.7744   2.7066   9.4875   H         1 RES1   0.0000
   101 H19F     4.9230   3.3940  10.6526   H         1 RES1   0.0000
   102 C24F     2.4970   3.4459   9.5461   C.3       1 RES1   0.0000
   103 H20F     1.7018   3.1044   9.0848   H         1 RES1   0.0000
   104 H21F     2.6421   4.3821   9.2962   H         1 RES1   0.0000
   105 H22F     2.3648   3.3820  10.5142   H         1 RES1   0.0000
   106 C25F     3.5829   1.2285   9.7900   C.3       1 RES1   0.0000
   107 H23F     3.5222   1.3287  10.7634   H         1 RES1   0.0000
   108 H24F     4.3645   0.6814   9.5655   H         1 RES1   0.0000
   109 H25F     2.7718   0.7916   9.4548   H         1 RES1   0.0000
   110 C26     -1.7311   3.5584   6.2914   C.ar      2 RES2   0.0000
   111 H26     -1.7311   4.5083   6.2914   H         2 RES2   0.0000
   112 C27     -2.9184   2.8597   6.4281   C.ar      2 RES2   0.0000
   113 H27     -3.7384   3.3309   6.5129   H         2 RES2   0.0000
   114 C28     -2.9119   1.4743   6.4404   C.ar      2 RES2   0.0000
   115 H28     -3.7314   1.0071   6.5531   H         2 RES2   0.0000
   116 C29     -1.7311   0.7506   6.2914   C.ar      2 RES2   0.0000
   117 C30     -1.7311  -0.7606   6.2914   C.3       2 RES2   0.0000
   118 C27A    -0.5437   2.8597   6.1548   C.ar      2 RES2   0.0000
   119 H27A     0.2762   3.3309   6.0700   H         2 RES2   0.0000
   120 C28A    -0.5502   1.4743   6.1424   C.ar      2 RES2   0.0000
   121 H28A     0.2693   1.0071   6.0297   H         2 RES2   0.0000
@<TRIPOS>BOND
     1     1     3    1
     2     2     6    1
     3     3     6   ar
     4     4     1    1
     5     5     1    1
     6     6     7   ar
     7     7     8    1
     8     9     7   ar
     9    10     9    1
    10    11     9   ar
    11    12    11    1
    12    13     3   ar
    13    14    13    1
    14    15     2    1
    15    16    15   ar
    16    17    16    1
    17    18    16   ar
    18    19    18    1
    19    20    18   ar
    20    21    20    1
    21    22     4   ar
    22    23    22    1
    23    24     2    1
    24    25    24   ar
    25    26    25    1
    26    27    25   ar
    27    28    27    1
    28    29    27   ar
    29    30    29    1
    30    31     5   ar
    31    32    31    1
    32    33     2    1
    33    34    33   ar
    34    35    34    1
    35    36    34   ar
    36    37    36    1
    37    38    36   ar
    38    39    38   ar
    39    40    39    1
    40    41    33   ar
    41    42    41    1
    42    43    38    1
    43    44    43    1
    44    45    44    1
    45    46    44    1
    46    47    44    1
    47    48    43    1
    48    49    48    1
    49    50    48    1
    50    51    48    1
    51    52    43    1
    52    53    52    1
    53    54    52    1
    54    55    52    1
    55    56    60    1
    56    57     1    1
    57    58     1    1
    58    59     1    1
    59    60    57   ar
    60    61    60   ar
    61    62    61    1
    62    63    61   ar
    63    64    63    1
    64    65    63   ar
    65    66    65    1
    66    67    57   ar
    67    68    67    1
    68    69    56    1
    69    70    69   ar
    70    71    70    1
    71    72    70   ar
    72    73    72    1
    73    74    72   ar
    74    75    74    1
    75    76    58   ar
    76    77    76    1
    77    78    56    1
    78    79    78   ar
    79    80    79    1
    80    81    79   ar
    81    82    81    1
    82    83    81   ar
    83    84    83    1
    84    85    59   ar
    85    86    85    1
    86    87    56    1
    87    88    87   ar
    88    89    88    1
    89    90    88   ar
    90    91    90    1
    91    92    90   ar
    92    93    92   ar
    93    94    93    1
    94    95    87   ar
    95    96    95    1
    96    97    92    1
    97    98    97    1
    98    99    98    1
    99   100    98    1
   100   101    98    1
   101   102    97    1
   102   103   102    1
   103   104   102    1
   104   105   102    1
   105   106    97    1
   106   107   106    1
   107   108   106    1
   108   109   106    1
   109     4    15   ar
   110     5    24   ar
   111    11    13   ar
   112    20    22   ar
   113    29    31   ar
   114    39    41   ar
   115    58    69   ar
   116    59    78   ar
   117    65    67   ar
   118    74    76   ar
   119    83    85   ar
   120    93    95   ar
   121   110   111    1
   122   112   110   ar
   123   113   112    1
   124   114   112   ar
   125   115   114    1
   126   116   114   ar
   127   117   116    1
   128   118   110   ar
   129   119   118    1
   130   120   116   ar
   131   121   120    1
   132   118   120   ar
@<TRIPOS>SUBSTRUCTURE
     1 RES1        1 GROUP             0 ****  ****    0  
     2 RES2      110 GROUP             0 ****  ****    0  
@<TRIPOS>CRYSIN
   18.0553   10.0207   26.1009   90.0000  105.3840   90.0000    15     1
