@<TRIPOS>MOLECULE
KEFFOQ
    95   104     1     0     0
SMALL
NO_CHARGES
****
Generated from the CSD

@<TRIPOS>ATOM
     1 Fe1      8.4382   4.3504  17.2318   Fe        1 RES1   0.0000
     2 F1      10.4121   9.2945  18.3044   F         1 RES1   0.0000
     3 F2      10.8491   9.0677  16.2009   F         1 RES1   0.0000
     4 F3      12.6726   8.4423  19.0613   F         1 RES1   0.0000
     5 F4      13.1490   7.4938  17.1777   F         1 RES1   0.0000
     6 F5       9.4890   4.1229  22.5716   F         1 RES1   0.0000
     7 F6       8.0109   2.5659  22.3264   F         1 RES1   0.0000
     8 F7       7.6477   5.9784  22.9763   F         1 RES1   0.0000
     9 F8       6.0318   4.6519  22.4762   F         1 RES1   0.0000
    10 F9       3.8300   2.0785  15.3623   F         1 RES1   0.0000
    11 F10      3.3845   2.4393  17.4268   F         1 RES1   0.0000
    12 F11      4.7227  -0.3137  15.7553   F         1 RES1   0.0000
    13 F12      4.9137  -0.0435  17.8899   F         1 RES1   0.0000
    14 F13      9.9398   1.8555  12.5934   F         1 RES1   0.0000
    15 F14     11.5157   3.2745  12.8561   F         1 RES1   0.0000
    16 F15      8.4645   3.5258  11.2196   F         1 RES1   0.0000
    17 F16      9.6328   5.2453  11.7742   F         1 RES1   0.0000
    18 F17     12.6673  10.8627  17.7459   F         1 RES1   0.0000
    19 F18     14.4844   9.7423  17.8062   F         1 RES1   0.0000
    20 F19     13.3722   9.8103  16.0083   F         1 RES1   0.0000
    21 F20      8.3414   4.3081  25.0408   F         1 RES1   0.0000
    22 F21      6.3762   5.0582  25.1187   F         1 RES1   0.0000
    23 F22      6.7109   3.0515  24.5583   F         1 RES1   0.0000
    24 F23      2.2364   0.2362  18.1390   F         1 RES1   0.0000
    25 F24      2.0062   0.0964  16.0317   F         1 RES1   0.0000
    26 F25      2.8005  -1.5248  17.0941   F         1 RES1   0.0000
    27 F26     10.7075   2.4677  10.0035   F         1 RES1   0.0000
    28 F27      9.9616   4.3081   9.2543   F         1 RES1   0.0000
    29 F28     11.7465   4.3043  10.4218   F         1 RES1   0.0000
    30 N1       9.7097   5.1735  16.0200   N.2       1 RES1   0.0000
    31 N2       9.1325   5.4248  18.7033   N.2       1 RES1   0.0000
    32 N3       7.1599   3.5050  18.4523   N.2       1 RES1   0.0000
    33 N4       7.7109   3.2632  15.7437   N.2       1 RES1   0.0000
    34 N5       7.1344   5.8159  16.8080   N.ar      1 RES1   0.0000
    35 N6       9.7535   2.9098  17.6545   N.ar      1 RES1   0.0000
    36 C1      10.1460   4.6822  14.7649   C.2       1 RES1   0.0000
    37 C2      11.1239   5.5910  14.2434   C.2       1 RES1   0.0000
    38 C3      11.2462   6.5849  15.0743   C.2       1 RES1   0.0000
    39 C4      10.4140   6.3525  16.2204   C.2       1 RES1   0.0000
    40 C5      10.3638   7.0800  17.4229   C.2       1 RES1   0.0000
    41 C6       9.8450   6.5755  18.6099   C.2       1 RES1   0.0000
    42 C7      10.1163   7.0800  19.9447   C.2       1 RES1   0.0000
    43 C8       9.6547   6.2051  20.8281   C.2       1 RES1   0.0000
    44 C9       8.9898   5.1602  20.0615   C.2       1 RES1   0.0000
    45 C10      8.1587   4.1758  20.5829   C.2       1 RES1   0.0000
    46 C11      7.2412   3.4351  19.8513   C.2       1 RES1   0.0000
    47 C12      6.0943   2.7171  20.3455   C.2       1 RES1   0.0000
    48 C13      5.3331   2.3864  19.3201   C.2       1 RES1   0.0000
    49 C14      6.0353   2.8286  18.1215   C.2       1 RES1   0.0000
    50 C15      5.6653   2.4734  16.8100   C.2       1 RES1   0.0000
    51 C16      6.5349   2.5848  15.7125   C.2       1 RES1   0.0000
    52 C17      6.3820   1.9462  14.4380   C.2       1 RES1   0.0000
    53 C18      7.4932   2.1635  13.7395   C.2       1 RES1   0.0000
    54 C19      8.3361   3.0289  14.5256   C.2       1 RES1   0.0000
    55 C20      9.5316   3.6184  14.1325   C.2       1 RES1   0.0000
    56 C21      6.9761   6.3279  15.5569   C.ar      1 RES1   0.0000
    57 C22      6.2002   7.3653  15.2475   C.ar      1 RES1   0.0000
    58 C23      5.4876   7.9945  16.2437   C.ar      1 RES1   0.0000
    59 C24      5.5565   7.4824  17.5241   C.ar      1 RES1   0.0000
    60 C25      6.3944   6.4224  17.7712   C.ar      1 RES1   0.0000
    61 C26     11.0292   3.1800  17.9249   C.ar      1 RES1   0.0000
    62 C27     11.9808   2.2164  18.2518   C.ar      1 RES1   0.0000
    63 C28     11.5887   0.9391  18.3024   C.ar      1 RES1   0.0000
    64 C29     10.3178   0.5820  17.9755   C.ar      1 RES1   0.0000
    65 C30      9.4183   1.6099  17.6798   C.ar      1 RES1   0.0000
    66 C31     10.9757   8.4461  17.4074   C.3       1 RES1   0.0000
    67 C32     12.5187   8.5254  17.7343   C.3       1 RES1   0.0000
    68 C33     13.2321   9.7876  17.3081   C.3       1 RES1   0.0000
    69 C34      8.2539   3.8924  22.0773   C.3       1 RES1   0.0000
    70 C35      7.2799   4.6765  23.0055   C.3       1 RES1   0.0000
    71 C36      7.1613   4.2552  24.4590   C.3       1 RES1   0.0000
    72 C37      4.3239   1.8612  16.6154   C.3       1 RES1   0.0000
    73 C38      4.1882   0.3439  16.8431   C.3       1 RES1   0.0000
    74 C39      2.7844  -0.2305  17.0182   C.3       1 RES1   0.0000
    75 C40     10.1518   3.1989  12.7899   C.3       1 RES1   0.0000
    76 C41      9.7188   3.9113  11.5465   C.3       1 RES1   0.0000
    77 C42     10.5840   3.7582  10.2778   C.3       1 RES1   0.0000
    78 H1      11.6113   5.4796  13.4028   H         1 RES1   0.0000
    79 H2      11.8236   7.3672  14.9576   H         1 RES1   0.0000
    80 H3      10.5662   7.9208  20.1393   H         1 RES1   0.0000
    81 H4       9.7217   6.2542  21.7991   H         1 RES1   0.0000
    82 H5       5.9018   2.5244  21.2815   H         1 RES1   0.0000
    83 H6       4.4739   1.9424  19.3473   H         1 RES1   0.0000
    84 H7       5.6118   1.4171  14.1403   H         1 RES1   0.0000
    85 H8       7.7168   1.8064  12.8444   H         1 RES1   0.0000
    86 H9       7.4629   5.8726  14.8214   H         1 RES1   0.0000
    87 H10      6.1555   7.6714  14.3096   H         1 RES1   0.0000
    88 H11      4.9338   8.7805  16.0589   H         1 RES1   0.0000
    89 H12      4.9968   7.8301  18.2674   H         1 RES1   0.0000
    90 H13      6.4954   6.0917  18.7013   H         1 RES1   0.0000
    91 H14     11.3154   4.1267  17.9094   H         1 RES1   0.0000
    92 H15     12.8998   2.4752  18.4659   H         1 RES1   0.0000
    93 H16     12.2505   0.2456  18.5340   H         1 RES1   0.0000
    94 H17     10.0334  -0.3590  17.9444   H         1 RES1   0.0000
    95 H18      8.4663   1.3831  17.4930   H         1 RES1   0.0000
@<TRIPOS>BOND
     1     1    30    1
     2     2    66    1
     3     3    66    1
     4     4    67    1
     5     5    67    1
     6     6    69    1
     7     7    69    1
     8     8    70    1
     9     9    70    1
    10    10    72    1
    11    11    72    1
    12    12    73    1
    13    13    73    1
    14    14    75    1
    15    15    75    1
    16    16    76    1
    17    17    76    1
    18    18    68    1
    19    19    68    1
    20    20    68    1
    21    21    71    1
    22    22    71    1
    23    23    71    1
    24    24    74    1
    25    25    74    1
    26    26    74    1
    27    27    77    1
    28    28    77    1
    29    29    77    1
    30    30    36    1
    31    31     1    1
    32    32     1    1
    33    33     1    1
    34    34     1    1
    35    35     1    1
    36    36    37    1
    37    37    38    2
    38    38    39    1
    39    39    30    1
    40    40    39    2
    41    41    31    2
    42    42    41    1
    43    43    42    2
    44    44    31    1
    45    45    44    2
    46    46    32    1
    47    47    46    2
    48    48    47    1
    49    49    32    1
    50    50    49    1
    51    51    33    1
    52    52    51    1
    53    53    52    2
    54    54    33    2
    55    55    36    2
    56    56    34   ar
    57    57    56   ar
    58    58    57   ar
    59    59    58   ar
    60    60    34   ar
    61    61    35   ar
    62    62    61   ar
    63    63    62   ar
    64    64    63   ar
    65    65    35   ar
    66    66    40    1
    67    67    66    1
    68    68    67    1
    69    69    45    1
    70    70    69    1
    71    71    70    1
    72    72    50    1
    73    73    72    1
    74    74    73    1
    75    75    55    1
    76    76    75    1
    77    77    76    1
    78    78    37    1
    79    79    38    1
    80    80    42    1
    81    81    43    1
    82    82    47    1
    83    83    48    1
    84    84    52    1
    85    85    53    1
    86    86    56    1
    87    87    57    1
    88    88    58    1
    89    89    59    1
    90    90    60    1
    91    91    61    1
    92    92    62    1
    93    93    63    1
    94    94    64    1
    95    95    65    1
    96    40    41    1
    97    43    44    1
    98    45    46    1
    99    48    49    2
   100    50    51    2
   101    53    54    1
   102    54    55    1
   103    59    60   ar
   104    64    65   ar
@<TRIPOS>SUBSTRUCTURE
     1 RES1        1 GROUP             0 ****  ****    0  
@<TRIPOS>CRYSIN
   12.7720   18.8950   19.7560   90.0000   99.9600   90.0000   231     1
