@<TRIPOS>MOLECULE
KEFLUD
   166   180     4     0     0
SMALL
USER_CHARGES
****
Generated from the CSD

@<TRIPOS>ATOM
     1 Fe1     -5.2303  13.7823  19.8541   Fe        1 RES1   0.0000
     2 O1      -6.8075  14.9991  19.6041   O.3       1 RES1   0.0000
     3 O2      -8.4750  17.5190  19.6670   O.2       1 RES1   0.0000
     4 O3      -6.5197  19.6958  19.8695   O.2       1 RES1   0.0000
     5 O4      -3.8878  18.5329  20.4608   O.2       1 RES1   0.0000
     6 O5      -4.3198  15.5316  20.3599   O.3       1 RES1  -1.0000
     7 O6      -5.8122  13.2814  21.7507   O.3       1 RES1  -1.0000
     8 O7      -7.1389  11.6419  23.9893   O.2       1 RES1   0.0000
     9 O8      -8.1612   9.2462  22.6621   O.2       1 RES1   0.0000
    10 O9      -7.6477   9.4376  19.7667   O.2       1 RES1   0.0000
    11 O10     -6.2500  12.0854  19.3987   O.3       1 RES1   0.0000
    12 O11     -4.6586  13.9276  17.8777   O.3       1 RES1  -1.0000
    13 O12     -2.9248  13.5335  15.3817   O.2       1 RES1   0.0000
    14 O13     -0.5186  12.1958  16.3272   O.2       1 RES1   0.0000
    15 O14     -0.8066  11.6107  19.2027   O.2       1 RES1   0.0000
    16 O15     -3.4388  12.8553  20.0234   O.3       1 RES1   0.0000
    17 C1      -6.4636  16.2144  19.8268   C.2       1 RES1   0.0000
    18 C2      -7.2628  17.4289  19.7956   C.2       1 RES1   0.0000
    19 C3      -6.2629  18.5090  19.9820   C.2       1 RES1   0.0000
    20 C4      -4.9286  17.9165  20.2551   C.2       1 RES1   0.0000
    21 C5      -5.1388  16.4941  20.1864   C.2       1 RES1   0.0000
    22 C6      -6.4834  12.1571  21.6852   C.2       1 RES1   0.0000
    23 C7      -7.0612  11.4156  22.7842   C.2       1 RES1   0.0000
    24 C8      -7.6115  10.1865  22.0804   C.2       1 RES1   0.0000
    25 C9      -7.3587  10.2858  20.6150   C.2       1 RES1   0.0000
    26 C10     -6.6505  11.5352  20.4447   C.2       1 RES1   0.0000
    27 C11     -3.4964  13.3734  17.7485   C.2       1 RES1   0.0000
    28 C12     -2.6850  13.1876  16.5563   C.2       1 RES1   0.0000
    29 C13     -1.4601  12.4773  17.0319   C.2       1 RES1   0.0000
    30 C14     -1.6020  12.2142  18.5069   C.2       1 RES1   0.0000
    31 C15     -2.8934  12.8067  18.8701   C.2       1 RES1   0.0000
    32 P1       2.0108  16.1581  16.2552   P.3       2 RES2   1.0000
    33 C16      1.1662  16.1059  14.6677   C.ar      2 RES2   0.0000
    34 C17      0.3299  15.0258  14.3422   C.ar      2 RES2   0.0000
    35 H1       0.2274  14.3266  14.9463   H         2 RES2   0.0000
    36 C18     -0.3438  14.9926  13.1371   C.ar      2 RES2   0.0000
    37 H2      -0.9120  14.2824  12.9378   H         2 RES2   0.0000
    38 C19     -0.1658  16.0175  12.2244   C.ar      2 RES2   0.0000
    39 H3      -0.5960  15.9826  11.4017   H         2 RES2   0.0000
    40 C20      0.6375  17.0829  12.5233   C.ar      2 RES2   0.0000
    41 H4       0.7400  17.7766  11.9127   H         2 RES2   0.0000
    42 C21      1.2947  17.1271  13.7380   C.ar      2 RES2   0.0000
    43 H5       1.8362  17.8557  13.9372   H         2 RES2   0.0000
    44 C22      0.8162  16.1629  17.5847   C.ar      2 RES2   0.0000
    45 C23      1.2754  16.0470  18.8926   C.ar      2 RES2   0.0000
    46 H6       2.1899  15.9844  19.0565   H         2 RES2   0.0000
    47 C24      0.3815  16.0231  19.9531   C.ar      2 RES2   0.0000
    48 H7       0.6848  15.9918  20.8304   H         2 RES2   0.0000
    49 C25     -0.9757  16.0488  19.6670   C.ar      2 RES2   0.0000
    50 H8      -1.5845  15.9936  20.3708   H         2 RES2   0.0000
    51 C26     -1.4358  16.1500  18.4234   C.ar      2 RES2   0.0000
    52 H9      -2.3514  16.1905  18.2724   H         2 RES2   0.0000
    53 C27     -0.5573  16.1979  17.3372   C.ar      2 RES2   0.0000
    54 H10     -0.8834  16.2512  16.4695   H         2 RES2   0.0000
    55 C28      2.9893  14.6854  16.4936   C.ar      2 RES2   0.0000
    56 C29      4.3622  14.6706  16.5692   C.ar      2 RES2   0.0000
    57 H11      4.8532  15.4563  16.4888   H         2 RES2   0.0000
    58 C30      5.0082  13.4176  16.7780   C.ar      2 RES2   0.0000
    59 H12      5.9368  13.3716  16.7973   H         2 RES2   0.0000
    60 C31      4.2708  12.2933  16.9516   C.ar      2 RES2   0.0000
    61 H13      4.7063  11.4874  17.1123   H         2 RES2   0.0000
    62 C32      2.9725  12.3117  16.8937   C.ar      2 RES2   0.0000
    63 H14      2.4993  11.5168  16.9805   H         2 RES2   0.0000
    64 C33      2.2885  13.4912  16.7106   C.ar      2 RES2   0.0000
    65 H15      1.3588  13.4949  16.7298   H         2 RES2   0.0000
    66 C34      3.0162  17.6349  16.3163   C.ar      2 RES2   0.0000
    67 C35      2.7404  18.6506  17.1990   C.ar      2 RES2   0.0000
    68 H16      2.0495  18.5476  17.8128   H         2 RES2   0.0000
    69 C36      3.4650  19.8080  17.1926   C.ar      2 RES2   0.0000
    70 H17      3.2362  20.5072  17.7614   H         2 RES2   0.0000
    71 C37      4.5236  19.9332  16.3474   C.ar      2 RES2   0.0000
    72 H18      5.0331  20.7115  16.3603   H         2 RES2   0.0000
    73 C38      4.8484  18.9359  15.4830   C.ar      2 RES2   0.0000
    74 H19      5.5752  19.0334  14.9142   H         2 RES2   0.0000
    75 C39      4.0903  17.7693  15.4541   C.ar      2 RES2   0.0000
    76 H20      4.3037  17.0866  14.8595   H         2 RES2   0.0000
    77 P2      -2.6534   7.9201  19.6638   P.3       3 RES3   1.0000
    78 C40     -3.2878   6.2543  19.4485   C.ar      3 RES3   0.0000
    79 C41     -2.5383   5.1613  19.8759   C.ar      3 RES3   0.0000
    80 H21     -1.6798   5.2680  20.2198   H         3 RES3   0.0000
    81 C42     -3.1288   3.8954  19.7667   C.ar      3 RES3   0.0000
    82 H22     -2.6493   3.1373  20.0173   H         3 RES3   0.0000
    83 C43     -4.4365   3.7647  19.2846   C.ar      3 RES3   0.0000
    84 H23     -4.8328   2.9220  19.2557   H         3 RES3   0.0000
    85 C44     -5.1184   4.8154  18.8733   C.ar      3 RES3   0.0000
    86 H24     -5.9768   4.7068  18.5327   H         3 RES3   0.0000
    87 C45     -4.5524   6.1016  18.9408   C.ar      3 RES3   0.0000
    88 H25     -5.0335   6.8413  18.6483   H         3 RES3   0.0000
    89 C46     -3.3413   8.6003  21.1874   C.ar      3 RES3   0.0000
    90 C47     -3.8919   7.8018  22.1511   C.ar      3 RES3   0.0000
    91 H26     -3.9605   6.8854  22.0065   H         3 RES3   0.0000
    92 C48     -4.3455   8.3335  23.3337   C.ar      3 RES3   0.0000
    93 H27     -4.7203   7.7834  23.9797   H         3 RES3   0.0000
    94 C49     -4.2433   9.6657  23.5458   C.ar      3 RES3   0.0000
    95 H28     -4.5508  10.0282  24.3460   H         3 RES3   0.0000
    96 C50     -3.6900  10.4864  22.5946   C.ar      3 RES3   0.0000
    97 H29     -3.6302  11.4009  22.7521   H         3 RES3   0.0000
    98 C51     -3.2299   9.9675  21.4217   C.ar      3 RES3   0.0000
    99 H30     -2.8449  10.5232  20.7822   H         3 RES3   0.0000
   100 C52     -3.1917   8.9095  18.2749   C.ar      3 RES3   0.0000
   101 C53     -4.4888   9.4357  18.2466   C.ar      3 RES3   0.0000
   102 H31     -5.0424   9.3695  18.9890   H         3 RES3   0.0000
   103 C54     -4.9342  10.0577  17.0801   C.ar      3 RES3   0.0000
   104 H32     -5.7851  10.4349  17.0705   H         3 RES3   0.0000
   105 C55     -4.1580  10.1313  15.9489   C.ar      3 RES3   0.0000
   106 H33     -4.4911  10.5158  15.1713   H         3 RES3   0.0000
   107 C56     -2.9032   9.6363  15.9875   C.ar      3 RES3   0.0000
   108 H34     -2.3636   9.6952  15.2355   H         3 RES3   0.0000
   109 C57     -2.4145   9.0420  17.1380   C.ar      3 RES3   0.0000
   110 H35     -1.5395   8.7236  17.1444   H         3 RES3   0.0000
   111 C58     -0.8846   7.8919  19.7667   C.ar      3 RES3   0.0000
   112 C59     -0.1095   7.1522  18.8219   C.ar      3 RES3   0.0000
   113 H36     -0.5359   6.6462  18.1695   H         3 RES3   0.0000
   114 C60      1.2664   7.1835  18.8797   C.ar      3 RES3   0.0000
   115 H37      1.7613   6.6812  18.2756   H         3 RES3   0.0000
   116 C61      1.9256   7.9600  19.8309   C.ar      3 RES3   0.0000
   117 H38      2.8541   8.0207  19.8309   H         3 RES3   0.0000
   118 C62      1.1823   8.6353  20.7693   C.ar      3 RES3   0.0000
   119 H39      1.6190   9.1156  21.4345   H         3 RES3   0.0000
   120 C63     -0.1819   8.6187  20.7500   C.ar      3 RES3   0.0000
   121 H40     -0.6560   9.0935  21.3959   H         3 RES3   0.0000
   122 P3       6.9849  15.1139   8.2078   P.3       4 RES4   1.0000
   123 C64      7.9567  14.7240   6.7678   C.ar      4 RES4   0.0000
   124 C65      9.0168  13.7985   6.8160   C.ar      4 RES4   0.0000
   125 H41      9.2379  13.3753   7.6129   H         4 RES4   0.0000
   126 C66      9.7366  13.5225   5.6430   C.ar      4 RES4   0.0000
   127 H42     10.4475  12.9244   5.6687   H         4 RES4   0.0000
   128 C67      9.3994  14.1260   4.4701   C.ar      4 RES4   0.0000
   129 H43      9.8828  13.9328   3.6988   H         4 RES4   0.0000
   130 C68      8.3482  15.0239   4.4090   C.ar      4 RES4   0.0000
   131 H44      8.1206  15.4232   3.5992   H         4 RES4   0.0000
   132 C69      7.6496  15.3183   5.5402   C.ar      4 RES4   0.0000
   133 H45      6.9514  15.9311   5.4952   H         4 RES4   0.0000
   134 C70      6.9384  16.8713   8.3643   C.ar      4 RES4   0.0000
   135 C71      8.1403  17.5871   8.3456   C.ar      4 RES4   0.0000
   136 H46      8.9434  17.1289   8.2589   H         4 RES4   0.0000
   137 C72      8.1501  18.9671   8.4581   C.ar      4 RES4   0.0000
   138 H47      8.9576  19.4290   8.4581   H         4 RES4   0.0000
   139 C73      6.9676  19.6516   8.5642   C.ar      4 RES4   0.0000
   140 H48      6.9747  20.5772   8.6606   H         4 RES4   0.0000
   141 C74      5.7829  18.9837   8.5320   C.ar      4 RES4   0.0000
   142 H49      4.9808  19.4566   8.5674   H         4 RES4   0.0000
   143 C75      5.7695  17.6000   8.4485   C.ar      4 RES4   0.0000
   144 H50      4.9532  17.1529   8.4517   H         4 RES4   0.0000
   145 C76      7.6675  14.3431   9.6693   C.ar      4 RES4   0.0000
   146 C77      8.2669  15.0699  10.6594   C.ar      4 RES4   0.0000
   147 H51      8.3351  15.9936  10.5791   H         4 RES4   0.0000
   148 C78      8.7668  14.4370  11.7745   C.ar      4 RES4   0.0000
   149 H52      9.1932  14.9338  12.4333   H         4 RES4   0.0000
   150 C79      8.6417  13.0992  11.9095   C.ar      4 RES4   0.0000
   151 H53      8.9391  12.6852  12.6872   H         4 RES4   0.0000
   152 C80      8.0752  12.3503  10.9101   C.ar      4 RES4   0.0000
   153 H54      8.0426  11.4230  10.9808   H         4 RES4   0.0000
   154 C81      7.5665  12.9668   9.8110   C.ar      4 RES4   0.0000
   155 H55      7.1452  12.4644   9.1522   H         4 RES4   0.0000
   156 C82      5.3334  14.4848   8.0243   C.ar      4 RES4   0.0000
   157 C83      4.4291  14.6522   9.0623   C.ar      4 RES4   0.0000
   158 H56      4.6947  15.0681   9.8496   H         4 RES4   0.0000
   159 C84      3.1149  14.1904   8.9209   C.ar      4 RES4   0.0000
   160 H57      2.4894  14.3394   9.5925   H         4 RES4   0.0000
   161 C85      2.7639  13.5206   7.7801   C.ar      4 RES4   0.0000
   162 H58      1.8985  13.1912   7.6997   H         4 RES4   0.0000
   163 C86      3.6517  13.3219   6.7549   C.ar      4 RES4   0.0000
   164 H59      3.3939  12.8600   5.9901   H         4 RES4   0.0000
   165 C87      4.9568  13.8261   6.8738   C.ar      4 RES4   0.0000
   166 H60      5.5669  13.7138   6.1797   H         4 RES4   0.0000
@<TRIPOS>BOND
     1     1     2    1
     2     2    17    1
     3     3    18    2
     4     4    19    2
     5     5    20    2
     6     6     1    1
     7     7     1    1
     8     8    23    2
     9     9    24    2
    10    10    25    2
    11    11     1    1
    12    12     1    1
    13    13    28    2
    14    14    29    2
    15    15    30    2
    16    16     1    1
    17    17    18    1
    18    18    19    1
    19    19    20    1
    20    20    21    1
    21    21     6    1
    22    22     7    1
    23    23    22    1
    24    24    23    1
    25    25    24    1
    26    26    11    1
    27    27    12    1
    28    28    27    1
    29    29    28    1
    30    30    29    1
    31    31    16    1
    32    17    21    2
    33    22    26    2
    34    25    26    1
    35    27    31    2
    36    30    31    1
    37    32    33    1
    38    33    34   ar
    39    34    35    1
    40    36    34   ar
    41    37    36    1
    42    38    36   ar
    43    39    38    1
    44    40    38   ar
    45    41    40    1
    46    42    33   ar
    47    43    42    1
    48    44    32    1
    49    45    44   ar
    50    46    45    1
    51    47    45   ar
    52    48    47    1
    53    49    47   ar
    54    50    49    1
    55    51    49   ar
    56    52    51    1
    57    53    44   ar
    58    54    53    1
    59    55    32    1
    60    56    55   ar
    61    57    56    1
    62    58    56   ar
    63    59    58    1
    64    60    58   ar
    65    61    60    1
    66    62    60   ar
    67    63    62    1
    68    64    55   ar
    69    65    64    1
    70    66    32    1
    71    67    66   ar
    72    68    67    1
    73    69    67   ar
    74    70    69    1
    75    71    69   ar
    76    72    71    1
    77    73    71   ar
    78    74    73    1
    79    75    66   ar
    80    76    75    1
    81    40    42   ar
    82    51    53   ar
    83    62    64   ar
    84    73    75   ar
    85    77    78    1
    86    78    79   ar
    87    79    80    1
    88    81    79   ar
    89    82    81    1
    90    83    81   ar
    91    84    83    1
    92    85    83   ar
    93    86    85    1
    94    87    78   ar
    95    88    87    1
    96    89    77    1
    97    90    89   ar
    98    91    90    1
    99    92    90   ar
   100    93    92    1
   101    94    92   ar
   102    95    94    1
   103    96    94   ar
   104    97    96    1
   105    98    89   ar
   106    99    98    1
   107   100    77    1
   108   101   100   ar
   109   102   101    1
   110   103   101   ar
   111   104   103    1
   112   105   103   ar
   113   106   105    1
   114   107   105   ar
   115   108   107    1
   116   109   100   ar
   117   110   109    1
   118   111    77    1
   119   112   111   ar
   120   113   112    1
   121   114   112   ar
   122   115   114    1
   123   116   114   ar
   124   117   116    1
   125   118   116   ar
   126   119   118    1
   127   120   111   ar
   128   121   120    1
   129    85    87   ar
   130    96    98   ar
   131   107   109   ar
   132   118   120   ar
   133   122   123    1
   134   123   124   ar
   135   124   125    1
   136   126   124   ar
   137   127   126    1
   138   128   126   ar
   139   129   128    1
   140   130   128   ar
   141   131   130    1
   142   132   123   ar
   143   133   132    1
   144   134   122    1
   145   135   134   ar
   146   136   135    1
   147   137   135   ar
   148   138   137    1
   149   139   137   ar
   150   140   139    1
   151   141   139   ar
   152   142   141    1
   153   143   134   ar
   154   144   143    1
   155   145   122    1
   156   146   145   ar
   157   147   146    1
   158   148   146   ar
   159   149   148    1
   160   150   148   ar
   161   151   150    1
   162   152   150   ar
   163   153   152    1
   164   154   145   ar
   165   155   154    1
   166   156   122    1
   167   157   156   ar
   168   158   157    1
   169   159   157   ar
   170   160   159    1
   171   161   159   ar
   172   162   161    1
   173   163   161   ar
   174   164   163    1
   175   165   156   ar
   176   166   165    1
   177   130   132   ar
   178   141   143   ar
   179   152   154   ar
   180   163   165   ar
@<TRIPOS>SUBSTRUCTURE
     1 RES1        1 GROUP             0 ****  ****    0  
     2 RES2       32 GROUP             0 ****  ****    0  
     3 RES3       77 GROUP             0 ****  ****    0  
     4 RES4      122 GROUP             0 ****  ****    0  
@<TRIPOS>CRYSIN
   12.7365   18.4004   34.4810   90.0000  111.2540   90.0000    14     1
