@<TRIPOS>MOLECULE
KELPOK
    75    78     3     0     0
SMALL
NO_CHARGES
****
Generated from the CSD

@<TRIPOS>ATOM
     1 Fe1      3.8420  17.7748   5.8891   Fe        1 RES1   0.0000
     2 O1       4.0920  19.4028   4.8645   O.3       1 RES1   0.0000
     3 O2       4.9823  16.8708   4.5050   O.2       1 RES1   0.0000
     4 O3       2.1063  17.4349   5.1040   O.3       1 RES1   0.0000
     5 O4       3.9381  16.0364   6.9233   O.2       1 RES1   0.0000
     6 O5       0.1972  16.5212   3.5414   O.3       1 RES1   0.0000
     7 O6       4.0245  20.9210   2.7222   O.3       1 RES1   0.0000
     8 N1       2.8007  18.5790   7.5898   N.2       1 RES1   0.0000
     9 N2       5.5757  18.3948   6.9946   N.2       1 RES1   0.0000
    10 C1       0.5494  17.9601   6.8562   C.ar      1 RES1   0.0000
    11 C2       0.8777  17.4607   5.5829   C.ar      1 RES1   0.0000
    12 C3       5.6146  15.7683   4.5664   C.2       1 RES1   0.0000
    13 C4       5.2218  19.9783   4.5146   C.ar      1 RES1   0.0000
    14 C5      -0.1820  16.9697   4.7740   C.ar      1 RES1   0.0000
    15 C6       6.4180  19.8721   5.2524   C.ar      1 RES1   0.0000
    16 C7       5.5122  14.8478   5.6141   C.2       1 RES1   0.0000
    17 H1       6.0383  14.0582   5.5668   H         1 RES1   0.0000
    18 C8      -0.7903  17.9323   7.3186   C.ar      1 RES1   0.0000
    19 H2      -0.9989  18.2702   8.1815   H         1 RES1   0.0000
    20 C9       1.5309  18.5020   7.7692   C.2       1 RES1   0.0000
    21 H3       1.2000  18.8388   8.5936   H         1 RES1   0.0000
    22 C10      6.4738  19.1823   6.5215   C.2       1 RES1   0.0000
    23 H4       7.2466  19.3248   7.0556   H         1 RES1   0.0000
    24 C11      4.6868  15.0174   6.7223   C.2       1 RES1   0.0000
    25 C12      5.2269  20.8241   3.3677   C.ar      1 RES1   0.0000
    26 C13      6.3802  21.4819   2.9798   C.ar      1 RES1   0.0000
    27 H5       6.3723  22.0260   2.2010   H         1 RES1   0.0000
    28 C14      7.5760  20.5764   4.8448   C.ar      1 RES1   0.0000
    29 H6       8.3736  20.5074   5.3561   H         1 RES1   0.0000
    30 C15      6.5348  15.4667   3.4229   C.3       1 RES1   0.0000
    31 H7       6.0134  15.3828   2.5971   H         1 RES1   0.0000
    32 H8       7.0081  14.6263   3.5968   H         1 RES1   0.0000
    33 H9       7.1849  16.1936   3.3258   H         1 RES1   0.0000
    34 C16      5.7978  17.8802   8.3535   C.3       1 RES1   0.0000
    35 H10      6.5837  18.3321   8.7513   H         1 RES1   0.0000
    36 H11      5.9925  16.9105   8.3095   H         1 RES1   0.0000
    37 C17      3.9041  21.9474   1.7106   C.3       1 RES1   0.0000
    38 H12      4.4366  21.7030   0.9126   H         1 RES1   0.0000
    39 H13      4.2413  22.8104   2.0596   H         1 RES1   0.0000
    40 C18      3.5741  19.1396   8.7122   C.3       1 RES1   0.0000
    41 H14      2.9561  19.4112   9.4364   H         1 RES1   0.0000
    42 H15      4.0627  19.9449   8.4073   H         1 RES1   0.0000
    43 C19     -0.8461  16.0894   2.6605   C.3       1 RES1   0.0000
    44 H16     -1.4652  16.8382   2.4707   H         1 RES1   0.0000
    45 H17     -1.3616  15.3533   3.0760   H         1 RES1   0.0000
    46 C20      4.5680  18.1132   9.2487   C.3       1 RES1   0.0000
    47 H18      4.0970  17.2509   9.3689   H         1 RES1   0.0000
    48 H19      4.8785  18.4109  10.1404   H         1 RES1   0.0000
    49 C21     -1.4846  16.9501   5.2490   C.ar      1 RES1   0.0000
    50 H20     -2.1812  16.6124   4.6983   H         1 RES1   0.0000
    51 C22      7.5566  21.3540   3.7229   C.ar      1 RES1   0.0000
    52 H21      8.3439  21.8085   3.4466   H         1 RES1   0.0000
    53 C23     -1.7824  17.4223   6.5313   C.ar      1 RES1   0.0000
    54 H22     -2.6751  17.3886   6.8548   H         1 RES1   0.0000
    55 C24     -0.2001  15.6178   1.3927   C.3       1 RES1   0.0000
    56 H23     -0.8906  15.3083   0.7698   H         1 RES1   0.0000
    57 H24      0.4130  14.8800   1.5933   H         1 RES1   0.0000
    58 H25      0.2994  16.3563   0.9862   H         1 RES1   0.0000
    59 C25      4.6594  13.9526   7.7847   C.3       1 RES1   0.0000
    60 H26      5.1552  14.2628   8.5711   H         1 RES1   0.0000
    61 H27      5.0744  13.1350   7.4387   H         1 RES1   0.0000
    62 H28      3.7309  13.7661   8.0366   H         1 RES1   0.0000
    63 C26      2.4563  22.0698   1.3460   C.3       1 RES1   0.0000
    64 H29      2.3465  22.7787   0.6781   H         1 RES1   0.0000
    65 H30      1.9355  22.2912   2.1460   H         1 RES1   0.0000
    66 H31      2.1399  21.2197   0.9750   H         1 RES1   0.0000
    67 O7       2.3261  18.5500   2.4553   O.3       2 RES2   0.0000
    68 H32      2.1761  18.0775   3.0764   H         2 RES2   0.0000
    69 H33      2.8038  19.1285   2.7477   H         2 RES2   0.0000
    70 O8      -0.0270  19.3577   1.3122   O.3       3 RES3   0.0000
    71 C27     -0.8057  20.0691   2.2471   C.3       3 RES3   0.0000
    72 H34     -1.6600  20.3200   1.8378   H         3 RES3   0.0000
    73 H35     -0.3263  20.8777   2.5242   H         3 RES3   0.0000
    74 H36     -0.9726  19.5040   3.0306   H         3 RES3   0.0000
    75 H37      0.6557  19.1460   1.7194   H         3 RES3   0.0000
@<TRIPOS>BOND
     1     1     2    1
     2     2    13    1
     3     3     1    1
     4     4     1    1
     5     5     1    1
     6     6    14    1
     7     7    25    1
     8     8     1    1
     9     9     1    1
    10    10    11   ar
    11    11     4    1
    12    12     3   un
    13    13    15   ar
    14    14    11   ar
    15    15    22    1
    16    16    12   un
    17    17    16    1
    18    18    10   ar
    19    19    18    1
    20    20     8    2
    21    21    20    1
    22    22     9    2
    23    23    22    1
    24    24     5   un
    25    25    13   ar
    26    26    25   ar
    27    27    26    1
    28    28    15   ar
    29    29    28    1
    30    30    12    1
    31    31    30    1
    32    32    30    1
    33    33    30    1
    34    34     9    1
    35    35    34    1
    36    36    34    1
    37    37     7    1
    38    38    37    1
    39    39    37    1
    40    40     8    1
    41    41    40    1
    42    42    40    1
    43    43     6    1
    44    44    43    1
    45    45    43    1
    46    46    34    1
    47    47    46    1
    48    48    46    1
    49    49    14   ar
    50    50    49    1
    51    51    26   ar
    52    52    51    1
    53    53    18   ar
    54    54    53    1
    55    55    43    1
    56    56    55    1
    57    57    55    1
    58    58    55    1
    59    59    24    1
    60    60    59    1
    61    61    59    1
    62    62    59    1
    63    63    37    1
    64    64    63    1
    65    65    63    1
    66    66    63    1
    67    10    20    1
    68    16    24   un
    69    28    51   ar
    70    40    46    1
    71    49    53   ar
    72    67    68    1
    73    69    67    1
    74    70    71    1
    75    71    72    1
    76    73    71    1
    77    74    71    1
    78    75    70    1
@<TRIPOS>SUBSTRUCTURE
     1 RES1        1 GROUP             0 ****  ****    0  
     2 RES2       67 GROUP             0 ****  ****    0  
     3 RES3       70 GROUP             0 ****  ****    0  
@<TRIPOS>CRYSIN
   11.2988   29.2753    8.8713   90.0000  108.1770   90.0000    14     1
