@<TRIPOS>MOLECULE
KEPDIT
    80    81     3     0     0
SMALL
USER_CHARGES
****
Generated from the CSD

@<TRIPOS>ATOM
     1 Fe1     -1.1032   0.0000   6.5632   Fe        1 RES1   2.0000
     2 N1       0.5088   1.1639   6.9283   N.3       1 RES1   0.0000
     3 H1       0.8996   1.2848   6.1694   H         1 RES1   0.0000
     4 N2      -2.1811   1.7476   6.5994   N.3       1 RES1   0.0000
     5 H2      -2.4444   1.7156   7.3639   H         1 RES1   0.0000
     6 N3      -1.4616  -0.1615   8.4536   N.1       1 RES1   0.0000
     7 C1      -0.0011   2.4840   7.3652   C.3       1 RES1   0.0000
     8 H3       0.6926   3.1570   7.2799   H         1 RES1   0.0000
     9 H4      -0.2808   2.4461   8.2932   H         1 RES1   0.0000
    10 C2      -1.1781   2.8340   6.4778   C.3       1 RES1   0.0000
    11 H5      -1.5664   3.6783   6.7548   H         1 RES1   0.0000
    12 H6      -0.8882   2.9184   5.5551   H         1 RES1   0.0000
    13 C3      -3.4659   1.9799   5.8282   C.3       1 RES1   0.0000
    14 C4      -4.3119   0.6963   5.9335   C.3       1 RES1   0.0000
    15 H7      -4.4673   0.5225   6.8756   H         1 RES1   0.0000
    16 H8      -5.1749   0.8786   5.5301   H         1 RES1   0.0000
    17 C5       1.5644   0.5886   7.8178   C.3       1 RES1   0.0000
    18 H9       1.1576   0.3671   8.6818   H         1 RES1   0.0000
    19 C6      -3.2131   2.3543   4.3729   C.3       1 RES1   0.0000
    20 H10     -2.7714   3.2060   4.3330   H         1 RES1   0.0000
    21 H11     -4.0501   2.4057   3.9051   H         1 RES1   0.0000
    22 H12     -2.6575   1.6874   3.9628   H         1 RES1   0.0000
    23 C7      -4.2593   3.1191   6.4949   C.3       1 RES1   0.0000
    24 H13     -3.7610   3.9377   6.4319   H         1 RES1   0.0000
    25 H14     -4.4085   2.9074   7.4190   H         1 RES1   0.0000
    26 H15     -5.1033   3.2243   6.0512   H         1 RES1   0.0000
    27 C8       2.7085   1.5797   8.0569   C.3       1 RES1   0.0000
    28 H16      2.3766   2.3396   8.5413   H         1 RES1   0.0000
    29 H17      3.4005   1.1527   8.5662   H         1 RES1   0.0000
    30 H18      3.0623   1.8685   7.2129   H         1 RES1   0.0000
    31 C9      -1.7245  -0.2557   9.5652   C.1       1 RES1   0.0000
    32 C10     -1.9864  -0.4099  10.9907   C.3       1 RES1   0.0000
    33 H19     -2.4472  -1.2371  11.1443   H         1 RES1   0.0000
    34 H20     -2.5288   0.3206  11.2978   H         1 RES1   0.0000
    35 H21     -1.1546  -0.4136  11.4711   H         1 RES1   0.0000
    36 N1B     -2.7152  -1.1639   6.1980   N.3       1 RES1   0.0000
    37 H1B     -3.1060  -1.2848   6.9570   H         1 RES1   0.0000
    38 N2B     -0.0254  -1.7476   6.5269   N.3       1 RES1   0.0000
    39 H2B      0.2379  -1.7156   5.7625   H         1 RES1   0.0000
    40 N3B     -0.7449   0.1615   4.6727   N.1       1 RES1   0.0000
    41 C1B     -2.2054  -2.4840   5.7612   C.3       1 RES1   0.0000
    42 H3B     -2.8991  -3.1570   5.8465   H         1 RES1   0.0000
    43 H4B     -1.9257  -2.4461   4.8331   H         1 RES1   0.0000
    44 C2B     -1.0284  -2.8340   6.6485   C.3       1 RES1   0.0000
    45 H5B     -0.6401  -3.6783   6.3715   H         1 RES1   0.0000
    46 H6B     -1.3183  -2.9184   7.5713   H         1 RES1   0.0000
    47 C3B      1.2594  -1.9799   7.2981   C.3       1 RES1   0.0000
    48 C4B      2.1054  -0.6963   7.1928   C.3       1 RES1   0.0000
    49 H7B      2.2608  -0.5225   6.2508   H         1 RES1   0.0000
    50 H8B      2.9684  -0.8786   7.5962   H         1 RES1   0.0000
    51 C5B     -3.7709  -0.5886   5.3086   C.3       1 RES1   0.0000
    52 H9B     -3.3641  -0.3671   4.4446   H         1 RES1   0.0000
    53 C6B      1.0066  -2.3543   8.7534   C.3       1 RES1   0.0000
    54 H10B     0.5649  -3.2060   8.7933   H         1 RES1   0.0000
    55 H11B     1.8436  -2.4057   9.2213   H         1 RES1   0.0000
    56 H12B     0.4510  -1.6874   9.1635   H         1 RES1   0.0000
    57 C7B      2.0528  -3.1191   6.6314   C.3       1 RES1   0.0000
    58 H13B     1.5545  -3.9377   6.6944   H         1 RES1   0.0000
    59 H14B     2.2021  -2.9074   5.7073   H         1 RES1   0.0000
    60 H15B     2.8968  -3.2243   7.0751   H         1 RES1   0.0000
    61 C8B     -4.9150  -1.5797   5.0694   C.3       1 RES1   0.0000
    62 H16B    -4.5831  -2.3396   4.5850   H         1 RES1   0.0000
    63 H17B    -5.6070  -1.1527   4.5601   H         1 RES1   0.0000
    64 H18B    -5.2688  -1.8685   5.9134   H         1 RES1   0.0000
    65 C9B     -0.4820   0.2557   3.5612   C.1       1 RES1   0.0000
    66 C10B    -0.2201   0.4099   2.1357   C.3       1 RES1   0.0000
    67 H19B     0.2407   1.2371   1.9821   H         1 RES1   0.0000
    68 H20B     0.3223  -0.3206   1.8285   H         1 RES1   0.0000
    69 H21B    -1.0519   0.4136   1.6552   H         1 RES1   0.0000
    70 Cl1     -3.7798   3.1673  10.6237   Cl        2 RES2   0.0000
    71 O1      -5.0413   2.9429   9.9681   O.3       2 RES2  -1.0000
    72 O2      -2.6988   2.8293   9.7277   O.2       2 RES2   0.0000
    73 O3      -3.7015   2.3511  11.8079   O.2       2 RES2   0.0000
    74 O4      -3.6797   4.5589  10.9911   O.2       2 RES2   0.0000
    75 N4       0.2582   6.0828   8.2053   N.1       3 RES3   0.0000
    76 C11     -0.8728   6.1122   8.2985   C.1       3 RES3   0.0000
    77 C12     -2.3249   6.1538   8.4140   C.3       3 RES3   0.0000
    78 H22     -2.7171   6.1171   7.5385   H         3 RES3   0.0000
    79 H23     -2.5885   6.9687   8.8485   H         3 RES3   0.0000
    80 H24     -2.6268   5.4037   8.9312   H         3 RES3   0.0000
@<TRIPOS>BOND
     1     1     2    1
     2     2     3    1
     3     4     1    1
     4     5     4    1
     5     6     1    1
     6     7     2    1
     7     8     7    1
     8     9     7    1
     9    10     4    1
    10    11    10    1
    11    12    10    1
    12    13     4    1
    13    14    13    1
    14    15    14    1
    15    16    14    1
    16    17     2    1
    17    18    17    1
    18    19    13    1
    19    20    19    1
    20    21    19    1
    21    22    19    1
    22    23    13    1
    23    24    23    1
    24    25    23    1
    25    26    23    1
    26    27    17    1
    27    28    27    1
    28    29    27    1
    29    30    27    1
    30    31     6    3
    31    32    31    1
    32    33    32    1
    33    34    32    1
    34    35    32    1
    35    36     1    1
    36    37    36    1
    37    38     1    1
    38    39    38    1
    39    40     1    1
    40    41    36    1
    41    42    41    1
    42    43    41    1
    43    44    38    1
    44    45    44    1
    45    46    44    1
    46    47    38    1
    47    48    17    1
    48    49    48    1
    49    50    48    1
    50    51    14    1
    51    52    51    1
    52    53    47    1
    53    54    53    1
    54    55    53    1
    55    56    53    1
    56    57    47    1
    57    58    57    1
    58    59    57    1
    59    60    57    1
    60    61    51    1
    61    62    61    1
    62    63    61    1
    63    64    61    1
    64    65    40    3
    65    66    65    1
    66    67    66    1
    67    68    66    1
    68    69    66    1
    69     7    10    1
    70    36    51    1
    71    41    44    1
    72    47    48    1
    73    70    71    1
    74    72    70    2
    75    73    70    2
    76    74    70    2
    77    75    76    3
    78    76    77    1
    79    77    78    1
    80    79    77    1
    81    80    77    1
@<TRIPOS>SUBSTRUCTURE
     1 RES1        1 GROUP             0 ****  ****    0  
     2 RES2       70 GROUP             0 ****  ****    0  
     3 RES3       75 GROUP             0 ****  ****    0  
@<TRIPOS>CRYSIN
   10.1393   12.2366   13.3105   90.0000   99.5420   90.0000   231     1
