@<TRIPOS>MOLECULE
KETJUR
    83    95     1     0     0
SMALL
USER_CHARGES
****
Generated from the CSD

@<TRIPOS>ATOM
     1 Fe1     -5.5702   5.5702   6.6727   Fe        1 RES1   2.0000
     2 O1      -7.4154   5.1729   8.9350   O.3       1 RES1   0.0000
     3 O2      -3.7647   7.8728   6.3786   O.3       1 RES1   0.0000
     4 O3      -6.6519   7.4583  10.1025   O.3       1 RES1   0.0000
     5 O4      -4.7464   9.0567   8.5987   O.3       1 RES1   0.0000
     6 O5      -5.9414   3.2599   8.4354   O.3       1 RES1   0.0000
     7 O6      -3.7051   2.0751   7.5631   O.3       1 RES1   0.0000
     8 N1      -6.5577   6.0162   8.2670   N.2       1 RES1   0.0000
     9 N2      -4.6460   7.1911   7.1865   N.2       1 RES1   0.0000
    10 N3      -5.1048   3.9445   7.5946   N.2       1 RES1   0.0000
    11 C1      -6.1735   7.0862   8.8982   C.2       1 RES1   0.0000
    12 C2      -6.1924   8.7080  10.5453   C.ar      1 RES1   0.0000
    13 C3      -6.7046   9.1535  11.7520   C.ar      1 RES1   0.0000
    14 H1      -7.3309   8.6269  12.2351   H         1 RES1   0.0000
    15 C4      -6.2854  10.3894  12.2487   C.ar      1 RES1   0.0000
    16 H2      -6.6131  10.6984  13.0839   H         1 RES1   0.0000
    17 C5      -5.3935  11.1680  11.5283   C.ar      1 RES1   0.0000
    18 H3      -5.1177  12.0110  11.8694   H         1 RES1   0.0000
    19 C6      -4.8972  10.7195  10.3011   C.ar      1 RES1   0.0000
    20 H4      -4.2968  11.2578   9.7982   H         1 RES1   0.0000
    21 C7      -5.2920   9.4792   9.8260   C.ar      1 RES1   0.0000
    22 C8      -5.1331   7.8152   8.2117   C.2       1 RES1   0.0000
    23 C9      -8.2237   2.7587   9.2732   C.3       1 RES1   0.0000
    24 H5      -7.8626   2.7361  10.1959   H         1 RES1   0.0000
    25 H6      -9.1575   3.0839   9.3205   H         1 RES1   0.0000
    26 C10     -8.2083   1.3420   8.6874   C.3       1 RES1   0.0000
    27 H7      -8.6214   1.3758   7.7884   H         1 RES1   0.0000
    28 H8      -7.2644   1.0678   8.5678   H         1 RES1   0.0000
    29 C11     -8.9167   0.2618   9.4942   C.3       1 RES1   0.0000
    30 H9      -9.8731   0.4974   9.5927   H         1 RES1   0.0000
    31 H10     -8.5184   0.2116  10.3988   H         1 RES1   0.0000
    32 C12     -8.7943  -1.0972   8.8077   C.3       1 RES1   0.0000
    33 H11     -9.2871  -1.0811   7.9619   H         1 RES1   0.0000
    34 H12     -9.1675  -1.7923   9.3899   H         1 RES1   0.0000
    35 H13     -7.8493  -1.2905   8.6318   H         1 RES1   0.0000
    36 C13     -4.0547   3.3232   7.1721   C.2       1 RES1   0.0000
    37 C14     -2.4518   1.6611   7.0891   C.ar      1 RES1   0.0000
    38 C15     -2.0070   0.4204   7.5060   C.ar      1 RES1   0.0000
    39 H14     -2.5478  -0.1196   8.0713   H         1 RES1   0.0000
    40 C16     -0.7618  -0.0277   7.0902   C.ar      1 RES1   0.0000
    41 H15     -0.4453  -0.8762   7.3747   H         1 RES1   0.0000
    42 B1      -7.3578   3.7666   8.3935   B         1 RES1  -1.0000
    43 O1G     -5.1729   7.4154   4.4104   O.3       1 RES1   0.0000
    44 O2G     -7.8728   3.7647   6.9669   O.3       1 RES1   0.0000
    45 O3G     -7.4583   6.6519   3.2429   O.3       1 RES1   0.0000
    46 O4G     -9.0567   4.7464   4.7467   O.3       1 RES1   0.0000
    47 N1G     -6.0162   6.5577   5.0785   N.2       1 RES1   0.0000
    48 N2G     -7.1911   4.6460   6.1589   N.2       1 RES1   0.0000
    49 C1G     -7.0862   6.1735   4.4472   C.2       1 RES1   0.0000
    50 C2G     -8.7080   6.1924   2.8001   C.ar      1 RES1   0.0000
    51 C3G     -9.1535   6.7046   1.5934   C.ar      1 RES1   0.0000
    52 H1G     -8.6269   7.3309   1.1103   H         1 RES1   0.0000
    53 C4G    -10.3894   6.2854   1.0967   C.ar      1 RES1   0.0000
    54 H2G    -10.6984   6.6131   0.2616   H         1 RES1   0.0000
    55 C5G    -11.1680   5.3935   1.8171   C.ar      1 RES1   0.0000
    56 H3G    -12.0110   5.1177   1.4760   H         1 RES1   0.0000
    57 C6G    -10.7195   4.8972   3.0444   C.ar      1 RES1   0.0000
    58 H4G    -11.2578   4.2968   3.5472   H         1 RES1   0.0000
    59 C7G     -9.4792   5.2920   3.5195   C.ar      1 RES1   0.0000
    60 C8G     -7.8152   5.1331   5.1337   C.2       1 RES1   0.0000
    61 C9G     -2.7587   8.2237   4.0722   C.3       1 RES1   0.0000
    62 H5G     -2.7361   7.8626   3.1495   H         1 RES1   0.0000
    63 H6G     -3.0839   9.1575   4.0250   H         1 RES1   0.0000
    64 C10G    -1.3420   8.2083   4.6581   C.3       1 RES1   0.0000
    65 H7G     -1.3758   8.6214   5.5570   H         1 RES1   0.0000
    66 H8G     -1.0678   7.2644   4.7777   H         1 RES1   0.0000
    67 C11G    -0.2618   8.9167   3.8512   C.3       1 RES1   0.0000
    68 H9G     -0.4974   9.8731   3.7527   H         1 RES1   0.0000
    69 H10G    -0.2116   8.5184   2.9467   H         1 RES1   0.0000
    70 C12G     1.0972   8.7943   4.5377   C.3       1 RES1   0.0000
    71 H11G     1.0811   9.2871   5.3836   H         1 RES1   0.0000
    72 H12G     1.7923   9.1675   3.9556   H         1 RES1   0.0000
    73 H13G     1.2905   7.8493   4.7136   H         1 RES1   0.0000
    74 B1G     -3.7666   7.3578   4.9520   B         1 RES1  -1.0000
    75 O5G     -3.2599   5.9414   4.9101   O.3       1 RES1   0.0000
    76 O6G     -2.0751   3.7051   5.7823   O.3       1 RES1   0.0000
    77 N3G     -3.9445   5.1048   5.7508   N.2       1 RES1   0.0000
    78 C13G    -3.3232   4.0547   6.1733   C.2       1 RES1   0.0000
    79 C14G    -1.6611   2.4518   6.2563   C.ar      1 RES1   0.0000
    80 C15G    -0.4204   2.0070   5.8394   C.ar      1 RES1   0.0000
    81 H14G     0.1196   2.5478   5.2741   H         1 RES1   0.0000
    82 C16G     0.0277   0.7618   6.2553   C.ar      1 RES1   0.0000
    83 H15G     0.8762   0.4453   5.9708   H         1 RES1   0.0000
@<TRIPOS>BOND
     1     1     8    1
     2     2     8    1
     3     3     9    1
     4     4    11    1
     5     5    21    1
     6     6    10    1
     7     7    36    1
     8     8    11    2
     9     9     1    1
    10    10     1    1
    11    11    22    1
    12    12     4    1
    13    13    12   ar
    14    14    13    1
    15    15    13   ar
    16    16    15    1
    17    17    15   ar
    18    18    17    1
    19    19    17   ar
    20    20    19    1
    21    21    12   ar
    22    22     5    1
    23    23    24    1
    24    25    23    1
    25    26    23    1
    26    27    26    1
    27    28    26    1
    28    29    26    1
    29    30    29    1
    30    31    29    1
    31    32    29    1
    32    33    32    1
    33    34    32    1
    34    35    32    1
    35    36    10    2
    36    37     7    1
    37    38    37   ar
    38    39    38    1
    39    40    38   ar
    40    41    40    1
    41    42     2    1
    42    43    47    1
    43    44    42    1
    44    45    49    1
    45    46    59    1
    46    47     1    1
    47    48     1    1
    48    49    47    2
    49    50    45    1
    50    51    50   ar
    51    52    51    1
    52    53    51   ar
    53    54    53    1
    54    55    53   ar
    55    56    55    1
    56    57    55   ar
    57    58    57    1
    58    59    50   ar
    59    60    46    1
    60    61    62    1
    61    63    61    1
    62    64    61    1
    63    65    64    1
    64    66    64    1
    65    67    64    1
    66    68    67    1
    67    69    67    1
    68    70    67    1
    69    71    70    1
    70    72    70    1
    71    73    70    1
    72    74     3    1
    73    75    74    1
    74    76    78    1
    75    77     1    1
    76    78    36    1
    77    79    37   ar
    78    80    79   ar
    79    81    80    1
    80    82    40   ar
    81    83    82    1
    82     6    42    1
    83     9    22    2
    84    19    21   ar
    85    23    42    1
    86    43    74    1
    87    44    48    1
    88    48    60    2
    89    49    60    1
    90    57    59   ar
    91    61    74    1
    92    75    77    1
    93    76    79    1
    94    77    78    2
    95    80    82   ar
@<TRIPOS>SUBSTRUCTURE
     1 RES1        1 GROUP             0 ****  ****    0  
@<TRIPOS>CRYSIN
   11.0772   11.0772   26.6909   90.0000   90.0000   90.0000    92     1
