@<TRIPOS>MOLECULE
KETLUS
    89    96     3     0     0
SMALL
USER_CHARGES
****
Generated from the CSD

@<TRIPOS>ATOM
     1 C1       8.6174   5.0411  12.0022   C.3       1 RES1   0.0000
     2 H1       8.4149   4.1113  11.8202   H         1 RES1   0.0000
     3 H2       8.4546   5.5418  11.1876   H         1 RES1   0.0000
     4 C2       7.6604   5.5463  13.0781   C.3       1 RES1   0.0000
     5 H3       6.7814   5.1842  12.8870   H         1 RES1   0.0000
     6 H4       7.5982   6.5104  12.9916   H         1 RES1   0.0000
     7 C3       7.9887   5.2274  14.5360   C.3       1 RES1   0.0000
     8 H5       8.4983   5.9665  14.9036   H         1 RES1   0.0000
     9 H6       7.1560   5.1737  15.0334   H         1 RES1   0.0000
    10 C4      10.4468   6.5879  12.5933   C.3       1 RES1   0.0000
    11 H7      11.0663   6.8710  11.9013   H         1 RES1   0.0000
    12 H8       9.6565   7.1452  12.5284   H         1 RES1   0.0000
    13 C5      11.0822   6.7920  13.9305   C.ar      1 RES1   0.0000
    14 C6      11.5561   8.0214  14.3161   C.ar      1 RES1   0.0000
    15 H9      11.5177   8.7426  13.7304   H         1 RES1   0.0000
    16 C7      12.0935   8.1793  15.5884   C.ar      1 RES1   0.0000
    17 H10     12.4099   9.0093  15.8660   H         1 RES1   0.0000
    18 C8      12.1531   7.0960  16.4300   C.ar      1 RES1   0.0000
    19 H11     12.4972   7.1765  17.2914   H         1 RES1   0.0000
    20 C9      11.6858   5.8801  15.9561   C.ar      1 RES1   0.0000
    21 H12     11.7467   5.1395  16.5165   H         1 RES1   0.0000
    22 C10      7.9939   2.7791  14.2639   C.3       1 RES1   0.0000
    23 H13      7.5280   2.3589  15.0045   H         1 RES1   0.0000
    24 H14      7.3308   3.0712  13.6187   H         1 RES1   0.0000
    25 C11      8.9060   1.7837  13.6241   C.ar      1 RES1   0.0000
    26 C12      8.5486   0.4426  13.5304   C.ar      1 RES1   0.0000
    27 H15      7.7570   0.1386  13.9124   H         1 RES1   0.0000
    28 C13      9.3786  -0.4217  12.8690   C.ar      1 RES1   0.0000
    29 H16      9.1509  -1.3188  12.7771   H         1 RES1   0.0000
    30 C14     10.5567   0.0566  12.3410   C.ar      1 RES1   0.0000
    31 H17     11.1259  -0.5096  11.8724   H         1 RES1   0.0000
    32 C15     10.8810   1.3828  12.5158   C.ar      1 RES1   0.0000
    33 H18     11.6924   1.6898  12.1824   H         1 RES1   0.0000
    34 C16     10.8624   4.6269  11.2074   C.3       1 RES1   0.0000
    35 H19     10.8333   5.2453  10.4614   H         1 RES1   0.0000
    36 H20     10.5090   3.7730  10.9137   H         1 RES1   0.0000
    37 C17     12.2749   4.4659  11.6958   C.ar      1 RES1   0.0000
    38 C18     13.3841   4.7252  10.9173   C.ar      1 RES1   0.0000
    39 H21     13.2875   4.9726  10.0252   H         1 RES1   0.0000
    40 C19     14.6377   4.6120  11.4814   C.ar      1 RES1   0.0000
    41 H22     15.4028   4.7774  10.9786   H         1 RES1   0.0000
    42 C20     14.7357   4.2439  12.8222   C.ar      1 RES1   0.0000
    43 H23     15.5669   4.1783  13.2330   H         1 RES1   0.0000
    44 C21     13.5800   3.9772  13.5340   C.ar      1 RES1   0.0000
    45 H24     13.6515   3.7194  14.4242   H         1 RES1   0.0000
    46 C22      8.9722   3.8103  16.2426   C.3       1 RES1   0.0000
    47 H25      9.1654   4.6716  16.6445   H         1 RES1   0.0000
    48 H26      8.1793   3.4437  16.6625   H         1 RES1   0.0000
    49 C23     10.1172   2.8923  16.4192   C.2       1 RES1   0.0000
    50 C24     10.5262   2.0102  17.3671   C.2       1 RES1   0.0000
    51 H27     10.0682   1.7420  18.1312   H         1 RES1   0.0000
    52 C25     12.6984   0.7942  17.6519   C.ar      1 RES1   0.0000
    53 C26     12.2497  -0.1028  18.5944   C.ar      1 RES1   0.0000
    54 H28     11.3377  -0.2325  18.7187   H         1 RES1   0.0000
    55 C27     13.1684  -0.8121  19.3585   C.ar      1 RES1   0.0000
    56 H29     12.8745  -1.3933  20.0217   H         1 RES1   0.0000
    57 C28     14.5292  -0.6467  19.1242   C.ar      1 RES1   0.0000
    58 C29     14.9620   0.2280  18.1312   C.ar      1 RES1   0.0000
    59 H30     15.8714   0.3234  17.9600   H         1 RES1   0.0000
    60 C30     14.0473   0.9492  17.4050   C.ar      1 RES1   0.0000
    61 H31     14.3359   1.5408  16.7472   H         1 RES1   0.0000
    62 C31     15.1222  -2.0668  20.9353   C.3       1 RES1   0.0000
    63 H32     14.6668  -1.5199  21.5805   H         1 RES1   0.0000
    64 H33     15.9018  -2.4542  21.3390   H         1 RES1   0.0000
    65 H34     14.5344  -2.7642  20.6380   H         1 RES1   0.0000
    66 N1      10.0589   5.1544  12.3482   N.3       1 RES1   0.0000
    67 N2       8.7564   3.9623  14.7630   N.3       1 RES1   0.0000
    68 N3      11.1470   5.7072  14.7342   N.ar      1 RES1   0.0000
    69 N4      10.0788   2.2471  13.1429   N.ar      1 RES1   0.0000
    70 N5      12.3609   4.0815  12.9831   N.ar      1 RES1   0.0000
    71 N6      11.0875   2.9609  15.4749   N.2       1 RES1   0.0000
    72 N7      12.0962   2.1771  15.7831   N.2       1 RES1   0.0000
    73 N8      11.7454   1.6138  16.9512   N.pl3     1 RES1   0.0000
    74 O1      15.5127  -1.2621  19.8184   O.3       1 RES1   0.0000
    75 Fe1     10.6238   4.0080  13.9074   Fe        1 RES1   2.0000
    76 F1      10.3422   5.0053   0.8447   F         2 RES2   0.0000
    77 F2      11.7785   5.7394   2.4541   F         2 RES2   0.0000
    78 F3      11.4078   3.8402   3.6248   F         2 RES2   0.0000
    79 F4       9.9570   3.1391   2.0454   F         2 RES2   0.0000
    80 F5      12.0776   3.7124   1.4660   F         2 RES2   0.0000
    81 F6       9.6671   5.1529   2.9991   F         2 RES2   0.0000
    82 P1      10.8801   4.4370   2.2330   P.3       2 RES2  -1.0000
    83 F7       7.8033  13.3098  18.6358   F         3 RES3   0.0000
    84 F8       9.1840  12.0045  17.6032   F         3 RES3   0.0000
    85 F9       6.9853  12.0566  17.0427   F         3 RES3   0.0000
    86 F10      8.4758  12.8047  15.6515   F         3 RES3   0.0000
    87 F11      7.1878  14.2874  16.6679   F         3 RES3   0.0000
    88 F12      9.4037  14.1652  17.0554   F         3 RES3   0.0000
    89 P2       8.2093  13.1979  17.1622   P.3       3 RES3  -1.0000
@<TRIPOS>BOND
     1     1     2    1
     2     3     1    1
     3     4     1    1
     4     5     4    1
     5     6     4    1
     6     7     4    1
     7     8     7    1
     8     9     7    1
     9    10    11    1
    10    12    10    1
    11    13    10    1
    12    14    13   ar
    13    15    14    1
    14    16    14   ar
    15    17    16    1
    16    18    16   ar
    17    19    18    1
    18    20    18   ar
    19    21    20    1
    20    22    23    1
    21    24    22    1
    22    25    22    1
    23    26    25   ar
    24    27    26    1
    25    28    26   ar
    26    29    28    1
    27    30    28   ar
    28    31    30    1
    29    32    30   ar
    30    33    32    1
    31    34    35    1
    32    36    34    1
    33    37    34    1
    34    38    37   ar
    35    39    38    1
    36    40    38   ar
    37    41    40    1
    38    42    40   ar
    39    43    42    1
    40    44    42   ar
    41    45    44    1
    42    46    47    1
    43    48    46    1
    44    49    46    1
    45    50    49    2
    46    51    50    1
    47    52    53   ar
    48    53    54    1
    49    55    53   ar
    50    56    55    1
    51    57    55   ar
    52    58    57   ar
    53    59    58    1
    54    60    52   ar
    55    61    60    1
    56    62    63    1
    57    64    62    1
    58    65    62    1
    59    66     1    1
    60    67     7    1
    61    68    13   ar
    62    69    25   ar
    63    70    37   ar
    64    71    49    1
    65    72    71    2
    66    73    50    1
    67    74    57    1
    68    75    66    1
    69    10    66    1
    70    20    68   ar
    71    22    67    1
    72    32    69   ar
    73    34    66    1
    74    44    70   ar
    75    46    67    1
    76    52    73    1
    77    58    60   ar
    78    62    74    1
    79    67    75    1
    80    68    75    1
    81    69    75    1
    82    70    75    1
    83    71    75    1
    84    72    73    1
    85    76    82    1
    86    77    82    1
    87    78    82    1
    88    79    82    1
    89    80    82    1
    90    81    82    1
    91    83    89    1
    92    84    89    1
    93    85    89    1
    94    86    89    1
    95    87    89    1
    96    88    89    1
@<TRIPOS>SUBSTRUCTURE
     1 RES1        1 GROUP             0 ****  ****    0  
     2 RES2       76 GROUP             0 ****  ****    0  
     3 RES3       83 GROUP             0 ****  ****    0  
@<TRIPOS>CRYSIN
   13.2372   14.9013   18.0213   90.0000   90.0000   90.0000    19     1
