@<TRIPOS>MOLECULE
KETTEM
   115   125     4     0     0
SMALL
USER_CHARGES
****
Generated from the CSD

@<TRIPOS>ATOM
     1 Fe1      2.6821   1.2957   8.1551   Fe        1 RES1   2.0000
     2 O1       0.0451   0.6089   7.1475   O.3       1 RES1   0.0000
     3 O2       1.9053  -0.5659   6.0661   O.3       1 RES1   0.0000
     4 O3       1.4691   1.7841   5.5368   O.3       1 RES1   0.0000
     5 O4       3.1634   2.6502  10.6881   O.3       1 RES1   0.0000
     6 O5       4.4919   0.6149  10.3548   O.3       1 RES1   0.0000
     7 O6       5.0519   2.6646   9.1159   O.3       1 RES1   0.0000
     8 O7      -2.7188   2.6797   2.8103   O.3       1 RES1   0.0000
     9 H1      -3.4950   3.0337   2.5717   H         1 RES1   0.0000
    10 O8      -3.6538   1.0385   1.6109   O.2       1 RES1   0.0000
    11 O9       7.3042   6.3829  13.9310   O.3       1 RES1   0.0000
    12 H2       7.2522   7.2693  14.0802   H         1 RES1   0.0000
    13 O10      6.0282   6.8191  12.1423   O.2       1 RES1   0.0000
    14 N1       0.7826   1.1331   8.1882   N.2       1 RES1   0.0000
    15 N2       2.6694  -0.3362   7.1801   N.2       1 RES1   0.0000
    16 N3       2.4270   2.1542   6.4606   N.2       1 RES1   0.0000
    17 N4       2.2392   2.2408   9.7476   N.2       1 RES1   0.0000
    18 N5       3.7506   0.1646   9.2794   N.2       1 RES1   0.0000
    19 N6       4.2050   2.4346   8.0639   N.2       1 RES1   0.0000
    20 C1       0.1140   1.7359   9.1268   C.2       1 RES1   0.0000
    21 C2      -1.3711   1.8497   9.2239   C.3       1 RES1   0.0000
    22 H3      -1.7510   0.9835   9.5154   H         1 RES1   0.0000
    23 H4      -1.7451   2.0652   8.3338   H         1 RES1   0.0000
    24 C3      -1.7591   2.9380  10.2169   C.3       1 RES1   0.0000
    25 H5      -1.5478   3.8243   9.8311   H         1 RES1   0.0000
    26 H6      -2.7338   2.8989  10.3812   H         1 RES1   0.0000
    27 C4      -1.0248   2.7745  11.5256   C.3       1 RES1   0.0000
    28 H7      -1.2130   1.8745  11.8928   H         1 RES1   0.0000
    29 H8      -1.3634   3.4437  12.1714   H         1 RES1   0.0000
    30 C5       0.4932   2.9470  11.3727   C.3       1 RES1   0.0000
    31 H9       0.7155   3.9115  11.3656   H         1 RES1   0.0000
    32 H10      0.9498   2.5348  12.1471   H         1 RES1   0.0000
    33 C6       0.9817   2.3161  10.1140   C.2       1 RES1   0.0000
    34 C7       3.2766  -1.3764   7.6823   C.2       1 RES1   0.0000
    35 C8       3.2569  -2.7482   7.1022   C.3       1 RES1   0.0000
    36 H11      3.2655  -2.6896   6.1136   H         1 RES1   0.0000
    37 H12      2.4254  -3.2111   7.3751   H         1 RES1   0.0000
    38 C9       4.4642  -3.5499   7.5752   C.3       1 RES1   0.0000
    39 H13      4.3405  -4.4997   7.3223   H         1 RES1   0.0000
    40 H14      5.2749  -3.2179   7.1137   H         1 RES1   0.0000
    41 C10      4.6705  -3.4608   9.0439   C.3       1 RES1   0.0000
    42 H15      5.4477  -4.0204   9.2925   H         1 RES1   0.0000
    43 H16      3.8742  -3.8289   9.5025   H         1 RES1   0.0000
    44 C11      4.9117  -2.0303   9.5397   C.3       1 RES1   0.0000
    45 H17      4.7872  -1.9990  10.5212   H         1 RES1   0.0000
    46 H18      5.8454  -1.7682   9.3425   H         1 RES1   0.0000
    47 C12      3.9775  -1.0584   8.8925   C.2       1 RES1   0.0000
    48 C13      3.3475   2.9795   6.0321   C.2       1 RES1   0.0000
    49 C14      3.4171   3.6071   4.6805   C.3       1 RES1   0.0000
    50 H19      2.5025   3.8063   4.3576   H         1 RES1   0.0000
    51 H20      3.8396   2.9798   4.0419   H         1 RES1   0.0000
    52 C15      4.2310   4.8995   4.7477   C.3       1 RES1   0.0000
    53 H21      4.3816   5.2416   3.8304   H         1 RES1   0.0000
    54 H22      3.7221   5.5828   5.2506   H         1 RES1   0.0000
    55 C16      5.5719   4.6682   5.4249   C.3       1 RES1   0.0000
    56 H23      6.1147   5.4947   5.3706   H         1 RES1   0.0000
    57 H24      6.0607   3.9502   4.9506   H         1 RES1   0.0000
    58 C17      5.3961   4.2760   6.8894   C.3       1 RES1   0.0000
    59 H25      6.2563   3.9425   7.2494   H         1 RES1   0.0000
    60 H26      5.1315   5.0723   7.4166   H         1 RES1   0.0000
    61 C18      4.3494   3.2134   7.0251   C.2       1 RES1   0.0000
    62 C19     -0.1243   0.0168   4.7077   C.ar      1 RES1   0.0000
    63 C20     -0.9559   0.9107   4.0505   C.ar      1 RES1   0.0000
    64 H27     -0.9366   1.8269   4.3019   H         1 RES1   0.0000
    65 C21     -1.8210   0.5077   3.0289   C.ar      1 RES1   0.0000
    66 C22     -1.8254  -0.8242   2.6374   C.ar      1 RES1   0.0000
    67 H28     -2.3987  -1.1094   1.9359   H         1 RES1   0.0000
    68 C23     -1.0030  -1.7321   3.2647   C.ar      1 RES1   0.0000
    69 H29     -1.0054  -2.6410   2.9918   H         1 RES1   0.0000
    70 C24     -0.1685  -1.3176   4.2962   C.ar      1 RES1   0.0000
    71 H30      0.3844  -1.9565   4.7320   H         1 RES1   0.0000
    72 C25     -2.7986   1.4289   2.4031   C.2       1 RES1   0.0000
    73 C26      5.5023   2.6349  11.5499   C.ar      1 RES1   0.0000
    74 C27      5.6237   4.0120  11.7485   C.ar      1 RES1   0.0000
    75 H31      5.1170   4.6020  11.2042   H         1 RES1   0.0000
    76 C28      6.4665   4.5459  12.7229   C.ar      1 RES1   0.0000
    77 C29      7.1882   3.6858  13.5401   C.ar      1 RES1   0.0000
    78 H32      7.7481   4.0377  14.2216   H         1 RES1   0.0000
    79 C30      7.0946   2.3178  13.3630   C.ar      1 RES1   0.0000
    80 H33      7.6008   1.7319  13.9130   H         1 RES1   0.0000
    81 C31      6.2605   1.8009  12.3786   C.ar      1 RES1   0.0000
    82 H34      6.2034   0.8592  12.2657   H         1 RES1   0.0000
    83 C32      6.5610   6.0280  12.8815   C.2       1 RES1   0.0000
    84 B1       0.8408   0.4700   5.8893   B         1 RES1  -1.0000
    85 B2       4.5300   2.1100  10.4055   B         1 RES1  -1.0000
    86 O11     -4.6969   4.1879   2.1720   O.2       2 RES2   0.0000
    87 N7      -5.7628   2.7408   0.7787   N.am      2 RES2   0.0000
    88 H35     -5.0279   2.2947   0.9787   H         2 RES2   0.0000
    89 C33     -5.6461   3.9707   1.3744   C.2       2 RES2   0.0000
    90 C34     -6.6448   4.9315   1.0215   C.2       2 RES2   0.0000
    91 H36     -6.6330   5.7933   1.4202   H         2 RES2   0.0000
    92 C35     -7.6066   4.6184   0.1200   C.2       2 RES2   0.0000
    93 H37     -8.2575   5.2705  -0.1100   H         2 RES2   0.0000
    94 C36     -7.6594   3.3524  -0.4786   C.2       2 RES2   0.0000
    95 H38     -8.3304   3.1435  -1.1173   H         2 RES2   0.0000
    96 C37     -6.7294   2.4355  -0.1214   C.2       2 RES2   0.0000
    97 H39     -6.7547   1.5679  -0.5058   H         2 RES2   0.0000
    98 O12      7.5411   8.9355  14.2908   O.2       3 RES3   0.0000
    99 N8       8.2367  10.6824  15.5598   N.am      3 RES3   0.0000
   100 H40      7.5991  11.1175  15.2203   H         3 RES3   0.0000
   101 C38      8.3311   9.3811  15.1846   C.2       3 RES3   0.0000
   102 C39      9.3085   8.6070  15.8404   C.2       3 RES3   0.0000
   103 H41      9.4176   7.6923  15.6075   H         3 RES3   0.0000
   104 C40     10.0962   9.1546  16.8019   C.2       3 RES3   0.0000
   105 H42     10.7443   8.6191  17.2434   H         3 RES3   0.0000
   106 C41      9.9559  10.5184  17.1520   C.2       3 RES3   0.0000
   107 H43     10.5103  10.9106  17.8163   H         3 RES3   0.0000
   108 C42      9.0105  11.2521  16.5133   C.2       3 RES3   0.0000
   109 H44      8.8908  12.1674  16.7376   H         3 RES3   0.0000
   110 N9       9.2886   6.9058   7.6723   N.1       4 RES4   0.0000
   111 C43      8.5159   6.4906   8.4095   C.1       4 RES4   0.0000
   112 C44      7.5431   6.0037   9.3497   C.3       4 RES4   0.0000
   113 H45      7.2989   5.0829   9.1196   H         4 RES4   0.0000
   114 H46      6.7449   6.5714   9.3182   H         4 RES4   0.0000
   115 H47      7.9237   6.0259  10.2526   H         4 RES4   0.0000
@<TRIPOS>BOND
     1     1    14    1
     2     2    14    1
     3     3    15    1
     4     4    16    1
     5     5    17    1
     6     6    18    1
     7     7    19    1
     8     8     9    1
     9    10    72    2
    10    11    12    1
    11    13    83    2
    12    14    20    2
    13    15     1    1
    14    16     1    1
    15    17     1    1
    16    18     1    1
    17    19     1    1
    18    20    21    1
    19    21    22    1
    20    23    21    1
    21    24    21    1
    22    25    24    1
    23    26    24    1
    24    27    24    1
    25    28    27    1
    26    29    27    1
    27    30    27    1
    28    31    30    1
    29    32    30    1
    30    33    17    2
    31    34    15    2
    32    35    34    1
    33    36    35    1
    34    37    35    1
    35    38    35    1
    36    39    38    1
    37    40    38    1
    38    41    38    1
    39    42    41    1
    40    43    41    1
    41    44    41    1
    42    45    44    1
    43    46    44    1
    44    47    18    2
    45    48    16    2
    46    49    48    1
    47    50    49    1
    48    51    49    1
    49    52    49    1
    50    53    52    1
    51    54    52    1
    52    55    52    1
    53    56    55    1
    54    57    55    1
    55    58    55    1
    56    59    58    1
    57    60    58    1
    58    61    19    2
    59    62    63   ar
    60    63    64    1
    61    65    63   ar
    62    66    65   ar
    63    67    66    1
    64    68    66   ar
    65    69    68    1
    66    70    62   ar
    67    71    70    1
    68    72     8    1
    69    73    74   ar
    70    74    75    1
    71    76    74   ar
    72    77    76   ar
    73    78    77    1
    74    79    77   ar
    75    80    79    1
    76    81    73   ar
    77    82    81    1
    78    83    11    1
    79    84     2    1
    80    85     5    1
    81     3    84    1
    82     4    84    1
    83     6    85    1
    84     7    85    1
    85    20    33    1
    86    30    33    1
    87    34    47    1
    88    44    47    1
    89    48    61    1
    90    58    61    1
    91    62    84    1
    92    65    72    1
    93    68    70   ar
    94    73    85    1
    95    76    83    1
    96    79    81   ar
    97    86    89    2
    98    87    88    1
    99    89    87   am
   100    90    89    1
   101    91    90    1
   102    92    90    2
   103    93    92    1
   104    94    92    1
   105    95    94    1
   106    96    87    1
   107    97    96    1
   108    94    96    2
   109    98   101    2
   110    99   100    1
   111   101    99   am
   112   102   101    1
   113   103   102    1
   114   104   102    2
   115   105   104    1
   116   106   104    1
   117   107   106    1
   118   108    99    1
   119   109   108    1
   120   106   108    2
   121   110   111    3
   122   111   112    1
   123   112   113    1
   124   114   112    1
   125   115   112    1
@<TRIPOS>SUBSTRUCTURE
     1 RES1        1 GROUP             0 ****  ****    0  
     2 RES2       86 GROUP             0 ****  ****    0  
     3 RES3       98 GROUP             0 ****  ****    0  
     4 RES4      110 GROUP             0 ****  ****    0  
@<TRIPOS>CRYSIN
   11.0256   14.1914   14.6082  101.4890   90.0610  106.8410     2     1
