@<TRIPOS>MOLECULE
KEXCIC
    88    95     3     0     0
SMALL
USER_CHARGES
****
Generated from the CSD

@<TRIPOS>ATOM
     1 Fe1      8.1862   8.1862   3.3739   Fe        1 RES1   1.0000
     2 O1      11.6256   4.4612   1.9644   O.2       1 RES1   0.0000
     3 N1       9.9258   7.2302   3.4288   N.2       1 RES1   0.0000
     4 N2      10.1414   6.0670   2.6824   N.am      1 RES1   0.0000
     5 N3      12.2523   5.8548   3.6490   N.am      1 RES1   0.0000
     6 N4      12.0458   6.9499   4.4835   N.2       1 RES1   0.0000
     7 N5       9.3724   9.2817   4.8254   N.ar      1 RES1   0.0000
     8 N6       8.0262   6.5812   1.9762   N.ar      1 RES1   0.0000
     9 C1      11.3716   5.3909   2.7208   C.2       1 RES1   0.0000
    10 C2      10.9078   7.5573   4.3030   C.2       1 RES1   0.0000
    11 C3      10.5983   8.7694   5.0791   C.ar      1 RES1   0.0000
    12 C4      11.4807   9.3572   5.9759   C.ar      1 RES1   0.0000
    13 H1      12.3267   8.9644   6.1556   H         1 RES1   0.0000
    14 C5      11.0938  10.5353   6.6040   C.ar      1 RES1   0.0000
    15 H2      11.6779  10.9642   7.2184   H         1 RES1   0.0000
    16 C6       9.8464  11.0812   6.3270   C.ar      1 RES1   0.0000
    17 H3       9.5713  11.8907   6.7412   H         1 RES1   0.0000
    18 C7       9.0092  10.4259   5.4361   C.ar      1 RES1   0.0000
    19 H4       8.1537  10.7952   5.2513   H         1 RES1   0.0000
    20 C8       6.8946   6.3158   1.2832   C.ar      1 RES1   0.0000
    21 H5       6.1834   6.9447   1.3170   H         1 RES1   0.0000
    22 C9       6.7284   5.1711   0.5292   C.ar      1 RES1   0.0000
    23 H6       5.9232   5.0139   0.0504   H         1 RES1   0.0000
    24 C10      7.7811   4.2486   0.4907   C.ar      1 RES1   0.0000
    25 H7       7.6906   3.4491  -0.0142   H         1 RES1   0.0000
    26 C11      8.9460   4.4947   1.1805   C.ar      1 RES1   0.0000
    27 H8       9.6654   3.8745   1.1597   H         1 RES1   0.0000
    28 C12      9.0443   5.6930   1.9201   C.ar      1 RES1   0.0000
    29 C13     13.5970   5.2420   3.7493   C.3       1 RES1   0.0000
    30 H9      13.5801   4.3776   3.2467   H         1 RES1   0.0000
    31 C14     14.6173   6.1413   3.0950   C.3       1 RES1   0.0000
    32 H10     14.3782   6.2773   2.1549   H         1 RES1   0.0000
    33 H11     15.5030   5.7229   3.1492   H         1 RES1   0.0000
    34 H12     14.6361   7.0048   3.5568   H         1 RES1   0.0000
    35 C15     13.9051   4.9330   5.2015   C.3       1 RES1   0.0000
    36 H13     14.0213   5.7699   5.6966   H         1 RES1   0.0000
    37 H14     14.7291   4.4042   5.2551   H         1 RES1   0.0000
    38 H15     13.1645   4.4223   5.5911   H         1 RES1   0.0000
    39 O1A      4.7468  11.9112   1.9644   O.2       1 RES1   0.0000
    40 N1A      6.4466   9.1422   3.4288   N.2       1 RES1   0.0000
    41 N2A      6.2310  10.3054   2.6824   N.am      1 RES1   0.0000
    42 N3A      4.1201  10.5176   3.6490   N.am      1 RES1   0.0000
    43 N4A      4.3266   9.4225   4.4835   N.2       1 RES1   0.0000
    44 N5A      7.0000   7.0907   4.8254   N.ar      1 RES1   0.0000
    45 N6A      8.3462   9.7912   1.9762   N.ar      1 RES1   0.0000
    46 C1A      5.0008  10.9815   2.7208   C.2       1 RES1   0.0000
    47 C2A      5.4646   8.8151   4.3030   C.2       1 RES1   0.0000
    48 C3A      5.7741   7.6030   5.0791   C.ar      1 RES1   0.0000
    49 C4A      4.8917   7.0152   5.9759   C.ar      1 RES1   0.0000
    50 H1A      4.0457   7.4080   6.1556   H         1 RES1   0.0000
    51 C5A      5.2786   5.8371   6.6040   C.ar      1 RES1   0.0000
    52 H2A      4.6945   5.4082   7.2184   H         1 RES1   0.0000
    53 C6A      6.5260   5.2912   6.3270   C.ar      1 RES1   0.0000
    54 H3A      6.8011   4.4817   6.7412   H         1 RES1   0.0000
    55 C7A      7.3632   5.9465   5.4361   C.ar      1 RES1   0.0000
    56 H4A      8.2187   5.5772   5.2513   H         1 RES1   0.0000
    57 C8A      9.4778  10.0566   1.2832   C.ar      1 RES1   0.0000
    58 H5A     10.1890   9.4277   1.3170   H         1 RES1   0.0000
    59 C9A      9.6440  11.2013   0.5292   C.ar      1 RES1   0.0000
    60 H6A     10.4492  11.3585   0.0504   H         1 RES1   0.0000
    61 C10A     8.5913  12.1238   0.4907   C.ar      1 RES1   0.0000
    62 H7A      8.6818  12.9233  -0.0142   H         1 RES1   0.0000
    63 C11A     7.4264  11.8777   1.1805   C.ar      1 RES1   0.0000
    64 H8A      6.7070  12.4979   1.1597   H         1 RES1   0.0000
    65 C12A     7.3281  10.6794   1.9201   C.ar      1 RES1   0.0000
    66 C13A     2.7754  11.1304   3.7493   C.3       1 RES1   0.0000
    67 H9A      2.7923  11.9948   3.2467   H         1 RES1   0.0000
    68 C14A     1.7551  10.2311   3.0950   C.3       1 RES1   0.0000
    69 H10A     1.9942  10.0951   2.1549   H         1 RES1   0.0000
    70 H11A     0.8694  10.6495   3.1492   H         1 RES1   0.0000
    71 H12A     1.7363   9.3676   3.5568   H         1 RES1   0.0000
    72 C15A     2.4673  11.4394   5.2015   C.3       1 RES1   0.0000
    73 H13A     2.3511  10.6025   5.6966   H         1 RES1   0.0000
    74 H14A     1.6433  11.9682   5.2551   H         1 RES1   0.0000
    75 H15A     3.2079  11.9501   5.5911   H         1 RES1   0.0000
    76 P1       8.1862   0.0000   6.7943   P.3       2 RES2  -1.0000
    77 F1       9.1848   1.2574   6.7831   F         2 RES2   0.0000
    78 F2       9.4354  -0.9905   6.7461   F         2 RES2   0.0000
    79 F3       8.1862   0.0000   5.1858   F         2 RES2   0.0000
    80 F4       8.1862   0.0000   8.3619   F         2 RES2   0.0000
    81 F1A      7.1876  -1.2574   6.7831   F         2 RES2   0.0000
    82 F2A      6.9370   0.9905   6.7461   F         2 RES2   0.0000
    83 N7       9.8316   3.7175   4.7378   N.1       3 RES3   0.0000
    84 C16     10.1984   2.7597   4.2457   C.1       3 RES3   0.0000
    85 C17     10.6650   1.5439   3.6013   C.3       3 RES3   0.0000
    86 H16     10.4081   1.5553   2.6561   H         3 RES3   0.0000
    87 H17     10.2605   0.7662   4.0406   H         3 RES3   0.0000
    88 H18     11.6406   1.4892   3.6748   H         3 RES3   0.0000
@<TRIPOS>BOND
     1     1     3    1
     2     2     9    2
     3     3     4    1
     4     4     9   am
     5     5     6    1
     6     6    10    2
     7     7     1    1
     8     8     1    1
     9     9     5   am
    10    10     3    1
    11    11     7   ar
    12    12    11   ar
    13    13    12    1
    14    14    12   ar
    15    15    14    1
    16    16    14   ar
    17    17    16    1
    18    18     7   ar
    19    19    18    1
    20    20     8   ar
    21    21    20    1
    22    22    20   ar
    23    23    22    1
    24    24    22   ar
    25    25    24    1
    26    26    24   ar
    27    27    26    1
    28    28     4    1
    29    29     5    1
    30    30    29    1
    31    31    29    1
    32    32    31    1
    33    33    31    1
    34    34    31    1
    35    35    29    1
    36    36    35    1
    37    37    35    1
    38    38    35    1
    39    39    46    2
    40    40     1    1
    41    41    40    1
    42    42    43    1
    43    43    47    2
    44    44     1    1
    45    45     1    1
    46    46    41   am
    47    47    40    1
    48    48    44   ar
    49    49    48   ar
    50    50    49    1
    51    51    49   ar
    52    52    51    1
    53    53    51   ar
    54    54    53    1
    55    55    44   ar
    56    56    55    1
    57    57    45   ar
    58    58    57    1
    59    59    57   ar
    60    60    59    1
    61    61    59   ar
    62    62    61    1
    63    63    61   ar
    64    64    63    1
    65    65    41    1
    66    66    42    1
    67    67    66    1
    68    68    66    1
    69    69    68    1
    70    70    68    1
    71    71    68    1
    72    72    66    1
    73    73    72    1
    74    74    72    1
    75    75    72    1
    76     8    28   ar
    77    10    11    1
    78    16    18   ar
    79    26    28   ar
    80    42    46   am
    81    45    65   ar
    82    47    48    1
    83    53    55   ar
    84    63    65   ar
    85    76    77    1
    86    78    76    1
    87    79    76    1
    88    80    76    1
    89    81    76    1
    90    82    76    1
    91    83    84    3
    92    84    85    1
    93    85    86    1
    94    87    85    1
    95    88    85    1
@<TRIPOS>SUBSTRUCTURE
     1 RES1        1 GROUP             0 ****  ****    0  
     2 RES2       76 GROUP             0 ****  ****    0  
     3 RES3       83 GROUP             0 ****  ****    0  
@<TRIPOS>CRYSIN
   16.3724   16.3724   14.2233   90.0000   90.0000   90.0000    82     1
