@<TRIPOS>MOLECULE
KEXCAU
    95   101     4     0     0
SMALL
USER_CHARGES
****
Generated from the CSD

@<TRIPOS>ATOM
     1 Fe1      2.3897  14.1683  11.5391   Fe        1 RES1   2.0000
     2 O1       3.5882  18.5125  13.9201   O.2       1 RES1   0.0000
     3 N1       2.0606  15.8861  12.1221   N.2       1 RES1   0.0000
     4 N2       2.7450  12.4566  10.9348   N.2       1 RES1   0.0000
     5 N3       1.8268  13.0896  13.0986   N.ar      1 RES1   0.0000
     6 N4       3.1811   9.9814   9.9892   N.am      1 RES1   0.0000
     7 N5       2.9984  14.5662   9.6728   N.ar      1 RES1   0.0000
     8 N6       0.5322  14.4097  10.8592   N.ar      1 RES1   0.0000
     9 N7       1.6193  18.4573  12.7736   N.am      1 RES1   0.0000
    10 O2       2.5365   9.0936  12.0136   O.2       1 RES1   0.0000
    11 N8       3.0035  16.5783  12.8415   N.am      1 RES1   0.0000
    12 N9       2.5071  11.3717  11.7505   N.am      1 RES1   0.0000
    13 N10      0.6591  17.7826  12.0585   N.2       1 RES1   0.0000
    14 N11      4.1146  14.6176  12.4015   N.ar      1 RES1   0.0000
    15 N12      3.3904  11.0410   9.1611   N.2       1 RES1   0.0000
    16 C1       4.1799  15.8253  13.0057   C.ar      1 RES1   0.0000
    17 C2       5.2937  16.2634  13.6976   C.ar      1 RES1   0.0000
    18 H1       5.3064  17.1226  14.1062   H         1 RES1   0.0000
    19 C3       3.1788  12.2259   9.6827   C.2       1 RES1   0.0000
    20 C4       0.0497  15.6728  11.0029   C.ar      1 RES1   0.0000
    21 C5       3.7833  14.7989   7.0252   C.ar      1 RES1   0.0000
    22 H2       4.0649  14.8879   6.1229   H         1 RES1   0.0000
    23 C6       2.7917  17.9120  13.2317   C.2       1 RES1   0.0000
    24 C7       1.9704  11.7522  12.9748   C.ar      1 RES1   0.0000
    25 C8       3.4190  15.9068   7.7511   C.ar      1 RES1   0.0000
    26 H3       3.4306  16.7682   7.3503   H         1 RES1   0.0000
    27 C9       6.3390  14.1857  13.1791   C.ar      1 RES1   0.0000
    28 H4       7.0824  13.5974  13.2348   H         1 RES1   0.0000
    29 C10     -1.1360  16.0837  10.4411   C.ar      1 RES1   0.0000
    30 H5      -1.4499  16.9720  10.5649   H         1 RES1   0.0000
    31 C11      0.9340  16.5423  11.7830   C.2       1 RES1   0.0000
    32 C12     -1.4045  13.8818   9.5883   C.ar      1 RES1   0.0000
    33 H6      -1.9136  13.2362   9.1116   H         1 RES1   0.0000
    34 C13     -0.2136  13.5226  10.1703   C.ar      1 RES1   0.0000
    35 H7       0.0915  12.6263  10.0836   H         1 RES1   0.0000
    36 C14      3.3217  13.4710   8.9475   C.ar      1 RES1   0.0000
    37 C15      3.0372  15.7582   9.0621   C.ar      1 RES1   0.0000
    38 H8       2.7910  16.5327   9.5558   H         1 RES1   0.0000
    39 C16      3.7366  13.5574   7.6211   C.ar      1 RES1   0.0000
    40 H9       3.9822  12.7769   7.1367   H         1 RES1   0.0000
    41 C17      6.3772  15.4335  13.7827   C.ar      1 RES1   0.0000
    42 H10      7.1549  15.7107  14.2532   H         1 RES1   0.0000
    43 C18      1.2998  19.8810  13.0862   C.3       1 RES1   0.0000
    44 H11      2.1372  20.3205  13.4112   H         1 RES1   0.0000
    45 C19      2.7408  10.0673  11.2815   C.2       1 RES1   0.0000
    46 C20     -1.8629  15.1769   9.6935   C.ar      1 RES1   0.0000
    47 H12     -2.6655  15.4410   9.2602   H         1 RES1   0.0000
    48 C21      5.2017  13.8153  12.4965   C.ar      1 RES1   0.0000
    49 H13      5.1782  12.9626  12.0755   H         1 RES1   0.0000
    50 C22      3.3844   8.6188   9.4150   C.3       1 RES1   0.0000
    51 H14      3.7244   8.0207  10.1424   H         1 RES1   0.0000
    52 C23      1.2916  13.5783  14.2424   C.ar      1 RES1   0.0000
    53 H15      1.2018  14.5170  14.3476   H         1 RES1   0.0000
    54 C24      1.5784  10.8709  13.9793   C.ar      1 RES1   0.0000
    55 H16      1.6896   9.9326  13.8756   H         1 RES1   0.0000
    56 C25      1.0369  11.3839  15.1060   C.ar      1 RES1   0.0000
    57 H17      0.7655  10.7971  15.8025   H         1 RES1   0.0000
    58 C26      4.4186   8.6705   8.3300   C.3       1 RES1   0.0000
    59 H18      4.0399   9.1067   7.5391   H         1 RES1   0.0000
    60 H19      4.6962   7.7593   8.1009   H         1 RES1   0.0000
    61 H20      5.1947   9.1799   8.6426   H         1 RES1   0.0000
    62 C27      0.2857  19.9309  14.2006   C.3       1 RES1   0.0000
    63 H21     -0.5200  19.4430  13.9297   H         1 RES1   0.0000
    64 H22      0.0544  20.8639  14.3894   H         1 RES1   0.0000
    65 H23      0.6630  19.5176  15.0039   H         1 RES1   0.0000
    66 C28      2.0450   8.0791   8.9429   C.3       1 RES1   0.0000
    67 H24      1.3897   8.1519   9.6688   H         1 RES1   0.0000
    68 H25      2.1437   7.1384   8.6844   H         1 RES1   0.0000
    69 H26      1.7369   8.5994   8.1721   H         1 RES1   0.0000
    70 C29      0.8408  20.6134  11.8511   C.3       1 RES1   0.0000
    71 H27      1.4864  20.4693  11.1283   H         1 RES1   0.0000
    72 H28      0.7757  21.5717  12.0461   H         1 RES1   0.0000
    73 H29     -0.0369  20.2751  11.5787   H         1 RES1   0.0000
    74 C30      0.8699  12.7414  15.2623   C.ar      1 RES1   0.0000
    75 H30      0.4758  13.0955  16.0517   H         1 RES1   0.0000
    76 P1       4.0352   4.4425   9.8698   P.3       2 RES2  -1.0000
    77 F1       4.7627   3.3514   8.9650   F         2 RES2   0.0000
    78 F2       5.3231   4.5038  10.8293   F         2 RES2   0.0000
    79 F3       3.3144   5.5321  10.7627   F         2 RES2   0.0000
    80 F4       3.4860   3.2744  10.7657   F         2 RES2   0.0000
    81 F5       4.6897   5.5814   9.0076   F         2 RES2   0.0000
    82 F6       2.8093   4.3718   8.8946   F         2 RES2   0.0000
    83 P2       4.7757   9.2910   3.6691   P.3       3 RES3  -1.0000
    84 F7       5.4392   8.3570   4.7915   F         3 RES3   0.0000
    85 F8       5.2497  10.5735   4.4560   F         3 RES3   0.0000
    86 F9       4.1284  10.1969   2.5491   F         3 RES3   0.0000
    87 F10      4.2983   7.9852   2.9005   F         3 RES3   0.0000
    88 F11      3.4118   9.2650   4.4807   F         3 RES3   0.0000
    89 F12      6.1568   9.2495   2.8989   F         3 RES3   0.0000
    90 N13      6.9767  11.9636  -0.2043   N.1       4 RES4   0.0000
    91 C31      6.9572  12.6194   2.2767   C.3       4 RES4   0.0000
    92 H31      7.0699  13.5906   2.3479   H         4 RES4   0.0000
    93 H32      7.6847  12.1696   2.7534   H         4 RES4   0.0000
    94 H33      6.0982  12.3594   2.6699   H         4 RES4   0.0000
    95 C32      6.9829  12.2366   0.8931   C.1       4 RES4   0.0000
@<TRIPOS>BOND
     1     1     3    1
     2     2    23    2
     3     3    11    1
     4     4     1    1
     5     5     1    1
     6     6    15    1
     7     7     1    1
     8     8     1    1
     9     9    13    1
    10    10    45    2
    11    11    16    1
    12    12     4    1
    13    13    31    2
    14    14     1    1
    15    15    19    2
    16    16    14   ar
    17    17    16   ar
    18    18    17    1
    19    19     4    1
    20    20     8   ar
    21    21    22    1
    22    23     9   am
    23    24     5   ar
    24    25    21   ar
    25    26    25    1
    26    27    28    1
    27    29    20   ar
    28    30    29    1
    29    31     3    1
    30    32    33    1
    31    34     8   ar
    32    35    34    1
    33    36     7   ar
    34    37     7   ar
    35    38    37    1
    36    39    21   ar
    37    40    39    1
    38    41    17   ar
    39    42    41    1
    40    43     9    1
    41    44    43    1
    42    45     6   am
    43    46    29   ar
    44    47    46    1
    45    48    14   ar
    46    49    48    1
    47    50     6    1
    48    51    50    1
    49    52     5   ar
    50    53    52    1
    51    54    24   ar
    52    55    54    1
    53    56    54   ar
    54    57    56    1
    55    58    50    1
    56    59    58    1
    57    60    58    1
    58    61    58    1
    59    62    43    1
    60    63    62    1
    61    64    62    1
    62    65    62    1
    63    66    50    1
    64    67    66    1
    65    68    66    1
    66    69    66    1
    67    70    43    1
    68    71    70    1
    69    72    70    1
    70    73    70    1
    71    74    52   ar
    72    75    74    1
    73    11    23   am
    74    12    24    1
    75    12    45   am
    76    19    36    1
    77    20    31    1
    78    25    37   ar
    79    27    41   ar
    80    27    48   ar
    81    32    34   ar
    82    32    46   ar
    83    36    39   ar
    84    56    74   ar
    85    76    77    1
    86    78    76    1
    87    79    76    1
    88    80    76    1
    89    81    76    1
    90    82    76    1
    91    83    84    1
    92    85    83    1
    93    86    83    1
    94    87    83    1
    95    88    83    1
    96    89    83    1
    97    90    95    3
    98    91    92    1
    99    93    91    1
   100    94    91    1
   101    95    91    1
@<TRIPOS>SUBSTRUCTURE
     1 RES1        1 GROUP             0 ****  ****    0  
     2 RES2       76 GROUP             0 ****  ****    0  
     3 RES3       83 GROUP             0 ****  ****    0  
     4 RES4       90 GROUP             0 ****  ****    0  
@<TRIPOS>CRYSIN
    8.4972   14.7410   16.3400   73.0260   81.5840   87.2500     2     1
