@<TRIPOS>MOLECULE
KEYKAE
    76    79     1     0     0
SMALL
NO_CHARGES
****
Generated from the CSD

@<TRIPOS>ATOM
     1 Fe1      3.3920  12.5021   6.3081   Fe        1 RES1   0.0000
     2 H1       2.1532  11.7843   6.5947   H         1 RES1   0.0000
     3 P1       4.0794  10.6220   5.4291   P.3       1 RES1   0.0000
     4 P2       2.4199  13.8966   7.6623   P.3       1 RES1   0.0000
     5 N1       4.3284  11.8311   7.8995   N.ar      1 RES1   0.0000
     6 C1       5.7007  10.4089   6.3756   C.3       1 RES1   0.0000
     7 C2       5.4180  11.0149   7.7542   C.ar      1 RES1   0.0000
     8 C3       6.2747  10.7598   8.8187   C.ar      1 RES1   0.0000
     9 H2       7.0452  10.2199   8.6864   H         1 RES1   0.0000
    10 C4       6.0107  11.2878  10.0689   C.ar      1 RES1   0.0000
    11 H3       6.6088  11.1454  10.7930   H         1 RES1   0.0000
    12 C5       4.8521  12.0300  10.2404   C.ar      1 RES1   0.0000
    13 H4       4.6276  12.3663  11.1000   H         1 RES1   0.0000
    14 C6       4.0206  12.2823   9.1604   C.ar      1 RES1   0.0000
    15 C7       2.6946  13.0257   9.3300   C.3       1 RES1   0.0000
    16 C8       3.1400   9.0556   5.7940   C.3       1 RES1   0.0000
    17 H5       3.6932   8.2788   5.4932   H         1 RES1   0.0000
    18 C9       2.8685   8.9039   7.2892   C.3       1 RES1   0.0000
    19 H6       2.3065   9.6458   7.5961   H         1 RES1   0.0000
    20 H7       3.7177   8.9135   7.7781   H         1 RES1   0.0000
    21 H8       2.4068   8.0550   7.4529   H         1 RES1   0.0000
    22 C10      1.8040   9.0140   5.0492   C.3       1 RES1   0.0000
    23 H9       1.9691   8.9702   4.0842   H         1 RES1   0.0000
    24 H10      1.2893   9.8219   5.2562   H         1 RES1   0.0000
    25 H11      1.2978   8.2233   5.3302   H         1 RES1   0.0000
    26 C11      4.4948  10.5083   3.6190   C.3       1 RES1   0.0000
    27 H12      5.1889  11.2084   3.4516   H         1 RES1   0.0000
    28 C12      5.0906   9.1958   3.1107   C.3       1 RES1   0.0000
    29 H13      4.4749   8.4594   3.3083   H         1 RES1   0.0000
    30 H14      5.9484   9.0326   3.5556   H         1 RES1   0.0000
    31 H15      5.2305   9.2539   2.1426   H         1 RES1   0.0000
    32 C13      3.2735  10.9088   2.7645   C.3       1 RES1   0.0000
    33 H16      2.6728  11.4713   3.2965   H         1 RES1   0.0000
    34 H17      2.7968  10.1020   2.4775   H         1 RES1   0.0000
    35 H18      3.5754  11.4073   1.9766   H         1 RES1   0.0000
    36 C14      0.5809  14.0979   7.4841   C.3       1 RES1   0.0000
    37 H19      0.1875  13.2007   7.6850   H         1 RES1   0.0000
    38 C15     -0.0818  15.0728   8.4607   C.3       1 RES1   0.0000
    39 H20      0.2355  15.9822   8.2803   H         1 RES1   0.0000
    40 H21      0.1495  14.8224   9.3796   H         1 RES1   0.0000
    41 H22     -1.0546  15.0377   8.3476   H         1 RES1   0.0000
    42 C16      0.1936  14.4095   6.0298   C.3       1 RES1   0.0000
    43 H23      0.5540  13.7150   5.4398   H         1 RES1   0.0000
    44 H24      0.5626  15.2802   5.7729   H         1 RES1   0.0000
    45 H25     -0.7829  14.4320   5.9495   H         1 RES1   0.0000
    46 C17      3.0534  15.6164   8.0214   C.3       1 RES1   0.0000
    47 H26      2.6559  15.9231   8.8862   H         1 RES1   0.0000
    48 C18      4.5744  15.5625   8.1841   C.3       1 RES1   0.0000
    49 H27      4.9881  15.3542   7.3204   H         1 RES1   0.0000
    50 H28      4.8088  14.8679   8.8345   H         1 RES1   0.0000
    51 H29      4.9000  16.4305   8.5015   H         1 RES1   0.0000
    52 C19      2.6830  16.6326   6.9348   C.3       1 RES1   0.0000
    53 H30      1.7141  16.7788   6.9409   H         1 RES1   0.0000
    54 H31      2.9559  16.2881   6.0588   H         1 RES1   0.0000
    55 H32      3.1425  17.4803   7.1100   H         1 RES1   0.0000
    56 C20      6.2278   8.9617   6.5031   C.3       1 RES1   0.0000
    57 H33      6.2569   8.5454   5.6166   H         1 RES1   0.0000
    58 H34      5.6317   8.4471   7.0864   H         1 RES1   0.0000
    59 H35      7.1292   8.9752   6.8875   H         1 RES1   0.0000
    60 C21      6.7968  11.2493   5.6818   C.3       1 RES1   0.0000
    61 H36      6.4563  12.1518   5.5093   H         1 RES1   0.0000
    62 H37      7.0448  10.8260   4.8334   H         1 RES1   0.0000
    63 H38      7.5842  11.3026   6.2627   H         1 RES1   0.0000
    64 C22      1.5953  11.9558   9.5631   C.3       1 RES1   0.0000
    65 H39      1.4903  11.4135   8.7536   H         1 RES1   0.0000
    66 H40      0.7467  12.3993   9.7715   H         1 RES1   0.0000
    67 H41      1.8546  11.3786  10.3115   H         1 RES1   0.0000
    68 C23      2.7041  13.9361  10.5741   C.3       1 RES1   0.0000
    69 H42      1.8867  14.4764  10.5898   H         1 RES1   0.0000
    70 H43      3.4855  14.5266  10.5409   H         1 RES1   0.0000
    71 H44      2.7462  13.3838  11.3827   H         1 RES1   0.0000
    72 B1       3.9583  13.7752   4.7139   B         1 RES1   0.0000
    73 H45      4.6311  13.4822   5.7114   H         1 RES1   0.0000
    74 H46      2.8389  13.1704   4.9420   H         1 RES1   0.0000
    75 H47      3.7377  14.8683   4.6624   H         1 RES1   0.0000
    76 H48      4.4264  13.3933   3.7595   H         1 RES1   0.0000
@<TRIPOS>BOND
     1     1     2    1
     2     3     1    1
     3     4     1    1
     4     5     1    1
     5     6     3    1
     6     7     5   ar
     7     8     7   ar
     8     9     8    1
     9    10     8   ar
    10    11    10    1
    11    12    10   ar
    12    13    12    1
    13    14     5   ar
    14    15     4    1
    15    16     3    1
    16    17    16    1
    17    18    16    1
    18    19    18    1
    19    20    18    1
    20    21    18    1
    21    22    16    1
    22    23    22    1
    23    24    22    1
    24    25    22    1
    25    26     3    1
    26    27    26    1
    27    28    26    1
    28    29    28    1
    29    30    28    1
    30    31    28    1
    31    32    26    1
    32    33    32    1
    33    34    32    1
    34    35    32    1
    35    36     4    1
    36    37    36    1
    37    38    36    1
    38    39    38    1
    39    40    38    1
    40    41    38    1
    41    42    36    1
    42    43    42    1
    43    44    42    1
    44    45    42    1
    45    46     4    1
    46    47    46    1
    47    48    46    1
    48    49    48    1
    49    50    48    1
    50    51    48    1
    51    52    46    1
    52    53    52    1
    53    54    52    1
    54    55    52    1
    55    56     6    1
    56    57    56    1
    57    58    56    1
    58    59    56    1
    59    60     6    1
    60    61    60    1
    61    62    60    1
    62    63    60    1
    63    64    15    1
    64    65    64    1
    65    66    64    1
    66    67    64    1
    67    68    15    1
    68    69    68    1
    69    70    68    1
    70    71    68    1
    71    72    73    1
    72    73     1    1
    73    74     1    1
    74    75    72    1
    75    76    72    1
    76     6     7    1
    77    12    14   ar
    78    14    15    1
    79    72    74    1
@<TRIPOS>SUBSTRUCTURE
     1 RES1        1 GROUP             0 ****  ****    0  
@<TRIPOS>CRYSIN
    8.2953   17.4143   17.9563   90.0000   97.3423   90.0000   231     1
