@<TRIPOS>MOLECULE
KEYQAK
    96   100     3     0     0
SMALL
USER_CHARGES
****
Generated from the CSD

@<TRIPOS>ATOM
     1 Fe1      4.7555   9.2963   9.8683   Fe        1 RES1   1.0000
     2 O1       3.6228   8.2054   8.8372   O.3       1 RES1   0.0000
     3 O2       5.9120  10.4964  10.7515   O.3       1 RES1   0.0000
     4 N1       3.6428   9.0077  11.4480   N.2       1 RES1   0.0000
     5 N2       5.7130   9.6379   8.1111   N.3       1 RES1   0.0000
     6 H1       6.5342  10.1316   8.3177   H         1 RES1   0.0000
     7 N3       5.9668   7.8271  10.2523   N.2       1 RES1   0.0000
     8 N4       1.6406   4.0243   7.7775   N.pl3     1 RES1   0.0000
     9 N5       7.8850  12.0749  14.7840   N.pl3     1 RES1   0.0000
    10 N6       3.6382  10.9093   9.3978   N.3       1 RES1   0.0000
    11 H2       2.7917  10.5700   9.0395   H         1 RES1   0.0000
    12 C1       3.0281   7.1167   9.2831   C.ar      1 RES1   0.0000
    13 C2       2.8955   7.9720  11.6046   C.2       1 RES1   0.0000
    14 H3       2.4422   7.8949  12.4132   H         1 RES1   0.0000
    15 C3       6.8507  11.2470  12.7641   C.ar      1 RES1   0.0000
    16 H4       6.6067  12.1148  12.5362   H         1 RES1   0.0000
    17 C4       1.9522   5.7688  10.9905   C.ar      1 RES1   0.0000
    18 H5       1.7023   5.6478  11.8782   H         1 RES1   0.0000
    19 C5       2.6996   6.9307  10.6473   C.ar      1 RES1   0.0000
    20 C6       7.5402   8.6658  13.4609   C.ar      1 RES1   0.0000
    21 H6       7.7858   7.7996  13.6914   H         1 RES1   0.0000
    22 C7       2.6679   6.1363   8.3493   C.ar      1 RES1   0.0000
    23 H7       2.9082   6.2577   7.4590   H         1 RES1   0.0000
    24 C8       1.9560   4.9732   8.7068   C.ar      1 RES1   0.0000
    25 C9       6.7126   7.8024  11.3092   C.2       1 RES1   0.0000
    26 H8       7.1956   7.0242  11.4722   H         1 RES1   0.0000
    27 C10      1.5866   4.8280  10.0797   C.ar      1 RES1   0.0000
    28 H9       1.0938   4.0871  10.3508   H         1 RES1   0.0000
    29 C11      6.8569   8.8737  12.2485   C.ar      1 RES1   0.0000
    30 C12      6.5183  10.2068  11.8955   C.ar      1 RES1   0.0000
    31 C13      6.2568   6.8129   9.2227   C.3       1 RES1   0.0000
    32 H10      5.4303   6.4039   8.9228   H         1 RES1   0.0000
    33 H11      6.8215   6.1181   9.5963   H         1 RES1   0.0000
    34 C14      3.3737  10.1363  12.3640   C.3       1 RES1   0.0000
    35 H12      4.2106  10.5202  12.6691   H         1 RES1   0.0000
    36 H13      2.8824   9.8220  13.1391   H         1 RES1   0.0000
    37 C15      4.8307  10.5502   7.3380   C.3       1 RES1   0.0000
    38 H14      4.0857  10.0558   6.9623   H         1 RES1   0.0000
    39 H15      5.3266  10.9574   6.6102   H         1 RES1   0.0000
    40 C16      6.0964   8.4738   7.2869   C.3       1 RES1   0.0000
    41 H16      6.5788   8.7856   6.5053   H         1 RES1   0.0000
    42 H17      5.2924   8.0262   6.9799   H         1 RES1   0.0000
    43 C17      7.8588   9.6911  14.3171   C.ar      1 RES1   0.0000
    44 H18      8.2824   9.5104  15.1253   H         1 RES1   0.0000
    45 C18      4.3224  11.6191   8.2795   C.3       1 RES1   0.0000
    46 H19      5.0596  12.1503   8.6173   H         1 RES1   0.0000
    47 H20      3.7009  12.2056   7.8214   H         1 RES1   0.0000
    48 C19      2.5545  11.1955  11.6247   C.3       1 RES1   0.0000
    49 H21      1.7507  10.7803  11.2751   H         1 RES1   0.0000
    50 H22      2.2822  11.8775  12.2576   H         1 RES1   0.0000
    51 C20      7.5341  11.0371  13.9581   C.ar      1 RES1   0.0000
    52 C21      2.0725   4.1706   6.3848   C.3       1 RES1   0.0000
    53 H23      1.9311   5.0890   6.1036   H         1 RES1   0.0000
    54 H24      1.5278   3.6002   5.8212   H         1 RES1   0.0000
    55 C22      0.7728   2.8751   8.0518   C.3       1 RES1   0.0000
    56 H25      0.8981   2.5928   8.9713   H         1 RES1   0.0000
    57 H26      1.0286   2.1375   7.4759   H         1 RES1   0.0000
    58 C23     -0.6957   3.2046   7.8234   C.3       1 RES1   0.0000
    59 H27     -0.8146   3.5339   6.9297   H         1 RES1   0.0000
    60 H28     -0.9751   3.8739   8.4517   H         1 RES1   0.0000
    61 H29     -1.2237   2.4114   7.9447   H         1 RES1   0.0000
    62 C24      6.9648   7.4744   8.0418   C.3       1 RES1   0.0000
    63 H30      7.7563   7.9310   8.3673   H         1 RES1   0.0000
    64 H31      7.2555   6.7844   7.4250   H         1 RES1   0.0000
    65 C25      8.5206  11.8804  16.0749   C.3       1 RES1   0.0000
    66 H32      8.2390  11.0265  16.4397   H         1 RES1   0.0000
    67 H33      8.2216  12.5750  16.6820   H         1 RES1   0.0000
    68 C26      3.2904  11.8606  10.4848   C.3       1 RES1   0.0000
    69 H34      2.7375  12.5689  10.1194   H         1 RES1   0.0000
    70 H35      4.1044  12.2640  10.8241   H         1 RES1   0.0000
    71 C27      3.5349   3.8123   6.1919   C.3       1 RES1   0.0000
    72 H36      3.8001   4.0221   5.2939   H         1 RES1   0.0000
    73 H37      3.6568   2.8730   6.3506   H         1 RES1   0.0000
    74 H38      4.0716   4.3133   6.8102   H         1 RES1   0.0000
    75 C28     10.0477  11.9100  15.9974   C.3       1 RES1   0.0000
    76 H39     10.3526  11.2016  15.4247   H         1 RES1   0.0000
    77 H40     10.4150  11.7908  16.8761   H         1 RES1   0.0000
    78 H41     10.3338  12.7541  15.6420   H         1 RES1   0.0000
    79 C29      7.5209  13.4619  14.4539   C.3       1 RES1   0.0000
    80 H42      7.5983  13.5904  13.4944   H         1 RES1   0.0000
    81 H43      8.1461  14.0659  14.8844   H         1 RES1   0.0000
    82 C30      6.1226  13.8103  14.8848   C.3       1 RES1   0.0000
    83 H44      5.4954  13.2568  14.4144   H         1 RES1   0.0000
    84 H45      5.9470  14.7332  14.6865   H         1 RES1   0.0000
    85 H46      6.0338  13.6637  15.8294   H         1 RES1   0.0000
    86 F1       0.9803  10.6009   7.9752   F         2 RES2   0.0000
    87 F2       2.0416  10.9089   5.9719   F         2 RES2   0.0000
    88 F3       1.3120  12.6678   7.1241   F         2 RES2   0.0000
    89 F4      -0.1751  11.2885   6.1525   F         2 RES2   0.0000
    90 B1       1.0235  11.3657   6.7892   B         2 RES2  -1.0000
    91 C31     -1.1708  14.2121  10.4255   C.1       3 RES3   0.0000
    92 N7      -1.9645  14.8455  11.0069   N.1       3 RES3   0.0000
    93 C32     -0.2430  13.2659   9.6846   C.3       3 RES3   0.0000
    94 H47     -0.0881  13.5996   8.7978   H         3 RES3   0.0000
    95 H48     -0.6463  12.3966   9.6337   H         3 RES3   0.0000
    96 H49      0.5927  13.2043  10.1534   H         3 RES3   0.0000
@<TRIPOS>BOND
     1     1     2    1
     2     2    12    1
     3     3     1    1
     4     4     1    1
     5     5     1    1
     6     6     5    1
     7     7     1    1
     8     8    24    1
     9     9    51    1
    10    10     1    1
    11    11    10    1
    12    12    19   ar
    13    13     4    2
    14    14    13    1
    15    15    16    1
    16    17    18    1
    17    19    13    1
    18    20    21    1
    19    22    12   ar
    20    23    22    1
    21    24    22   ar
    22    25     7    2
    23    26    25    1
    24    27    17   ar
    25    28    27    1
    26    29    20   ar
    27    30     3    1
    28    31     7    1
    29    32    31    1
    30    33    31    1
    31    34     4    1
    32    35    34    1
    33    36    34    1
    34    37     5    1
    35    38    37    1
    36    39    37    1
    37    40     5    1
    38    41    40    1
    39    42    40    1
    40    43    20   ar
    41    44    43    1
    42    45    10    1
    43    46    45    1
    44    47    45    1
    45    48    34    1
    46    49    48    1
    47    50    48    1
    48    51    15   ar
    49    52     8    1
    50    53    52    1
    51    54    52    1
    52    55     8    1
    53    56    55    1
    54    57    55    1
    55    58    55    1
    56    59    58    1
    57    60    58    1
    58    61    58    1
    59    62    31    1
    60    63    62    1
    61    64    62    1
    62    65     9    1
    63    66    65    1
    64    67    65    1
    65    68    10    1
    66    69    68    1
    67    70    68    1
    68    71    52    1
    69    72    71    1
    70    73    71    1
    71    74    71    1
    72    75    65    1
    73    76    75    1
    74    77    75    1
    75    78    75    1
    76    79     9    1
    77    80    79    1
    78    81    79    1
    79    82    79    1
    80    83    82    1
    81    84    82    1
    82    85    82    1
    83    15    30   ar
    84    17    19   ar
    85    24    27   ar
    86    25    29    1
    87    29    30   ar
    88    37    45    1
    89    40    62    1
    90    43    51   ar
    91    48    68    1
    92    86    90    1
    93    87    90    1
    94    88    90    1
    95    89    90    1
    96    91    92    3
    97    93    91    1
    98    94    93    1
    99    95    93    1
   100    96    93    1
@<TRIPOS>SUBSTRUCTURE
     1 RES1        1 GROUP             0 ****  ****    0  
     2 RES2       86 GROUP             0 ****  ****    0  
     3 RES3       91 GROUP             0 ****  ****    0  
@<TRIPOS>CRYSIN
    7.7130   19.7940   22.7980   90.0000   90.0000   90.0000    19     1
