@<TRIPOS>MOLECULE
KEYYOF
   108   119     2     0     0
SMALL
USER_CHARGES
****
Generated from the CSD

@<TRIPOS>ATOM
     1 Fe1      4.8924   6.1680  13.2329   Fe        1 RES1   1.0000
     2 O1       6.3254   6.0370  12.0306   O.3       1 RES1   0.0000
     3 O2       4.8079   8.0467  13.2070   O.3       1 RES1   0.0000
     4 N1       3.6056   6.1225  11.7960   N.2       1 RES1   0.0000
     5 N2       3.2912   6.1167  14.4160   N.3       1 RES1   0.0000
     6 N3       4.9027   4.1818  13.4785   N.3       1 RES1   0.0000
     7 N4       6.1212   6.1589  14.7175   N.2       1 RES1   0.0000
     8 C1       6.3099   6.3515  10.7550   C.ar      1 RES1   0.0000
     9 C2       7.5798   6.5568  10.1364   C.ar      1 RES1   0.0000
    10 H1       8.3669   6.4570  10.6582   H         1 RES1   0.0000
    11 C3       7.6950   6.8901   8.8308   C.ar      1 RES1   0.0000
    12 H2       8.5564   7.0418   8.4608   H         1 RES1   0.0000
    13 C4       6.5447   7.0166   8.0015   C.ar      1 RES1   0.0000
    14 C5       6.6869   7.3402   6.6280   C.ar      1 RES1   0.0000
    15 H3       7.5557   7.4795   6.2697   H         1 RES1   0.0000
    16 C6       5.5954   7.4556   5.8103   C.ar      1 RES1   0.0000
    17 H4       5.7003   7.6813   4.8941   H         1 RES1   0.0000
    18 C7       4.3217   7.2352   6.3463   C.ar      1 RES1   0.0000
    19 H5       3.5601   7.3051   5.7834   H         1 RES1   0.0000
    20 C8       4.1532   6.9200   7.6736   C.ar      1 RES1   0.0000
    21 H6       3.2761   6.7836   8.0097   H         1 RES1   0.0000
    22 C9       5.2627   6.7943   8.5550   C.ar      1 RES1   0.0000
    23 C10      5.1401   6.4775   9.9675   C.ar      1 RES1   0.0000
    24 C11      3.8548   6.2875  10.5489   C.2       1 RES1   0.0000
    25 H7       3.1118   6.2825   9.9568   H         1 RES1   0.0000
    26 C12      2.2141   5.9039  12.2391   C.3       1 RES1   0.0000
    27 H8       2.0083   4.9351  12.2634   H         1 RES1   0.0000
    28 H9       1.5824   6.3441  11.6181   H         1 RES1   0.0000
    29 C13      2.0928   6.4989  13.6186   C.3       1 RES1   0.0000
    30 H10      2.0305   7.4847  13.5555   H         1 RES1   0.0000
    31 H11      1.2728   6.1628  14.0595   H         1 RES1   0.0000
    32 C14      3.2228   4.8172  15.1461   C.3       1 RES1   0.0000
    33 H12      2.2896   4.6375  15.4255   H         1 RES1   0.0000
    34 H13      3.7877   4.8581  15.9584   H         1 RES1   0.0000
    35 C15      3.7066   3.7148  14.2419   C.3       1 RES1   0.0000
    36 H14      3.9441   2.9190  14.7819   H         1 RES1   0.0000
    37 H15      2.9867   3.4576  13.6117   H         1 RES1   0.0000
    38 C16      6.2109   3.8323  14.0844   C.3       1 RES1   0.0000
    39 H16      6.9228   3.8732  13.3966   H         1 RES1   0.0000
    40 H17      6.1795   2.9104  14.4448   H         1 RES1   0.0000
    41 C17      6.5132   4.8128  15.1982   C.3       1 RES1   0.0000
    42 H18      6.0001   4.5760  16.0114   H         1 RES1   0.0000
    43 H19      7.4786   4.7948  15.4191   H         1 RES1   0.0000
    44 C18      6.6105   7.1919  15.3316   C.2       1 RES1   0.0000
    45 H20      7.2234   7.0247  16.0371   H         1 RES1   0.0000
    46 C19      6.3107   8.5597  15.0438   C.ar      1 RES1   0.0000
    47 C20      6.8767   9.6121  15.8796   C.ar      1 RES1   0.0000
    48 C21      7.7539   9.3650  16.9655   C.ar      1 RES1   0.0000
    49 H21      8.0077   8.4713  17.1655   H         1 RES1   0.0000
    50 C22      8.2450  10.3995  17.7378   C.ar      1 RES1   0.0000
    51 H22      8.8334  10.2070  18.4577   H         1 RES1   0.0000
    52 C23      7.8896  11.7227  17.4760   C.ar      1 RES1   0.0000
    53 H23      8.2269  12.4266  18.0179   H         1 RES1   0.0000
    54 C24      7.0489  11.9960  16.4300   C.ar      1 RES1   0.0000
    55 H24      6.8076  12.8968  16.2474   H         1 RES1   0.0000
    56 C25      6.5355  10.9590  15.6199   C.ar      1 RES1   0.0000
    57 C26      5.6796  11.2588  14.5239   C.ar      1 RES1   0.0000
    58 H25      5.4679  12.1649  14.3340   H         1 RES1   0.0000
    59 C27      5.1591  10.2810  13.7448   C.ar      1 RES1   0.0000
    60 H26      4.5974  10.5199  13.0178   H         1 RES1   0.0000
    61 C28      5.4329   8.9009  13.9880   C.ar      1 RES1   0.0000
    62 H27      3.4130   6.7220  15.0291   H         1 RES1   0.0000
    63 H28      4.8839   3.8201  12.7241   H         1 RES1   0.0000
    64 B1       0.5310   0.9590  12.6139   B         2 RES2  -1.0000
    65 C29      2.0414   1.2601  12.0476   C.ar      2 RES2   0.0000
    66 C30      2.3032   2.2498  11.0862   C.ar      2 RES2   0.0000
    67 H29      1.5675   2.7257  10.7192   H         2 RES2   0.0000
    68 C31      3.5799   2.5679  10.6446   C.ar      2 RES2   0.0000
    69 H30      3.7037   3.2473   9.9905   H         2 RES2   0.0000
    70 C32      4.6737   1.8935  11.1587   C.ar      2 RES2   0.0000
    71 H31      5.5505   2.0913  10.8508   H         2 RES2   0.0000
    72 C33      4.4697   0.9217  12.1324   C.ar      2 RES2   0.0000
    73 H32      5.2135   0.4617  12.5041   H         2 RES2   0.0000
    74 C34      3.1893   0.6218  12.5631   C.ar      2 RES2   0.0000
    75 H33      3.0781  -0.0410  13.2345   H         2 RES2   0.0000
    76 C35      0.3338   1.9602  13.9019   C.ar      2 RES2   0.0000
    77 C36     -0.2379   3.2430  13.8428   C.ar      2 RES2   0.0000
    78 H34     -0.5325   3.5722  13.0017   H         2 RES2   0.0000
    79 C37     -0.3901   4.0506  14.9657   C.ar      2 RES2   0.0000
    80 H35     -0.8176   4.8957  14.8830   H         2 RES2   0.0000
    81 C38      0.0749   3.6353  16.2023   C.ar      2 RES2   0.0000
    82 H36     -0.0399   4.1792  16.9729   H         2 RES2   0.0000
    83 C39      0.7119   2.4061  16.2880   C.ar      2 RES2   0.0000
    84 H37      1.0736   2.1170  17.1174   H         2 RES2   0.0000
    85 C40      0.8231   1.5989  15.1644   C.ar      2 RES2   0.0000
    86 H38      1.2544   0.7575  15.2554   H         2 RES2   0.0000
    87 C41      0.3212  -0.6253  13.0372   C.ar      2 RES2   0.0000
    88 C42     -0.5982  -1.0217  14.0255   C.ar      2 RES2   0.0000
    89 H39     -1.0291  -0.3523  14.5443   H         2 RES2   0.0000
    90 C43     -0.9020  -2.3589  14.2733   C.ar      2 RES2   0.0000
    91 H40     -1.5373  -2.5804  14.9440   H         2 RES2   0.0000
    92 C44     -0.2893  -3.3672  13.5539   C.ar      2 RES2   0.0000
    93 H41     -0.4957  -4.2784  13.7241   H         2 RES2   0.0000
    94 C45      0.6355  -3.0195  12.5759   C.ar      2 RES2   0.0000
    95 H42      1.0738  -3.6970  12.0756   H         2 RES2   0.0000
    96 C46      0.9207  -1.6808  12.3285   C.ar      2 RES2   0.0000
    97 H43      1.5502  -1.4706  11.6486   H         2 RES2   0.0000
    98 C47     -0.5684   1.1507  11.3971   C.ar      2 RES2   0.0000
    99 C48     -1.8391   1.7339  11.5369   C.ar      2 RES2   0.0000
   100 H44     -2.0838   2.1101  12.3741   H         2 RES2   0.0000
   101 C49     -2.7480   1.7779  10.4858   C.ar      2 RES2   0.0000
   102 H45     -3.5857   2.2093  10.6085   H         2 RES2   0.0000
   103 C50     -2.4508   1.2044   9.2699   C.ar      2 RES2   0.0000
   104 H46     -3.0735   1.2432   8.5539   H         2 RES2   0.0000
   105 C51     -1.2264   0.5681   9.1062   C.ar      2 RES2   0.0000
   106 H47     -1.0213   0.1317   8.2874   H         2 RES2   0.0000
   107 C52     -0.3051   0.5723  10.1451   C.ar      2 RES2   0.0000
   108 H48      0.5415   0.1659  10.0017   H         2 RES2   0.0000
@<TRIPOS>BOND
     1     1     2    1
     2     2     8    1
     3     3     1    1
     4     4     1    1
     5     5     1    1
     6     6     1    1
     7     7     1    1
     8     8     9   ar
     9     9    10    1
    10    11     9   ar
    11    12    11    1
    12    13    11   ar
    13    14    13   ar
    14    15    14    1
    15    16    14   ar
    16    17    16    1
    17    18    16   ar
    18    19    18    1
    19    20    18   ar
    20    21    20    1
    21    22    13   ar
    22    23     8   ar
    23    24     4    2
    24    25    24    1
    25    26     4    1
    26    27    26    1
    27    28    26    1
    28    29     5    1
    29    30    29    1
    30    31    29    1
    31    32     5    1
    32    33    32    1
    33    34    32    1
    34    35     6    1
    35    36    35    1
    36    37    35    1
    37    38     6    1
    38    39    38    1
    39    40    38    1
    40    41     7    1
    41    42    41    1
    42    43    41    1
    43    44     7    2
    44    45    44    1
    45    46    44    1
    46    47    46   ar
    47    48    47   ar
    48    49    48    1
    49    50    48   ar
    50    51    50    1
    51    52    50   ar
    52    53    52    1
    53    54    52   ar
    54    55    54    1
    55    56    47   ar
    56    57    56   ar
    57    58    57    1
    58    59    57   ar
    59    60    59    1
    60    61     3    1
    61    62     5    1
    62    63     6    1
    63    20    22   ar
    64    22    23   ar
    65    23    24    1
    66    26    29    1
    67    32    35    1
    68    38    41    1
    69    46    61   ar
    70    54    56   ar
    71    59    61   ar
    72    64    65    1
    73    65    66   ar
    74    66    67    1
    75    68    66   ar
    76    69    68    1
    77    70    68   ar
    78    71    70    1
    79    72    70   ar
    80    73    72    1
    81    74    65   ar
    82    75    74    1
    83    76    64    1
    84    77    76   ar
    85    78    77    1
    86    79    77   ar
    87    80    79    1
    88    81    79   ar
    89    82    81    1
    90    83    81   ar
    91    84    83    1
    92    85    76   ar
    93    86    85    1
    94    87    64    1
    95    88    87   ar
    96    89    88    1
    97    90    88   ar
    98    91    90    1
    99    92    90   ar
   100    93    92    1
   101    94    92   ar
   102    95    94    1
   103    96    87   ar
   104    97    96    1
   105    98    64    1
   106    99    98   ar
   107   100    99    1
   108   101    99   ar
   109   102   101    1
   110   103   101   ar
   111   104   103    1
   112   105   103   ar
   113   106   105    1
   114   107    98   ar
   115   108   107    1
   116    72    74   ar
   117    83    85   ar
   118    94    96   ar
   119   105   107   ar
@<TRIPOS>SUBSTRUCTURE
     1 RES1        1 GROUP             0 ****  ****    0  
     2 RES2       64 GROUP             0 ****  ****    0  
@<TRIPOS>CRYSIN
   14.9600   17.1000   17.1120   90.0000  110.2770   90.0000   231     1
