@<TRIPOS>MOLECULE
KEYYUL
    76    81     4     0     0
SMALL
USER_CHARGES
****
Generated from the CSD

@<TRIPOS>ATOM
     1 Fe1      5.2448   4.1277   3.6941   Fe        1 RES1   1.0000
     2 O1       6.0707   2.6817   2.7897   O.3       1 RES1   0.0000
     3 O2       4.3971   4.8415   2.1689   O.3       1 RES1   0.0000
     4 N1       3.6526   3.1108   4.0374   N.2       1 RES1   0.0000
     5 N2       4.3391   5.5231   4.7982   N.3       1 RES1   0.0000
     6 H1       4.5265   6.3489   4.4164   H         1 RES1   0.0000
     7 N3       6.1530   3.6505   5.4054   N.3       1 RES1   0.0000
     8 H2       6.1477   2.7234   5.4717   H         1 RES1   0.0000
     9 N4       6.8311   5.1427   3.3489   N.2       1 RES1   0.0000
    10 C1       5.5099   1.5515   2.3995   C.ar      1 RES1   0.0000
    11 C2       6.3254   0.7022   1.5947   C.ar      1 RES1   0.0000
    12 H3       7.2102   0.9747   1.3806   H         1 RES1   0.0000
    13 C3       5.8647  -0.4835   1.1297   C.ar      1 RES1   0.0000
    14 H4       6.4339  -1.0242   0.5937   H         1 RES1   0.0000
    15 C4       4.5545  -0.9397   1.4231   C.ar      1 RES1   0.0000
    16 C5       4.0808  -2.1704   0.9091   C.ar      1 RES1   0.0000
    17 H5       4.6563  -2.7002   0.3701   H         1 RES1   0.0000
    18 C6       2.8220  -2.6106   1.1686   C.ar      1 RES1   0.0000
    19 H6       2.5154  -3.4370   0.8133   H         1 RES1   0.0000
    20 C7       1.9901  -1.8274   1.9664   C.ar      1 RES1   0.0000
    21 H7       1.1085  -2.1287   2.1533   H         1 RES1   0.0000
    22 C8       2.4143  -0.6256   2.4916   C.ar      1 RES1   0.0000
    23 H8       1.8236  -0.1189   3.0358   H         1 RES1   0.0000
    24 C9       3.7205  -0.1350   2.2318   C.ar      1 RES1   0.0000
    25 C10      4.2107   1.1389   2.7310   C.ar      1 RES1   0.0000
    26 C11      3.3680   1.9414   3.5624   C.2       1 RES1   0.0000
    27 H9       2.5179   1.5818   3.7881   H         1 RES1   0.0000
    28 C12      2.6234   3.8031   4.8371   C.3       1 RES1   0.0000
    29 H10      2.6944   3.5436   5.7909   H         1 RES1   0.0000
    30 H11      1.7181   3.5668   4.5120   H         1 RES1   0.0000
    31 C13      2.8747   5.2907   4.6716   C.3       1 RES1   0.0000
    32 H12      2.5563   5.5935   3.7840   H         1 RES1   0.0000
    33 H13      2.3872   5.7974   5.3680   H         1 RES1   0.0000
    34 C14      4.8411   5.5518   6.1917   C.3       1 RES1   0.0000
    35 H14      4.1066   5.7959   6.8076   H         1 RES1   0.0000
    36 H15      5.5569   6.2299   6.2769   H         1 RES1   0.0000
    37 C15      5.3857   4.1785   6.5589   C.3       1 RES1   0.0000
    38 H16      5.9744   4.2496   7.3525   H         1 RES1   0.0000
    39 H17      4.6399   3.5668   6.7771   H         1 RES1   0.0000
    40 C16      7.5764   4.0843   5.3625   C.3       1 RES1   0.0000
    41 H18      8.1342   3.3614   4.9796   H         1 RES1   0.0000
    42 H19      7.8971   4.2697   6.2809   H         1 RES1   0.0000
    43 C17      7.7002   5.3403   4.5083   C.3       1 RES1   0.0000
    44 H20      7.4144   6.1373   5.0223   H         1 RES1   0.0000
    45 H21      8.6378   5.4699   4.2192   H         1 RES1   0.0000
    46 C18      7.1813   5.6196   2.2049   C.2       1 RES1   0.0000
    47 H22      8.0525   5.9920   2.1350   H         1 RES1   0.0000
    48 C19      6.3661   5.6326   1.0342   C.ar      1 RES1   0.0000
    49 C20      6.9354   6.0433  -0.2365   C.ar      1 RES1   0.0000
    50 C21      8.3230   6.1604  -0.4705   C.ar      1 RES1   0.0000
    51 H23      8.9288   5.9998   0.2440   H         1 RES1   0.0000
    52 C22      8.8178   6.5003  -1.7007   C.ar      1 RES1   0.0000
    53 H24      9.7580   6.5543  -1.8300   H         1 RES1   0.0000
    54 C23      7.9615   6.7675  -2.7653   C.ar      1 RES1   0.0000
    55 H25      8.3134   7.0162  -3.6112   H         1 RES1   0.0000
    56 C24      6.6009   6.6671  -2.5837   C.ar      1 RES1   0.0000
    57 H26      6.0135   6.8509  -3.3082   H         1 RES1   0.0000
    58 C25      6.0713   6.2964  -1.3288   C.ar      1 RES1   0.0000
    59 C26      4.6704   6.1388  -1.1568   C.ar      1 RES1   0.0000
    60 H27      4.0846   6.3566  -1.8727   H         1 RES1   0.0000
    61 C27      4.1544   5.6800   0.0134   C.ar      1 RES1   0.0000
    62 H28      3.2143   5.5750   0.0976   H         1 RES1   0.0000
    63 C28      4.9957   5.3541   1.1167   C.ar      1 RES1   0.0000
    64 Cl1      5.7179   8.3160   4.1998   Cl        2 RES2  -1.0000
    65 O3       3.0962   8.5084   5.9463   O.3       3 RES3   0.0000
    66 H29      4.0390   8.4621   5.3822   H         3 RES3   0.0000
    67 H30      3.1012   9.3812   6.4700   H         3 RES3   0.0000
    68 O4       8.8286   2.8392   2.4963   O.3       4 RES4   0.0000
    69 H31      8.1225   3.2949   2.5173   H         4 RES4   0.0000
    70 C29      9.4883   3.0400   1.2403   C.3       4 RES4   0.0000
    71 H32      8.8796   3.2625   0.4921   H         4 RES4   0.0000
    72 H33     10.1165   2.3156   0.9902   H         4 RES4   0.0000
    73 C30     10.1424   4.2280   1.8747   C.3       4 RES4   0.0000
    74 H34      9.5831   4.5539   2.6108   H         4 RES4   0.0000
    75 H35     10.2517   4.9370   1.2078   H         4 RES4   0.0000
    76 H36     11.0215   3.9700   2.2245   H         4 RES4   0.0000
@<TRIPOS>BOND
     1     1     2    1
     2     2    10    1
     3     3     1    1
     4     4     1    1
     5     5     1    1
     6     6     5    1
     7     7     1    1
     8     8     7    1
     9     9     1    1
    10    10    11   ar
    11    11    12    1
    12    13    11   ar
    13    14    13    1
    14    15    13   ar
    15    16    15   ar
    16    17    16    1
    17    18    16   ar
    18    19    18    1
    19    20    18   ar
    20    21    20    1
    21    22    20   ar
    22    23    22    1
    23    24    15   ar
    24    25    10   ar
    25    26     4    2
    26    27    26    1
    27    28     4    1
    28    29    28    1
    29    30    28    1
    30    31     5    1
    31    32    31    1
    32    33    31    1
    33    34     5    1
    34    35    34    1
    35    36    34    1
    36    37     7    1
    37    38    37    1
    38    39    37    1
    39    40     7    1
    40    41    40    1
    41    42    40    1
    42    43     9    1
    43    44    43    1
    44    45    43    1
    45    46     9    2
    46    47    46    1
    47    48    46    1
    48    49    48   ar
    49    50    49   ar
    50    51    50    1
    51    52    50   ar
    52    53    52    1
    53    54    52   ar
    54    55    54    1
    55    56    54   ar
    56    57    56    1
    57    58    49   ar
    58    59    58   ar
    59    60    59    1
    60    61    59   ar
    61    62    61    1
    62    63     3    1
    63    22    24   ar
    64    24    25   ar
    65    25    26    1
    66    28    31    1
    67    34    37    1
    68    40    43    1
    69    48    63   ar
    70    56    58   ar
    71    61    63   ar
    72    65    66    1
    73    67    65    1
    74    68    69    1
    75    70    68    1
    76    71    70    1
    77    72    70    1
    78    73    70    1
    79    74    73    1
    80    75    73    1
    81    76    73    1
@<TRIPOS>SUBSTRUCTURE
     1 RES1        1 GROUP             0 ****  ****    0  
     2 RES2       64 GROUP             0 ****  ****    0  
     3 RES3       65 GROUP             0 ****  ****    0  
     4 RES4       68 GROUP             0 ****  ****    0  
@<TRIPOS>CRYSIN
    8.6116   15.4474   20.4760   90.0000   96.7690   90.0000   231     1
