@<TRIPOS>MOLECULE
KEZTUE10
    59    65     1     0     0
SMALL
NO_CHARGES
****
Generated from the CSD

@<TRIPOS>ATOM
     1 Fe1     16.7075   1.9021   5.6542   Fe        1 RES1   0.0000
     2 O1      18.5589   1.2754   4.5386   O.co2     1 RES1   0.0000
     3 O2      16.7910   0.0290   4.6352   O.co2     1 RES1   0.0000
     4 N1      17.1966   3.7168   6.6206   N.ar      1 RES1   0.0000
     5 N2      16.1642   4.6240   6.7566   N.ar      1 RES1   0.0000
     6 N3      14.7972   1.8617   6.5686   N.ar      1 RES1   0.0000
     7 N4      14.1463   3.0562   6.6965   N.ar      1 RES1   0.0000
     8 N5      15.7498   3.1161   4.0927   N.ar      1 RES1   0.0000
     9 N6      14.9754   4.1401   4.5644   N.ar      1 RES1   0.0000
    10 N7      17.5945   0.7927   7.4307   N.1       1 RES1   0.0000
    11 B1      14.7822   4.3420   6.1131   B         1 RES1   0.0000
    12 C1      17.9291   0.1941   4.2644   C.2       1 RES1   0.0000
    13 C2      18.6487  -0.8524   3.4318   C.ar      1 RES1   0.0000
    14 C3      19.9387  -0.7415   3.0759   C.ar      1 RES1   0.0000
    15 C4      20.6300  -1.7541   2.3106   C.ar      1 RES1   0.0000
    16 C5      19.8683  -2.7852   2.0410   C.ar      1 RES1   0.0000
    17 C6      18.4517  -3.0162   2.3315   C.ar      1 RES1   0.0000
    18 C7      17.8812  -1.9512   3.0808   C.ar      1 RES1   0.0000
    19 C8      20.6404   4.1747   6.4670   C.3       1 RES1   0.0000
    20 C9      20.1042   3.4976   8.8163   C.3       1 RES1   0.0000
    21 C10     19.5733   3.5097   7.3492   C.3       1 RES1   0.0000
    22 C11     18.2343   4.2363   7.3177   C.ar      1 RES1   0.0000
    23 C12     17.8763   5.4544   7.8918   C.ar      1 RES1   0.0000
    24 C13     16.5595   5.6569   7.5215   C.ar      1 RES1   0.0000
    25 C14     15.6313   6.8191   7.8766   C.3       1 RES1   0.0000
    26 C15     16.3982   8.1116   8.1462   C.3       1 RES1   0.0000
    27 C16     14.8699   6.4421   9.2614   C.3       1 RES1   0.0000
    28 C17     13.5762  -1.2883   5.9892   C.3       1 RES1   0.0000
    29 C18     14.1663  -1.2305   8.4267   C.3       1 RES1   0.0000
    30 C19     14.3766  -0.5406   7.0538   C.3       1 RES1   0.0000
    31 C20     13.9868   0.9433   7.0832   C.ar      1 RES1   0.0000
    32 C21     12.8153   1.5231   7.5891   C.ar      1 RES1   0.0000
    33 C22     12.9577   2.8678   7.3218   C.ar      1 RES1   0.0000
    34 C23     12.0006   3.9795   7.5951   C.3       1 RES1   0.0000
    35 C24     11.0177   4.1425   6.4274   C.3       1 RES1   0.0000
    36 C25     11.3870   3.8806   8.9402   C.3       1 RES1   0.0000
    37 C26     15.4703   0.8568   1.7377   C.3       1 RES1   0.0000
    38 C27     16.6326   2.8190   0.4458   C.3       1 RES1   0.0000
    39 C28     16.3320   2.1505   1.8726   C.3       1 RES1   0.0000
    40 C29     15.6412   3.1398   2.7478   C.ar      1 RES1   0.0000
    41 C30     14.7968   4.1954   2.3493   C.ar      1 RES1   0.0000
    42 C31     14.3778   4.8227   3.5418   C.ar      1 RES1   0.0000
    43 C32     13.4971   6.0100   3.7133   C.3       1 RES1   0.0000
    44 C33     12.1551   5.6807   2.9084   C.3       1 RES1   0.0000
    45 C34     13.8434   7.1330   3.1066   C.2       1 RES1   0.0000
    46 C35     17.9947   0.3617   8.3930   C.1       1 RES1   0.0000
    47 C36     18.5673  -0.1892   9.6787   C.3       1 RES1   0.0000
    48 H1      14.1571   5.1532   6.2816   H         1 RES1   0.0000
    49 H2      20.4635   0.0512   3.3669   H         1 RES1   0.0000
    50 H3      21.5432  -1.7367   1.9789   H         1 RES1   0.0000
    51 H4      20.2794  -3.5955   1.5765   H         1 RES1   0.0000
    52 H5      17.8927  -3.8392   2.0426   H         1 RES1   0.0000
    53 H6      16.8935  -1.9835   3.3676   H         1 RES1   0.0000
    54 H7      19.4298   2.5361   7.0454   H         1 RES1   0.0000
    55 H8      14.9419   6.9392   7.1226   H         1 RES1   0.0000
    56 H9      15.3786  -0.5992   6.8128   H         1 RES1   0.0000
    57 H10     12.5655   4.8358   7.6583   H         1 RES1   0.0000
    58 H11     17.2290   1.9106   2.2964   H         1 RES1   0.0000
    59 H12     13.4228   6.2837   4.6894   H         1 RES1   0.0000
@<TRIPOS>BOND
     1     1     2    1
     2     2    12   un
     3     3     1    1
     4     4     1    1
     5     5     4   ar
     6     6     1    1
     7     7     6   ar
     8     8     1    1
     9     9     8   ar
    10    10     1    1
    11    11     5    1
    12    12     3   un
    13    13    12    1
    14    14    13   ar
    15    15    14   ar
    16    16    15   ar
    17    17    16   ar
    18    18    13   ar
    19    19    21    1
    20    20    21    1
    21    21    22    1
    22    22     4   ar
    23    23    22   ar
    24    24     5   ar
    25    25    24    1
    26    26    25    1
    27    27    25    1
    28    28    30    1
    29    29    30    1
    30    30    31    1
    31    31     6   ar
    32    32    31   ar
    33    33     7   ar
    34    34    33    1
    35    35    34    1
    36    36    34    1
    37    37    39    1
    38    38    39    1
    39    39    40    1
    40    40     8   ar
    41    41    40   ar
    42    42     9   ar
    43    43    42    1
    44    44    43    1
    45    45    43    1
    46    46    10    3
    47    47    46    1
    48    48    11    1
    49    49    14    1
    50    50    15    1
    51    51    16    1
    52    52    17    1
    53    53    18    1
    54    54    21    1
    55    55    25    1
    56    56    30    1
    57    57    34    1
    58    58    39    1
    59    59    43    1
    60     7    11    1
    61     9    11    1
    62    17    18   ar
    63    23    24   ar
    64    32    33   ar
    65    41    42   ar
@<TRIPOS>SUBSTRUCTURE
     1 RES1        1 GROUP             0 ****  ****    0  
@<TRIPOS>CRYSIN
   26.0070   15.3200    9.9360   90.0000   93.9300   90.0000   231     1
