@<TRIPOS>MOLECULE
KEZZUL
   148   148     2     0     0
SMALL
USER_CHARGES
****
Generated from the CSD

@<TRIPOS>ATOM
     1 Fe1      0.0000   5.9921   0.0000   Fe        1 RES1   2.0000
     2 P1      -0.7893   8.1449   0.1952   P.3       1 RES1   0.0000
     3 P2       1.7591   6.7695   1.2317   P.3       1 RES1   0.0000
     4 N1      -0.9035   5.5052   1.6212   N.1       1 RES1   0.0000
     5 O1      -4.3498   7.4094   3.0311   O.3       1 RES1   0.0000
     6 O2      -3.0894  11.1868  -2.3433   O.3       1 RES1   0.0000
     7 O3       5.0430   4.6263   3.5264   O.3       1 RES1   0.0000
     8 O4       5.9361   8.3746   0.2131   O.3       1 RES1   0.0000
     9 C1       1.1157   8.2152   2.1747   C.3       1 RES1   0.0000
    10 H1       0.4732   7.9168   2.8661   H         1 RES1   0.0000
    11 H2       1.8593   8.6945   2.6203   H         1 RES1   0.0000
    12 C2       0.4241   9.1296   1.1696   C.3       1 RES1   0.0000
    13 H3       1.0954   9.5310   0.5638   H         1 RES1   0.0000
    14 H4      -0.0416   9.8618   1.6463   H         1 RES1   0.0000
    15 C3      -2.3726   8.4429   1.0794   C.3       1 RES1   0.0000
    16 H5      -2.7627   9.2830   0.7319   H         1 RES1   0.0000
    17 H6      -2.9956   7.7106   0.8439   H         1 RES1   0.0000
    18 C4      -2.3175   8.5435   2.6064   C.3       1 RES1   0.0000
    19 H7      -1.8621   7.7430   2.9709   H         1 RES1   0.0000
    20 H8      -1.7865   9.3393   2.8625   H         1 RES1   0.0000
    21 C5      -3.6960   8.6502   3.2115   C.3       1 RES1   0.0000
    22 H9      -3.6294   8.8623   4.1763   H         1 RES1   0.0000
    23 H10     -4.2084   9.3716   2.7667   H         1 RES1   0.0000
    24 C6      -5.7327   7.4877   3.3367   C.3       1 RES1   0.0000
    25 H11     -5.8464   7.8041   4.2576   H         1 RES1   0.0000
    26 H12     -6.1384   6.5997   3.2456   H         1 RES1   0.0000
    27 H13     -6.1685   8.1109   2.7197   H         1 RES1   0.0000
    28 C7      -1.0389   9.1547  -1.3172   C.3       1 RES1   0.0000
    29 H14     -0.3338   8.9162  -1.9698   H         1 RES1   0.0000
    30 H15     -1.9090   8.9031  -1.7168   H         1 RES1   0.0000
    31 C8      -1.0216  10.6743  -1.1249   C.3       1 RES1   0.0000
    32 H16     -1.4906  10.9044  -0.2837   H         1 RES1   0.0000
    33 H17     -0.0834  10.9835  -1.0463   H         1 RES1   0.0000
    34 C9      -1.6913  11.3874  -2.2882   C.3       1 RES1   0.0000
    35 H18     -1.5093  12.3581  -2.2155   H         1 RES1   0.0000
    36 H19     -1.2889  11.0674  -3.1336   H         1 RES1   0.0000
    37 C10     -3.7987  11.9782  -1.3960   C.3       1 RES1   0.0000
    38 H20     -3.5816  11.6762  -0.4897   H         1 RES1   0.0000
    39 H21     -4.7623  11.8847  -1.5487   H         1 RES1   0.0000
    40 H22     -3.5419  12.9178  -1.4981   H         1 RES1   0.0000
    41 C11      2.5673   5.7045   2.4808   C.3       1 RES1   0.0000
    42 H23      1.8615   5.2395   2.9980   H         1 RES1   0.0000
    43 H24      3.0934   5.0118   2.0059   H         1 RES1   0.0000
    44 C12      3.4911   6.4187   3.4639   C.3       1 RES1   0.0000
    45 H25      4.1417   6.9676   2.9583   H         1 RES1   0.0000
    46 H26      2.9541   7.0287   4.0299   H         1 RES1   0.0000
    47 C13      4.2392   5.4564   4.3465   C.3       1 RES1   0.0000
    48 H27      4.8084   5.9561   4.9841   H         1 RES1   0.0000
    49 H28      3.5999   4.9051   4.8630   H         1 RES1   0.0000
    50 C14      5.9022   3.7942   4.2769   C.3       1 RES1   0.0000
    51 H29      6.5684   4.3455   4.7383   H         1 RES1   0.0000
    52 H30      6.3553   3.1662   3.6757   H         1 RES1   0.0000
    53 H31      5.3779   3.2945   4.9371   H         1 RES1   0.0000
    54 C15      3.1578   7.5872   0.3634   C.3       1 RES1   0.0000
    55 H32      2.7775   8.1205  -0.3795   H         1 RES1   0.0000
    56 H33      3.5696   8.2260   0.9975   H         1 RES1   0.0000
    57 C16      4.2738   6.7315  -0.2141   C.3       1 RES1   0.0000
    58 H34      4.6601   6.1647   0.5006   H         1 RES1   0.0000
    59 H35      3.9062   6.1359  -0.9144   H         1 RES1   0.0000
    60 C17      5.3591   7.6040  -0.8103   C.3       1 RES1   0.0000
    61 H36      6.0501   7.0395  -1.2379   H         1 RES1   0.0000
    62 H37      4.9722   8.1984  -1.5017   H         1 RES1   0.0000
    63 C18      6.7920   9.3776  -0.2928   C.3       1 RES1   0.0000
    64 H38      7.5379   8.9594  -0.7716   H         1 RES1   0.0000
    65 H39      7.1399   9.9145   0.4482   H         1 RES1   0.0000
    66 H40      6.2915   9.9541  -0.9072   H         1 RES1   0.0000
    67 C19     -1.5024   5.2059   2.5358   C.1       1 RES1   0.0000
    68 C20     -2.3166   4.8428   3.6936   C.3       1 RES1   0.0000
    69 H41     -3.2070   5.2431   3.6052   H         1 RES1   0.0000
    70 H42     -1.8888   5.1736   4.5106   H         1 RES1   0.0000
    71 H43     -2.4009   3.8673   3.7408   H         1 RES1   0.0000
    72 P1B      0.7893   3.8393  -0.1952   P.3       1 RES1   0.0000
    73 P2B     -1.7591   5.2147  -1.2317   P.3       1 RES1   0.0000
    74 N1B      0.9035   6.4790  -1.6212   N.1       1 RES1   0.0000
    75 O1B      4.3498   4.5748  -3.0311   O.3       1 RES1   0.0000
    76 O2B      3.0894   0.7974   2.3433   O.3       1 RES1   0.0000
    77 O3B     -5.0430   7.3579  -3.5264   O.3       1 RES1   0.0000
    78 O4B     -5.9361   3.6096  -0.2131   O.3       1 RES1   0.0000
    79 C1B     -1.1157   3.7690  -2.1747   C.3       1 RES1   0.0000
    80 H1B     -0.4732   4.0674  -2.8661   H         1 RES1   0.0000
    81 H2B     -1.8593   3.2897  -2.6203   H         1 RES1   0.0000
    82 C2B     -0.4241   2.8546  -1.1696   C.3       1 RES1   0.0000
    83 H3B     -1.0954   2.4532  -0.5638   H         1 RES1   0.0000
    84 H4B      0.0416   2.1224  -1.6463   H         1 RES1   0.0000
    85 C3B      2.3726   3.5413  -1.0794   C.3       1 RES1   0.0000
    86 H5B      2.7627   2.7012  -0.7319   H         1 RES1   0.0000
    87 H6B      2.9956   4.2736  -0.8439   H         1 RES1   0.0000
    88 C4B      2.3175   3.4407  -2.6064   C.3       1 RES1   0.0000
    89 H7B      1.8621   4.2412  -2.9709   H         1 RES1   0.0000
    90 H8B      1.7865   2.6449  -2.8625   H         1 RES1   0.0000
    91 C5B      3.6960   3.3340  -3.2115   C.3       1 RES1   0.0000
    92 H9B      3.6294   3.1219  -4.1763   H         1 RES1   0.0000
    93 H10B     4.2084   2.6126  -2.7667   H         1 RES1   0.0000
    94 C6B      5.7327   4.4965  -3.3367   C.3       1 RES1   0.0000
    95 H11B     5.8464   4.1801  -4.2576   H         1 RES1   0.0000
    96 H12B     6.1384   5.3845  -3.2456   H         1 RES1   0.0000
    97 H13B     6.1685   3.8733  -2.7197   H         1 RES1   0.0000
    98 C7B      1.0389   2.8295   1.3172   C.3       1 RES1   0.0000
    99 H14B     0.3338   3.0680   1.9698   H         1 RES1   0.0000
   100 H15B     1.9090   3.0811   1.7168   H         1 RES1   0.0000
   101 C8B      1.0216   1.3099   1.1249   C.3       1 RES1   0.0000
   102 H16B     1.4906   1.0798   0.2837   H         1 RES1   0.0000
   103 H17B     0.0834   1.0007   1.0463   H         1 RES1   0.0000
   104 C9B      1.6913   0.5968   2.2882   C.3       1 RES1   0.0000
   105 H18B     1.5093  -0.3739   2.2155   H         1 RES1   0.0000
   106 H19B     1.2889   0.9168   3.1336   H         1 RES1   0.0000
   107 C10B     3.7987   0.0060   1.3960   C.3       1 RES1   0.0000
   108 H20B     3.5816   0.3080   0.4897   H         1 RES1   0.0000
   109 H21B     4.7623   0.0995   1.5487   H         1 RES1   0.0000
   110 H22B     3.5419  -0.9336   1.4981   H         1 RES1   0.0000
   111 C11B    -2.5673   6.2797  -2.4808   C.3       1 RES1   0.0000
   112 H23B    -1.8615   6.7447  -2.9980   H         1 RES1   0.0000
   113 H24B    -3.0934   6.9724  -2.0059   H         1 RES1   0.0000
   114 C12B    -3.4911   5.5655  -3.4639   C.3       1 RES1   0.0000
   115 H25B    -4.1417   5.0166  -2.9583   H         1 RES1   0.0000
   116 H26B    -2.9541   4.9555  -4.0299   H         1 RES1   0.0000
   117 C13B    -4.2392   6.5278  -4.3465   C.3       1 RES1   0.0000
   118 H27B    -4.8084   6.0281  -4.9841   H         1 RES1   0.0000
   119 H28B    -3.5999   7.0791  -4.8630   H         1 RES1   0.0000
   120 C14B    -5.9022   8.1900  -4.2769   C.3       1 RES1   0.0000
   121 H29B    -6.5684   7.6387  -4.7383   H         1 RES1   0.0000
   122 H30B    -6.3553   8.8180  -3.6757   H         1 RES1   0.0000
   123 H31B    -5.3779   8.6897  -4.9371   H         1 RES1   0.0000
   124 C15B    -3.1578   4.3970  -0.3634   C.3       1 RES1   0.0000
   125 H32B    -2.7775   3.8637   0.3795   H         1 RES1   0.0000
   126 H33B    -3.5696   3.7582  -0.9975   H         1 RES1   0.0000
   127 C16B    -4.2738   5.2527   0.2141   C.3       1 RES1   0.0000
   128 H34B    -4.6601   5.8195  -0.5006   H         1 RES1   0.0000
   129 H35B    -3.9062   5.8483   0.9144   H         1 RES1   0.0000
   130 C17B    -5.3591   4.3802   0.8103   C.3       1 RES1   0.0000
   131 H36B    -6.0501   4.9447   1.2379   H         1 RES1   0.0000
   132 H37B    -4.9722   3.7858   1.5017   H         1 RES1   0.0000
   133 C18B    -6.7920   2.6066   0.2928   C.3       1 RES1   0.0000
   134 H38B    -7.5379   3.0248   0.7716   H         1 RES1   0.0000
   135 H39B    -7.1399   2.0697  -0.4482   H         1 RES1   0.0000
   136 H40B    -6.2915   2.0301   0.9072   H         1 RES1   0.0000
   137 C19B     1.5024   6.7783  -2.5358   C.1       1 RES1   0.0000
   138 C20B     2.3166   7.1414  -3.6936   C.3       1 RES1   0.0000
   139 H41B     3.2070   6.7411  -3.6052   H         1 RES1   0.0000
   140 H42B     1.8888   6.8106  -4.5106   H         1 RES1   0.0000
   141 H43B     2.4009   8.1169  -3.7408   H         1 RES1   0.0000
   142 P3       0.2220   6.8261   6.2572   P.3       2 RES2  -1.0000
   143 F1      -0.7910   5.7249   6.8219   F         2 RES2   0.0000
   144 F2      -0.0385   7.7141   7.5444   F         2 RES2   0.0000
   145 F3       1.2175   7.9344   5.6838   F         2 RES2   0.0000
   146 F4       0.4552   5.9359   4.9566   F         2 RES2   0.0000
   147 F5      -0.9987   7.5485   5.5284   F         2 RES2   0.0000
   148 F6       1.4356   6.0938   6.9701   F         2 RES2   0.0000
@<TRIPOS>BOND
     1     1     2    1
     2     2    12    1
     3     3     1    1
     4     4     1    1
     5     5    21    1
     6     6    34    1
     7     7    47    1
     8     8    60    1
     9     9     3    1
    10    10     9    1
    11    11     9    1
    12    12     9    1
    13    13    12    1
    14    14    12    1
    15    15     2    1
    16    16    15    1
    17    17    15    1
    18    18    15    1
    19    19    18    1
    20    20    18    1
    21    21    18    1
    22    22    21    1
    23    23    21    1
    24    24     5    1
    25    25    24    1
    26    26    24    1
    27    27    24    1
    28    28     2    1
    29    29    28    1
    30    30    28    1
    31    31    28    1
    32    32    31    1
    33    33    31    1
    34    34    31    1
    35    35    34    1
    36    36    34    1
    37    37     6    1
    38    38    37    1
    39    39    37    1
    40    40    37    1
    41    41     3    1
    42    42    41    1
    43    43    41    1
    44    44    41    1
    45    45    44    1
    46    46    44    1
    47    47    44    1
    48    48    47    1
    49    49    47    1
    50    50     7    1
    51    51    50    1
    52    52    50    1
    53    53    50    1
    54    54     3    1
    55    55    54    1
    56    56    54    1
    57    57    54    1
    58    58    57    1
    59    59    57    1
    60    60    57    1
    61    61    60    1
    62    62    60    1
    63    63     8    1
    64    64    63    1
    65    65    63    1
    66    66    63    1
    67    67     4    3
    68    68    67    1
    69    69    68    1
    70    70    68    1
    71    71    68    1
    72    72     1    1
    73    73     1    1
    74    74     1    1
    75    75    91    1
    76    76   104    1
    77    77   117    1
    78    78   130    1
    79    79    73    1
    80    80    79    1
    81    81    79    1
    82    82    72    1
    83    83    82    1
    84    84    82    1
    85    85    72    1
    86    86    85    1
    87    87    85    1
    88    88    85    1
    89    89    88    1
    90    90    88    1
    91    91    88    1
    92    92    91    1
    93    93    91    1
    94    94    75    1
    95    95    94    1
    96    96    94    1
    97    97    94    1
    98    98    72    1
    99    99    98    1
   100   100    98    1
   101   101    98    1
   102   102   101    1
   103   103   101    1
   104   104   101    1
   105   105   104    1
   106   106   104    1
   107   107    76    1
   108   108   107    1
   109   109   107    1
   110   110   107    1
   111   111    73    1
   112   112   111    1
   113   113   111    1
   114   114   111    1
   115   115   114    1
   116   116   114    1
   117   117   114    1
   118   118   117    1
   119   119   117    1
   120   120    77    1
   121   121   120    1
   122   122   120    1
   123   123   120    1
   124   124    73    1
   125   125   124    1
   126   126   124    1
   127   127   124    1
   128   128   127    1
   129   129   127    1
   130   130   127    1
   131   131   130    1
   132   132   130    1
   133   133    78    1
   134   134   133    1
   135   135   133    1
   136   136   133    1
   137   137    74    3
   138   138   137    1
   139   139   138    1
   140   140   138    1
   141   141   138    1
   142    79    82    1
   143   142   143    1
   144   144   142    1
   145   145   142    1
   146   146   142    1
   147   147   142    1
   148   148   142    1
@<TRIPOS>SUBSTRUCTURE
     1 RES1        1 GROUP             0 ****  ****    0  
     2 RES2      142 GROUP             0 ****  ****    0  
@<TRIPOS>CRYSIN
   12.8015   11.9842   18.8456   90.0000  106.4810   90.0000    14     1
