@<TRIPOS>MOLECULE
KIBVUO
    77    79     4     0     0
SMALL
USER_CHARGES
****
Generated from the CSD

@<TRIPOS>ATOM
     1 Fe1      3.5018   3.0336   4.6675   Fe        1 RES1   2.0000
     2 N1       2.6932   1.8163   3.2731   N.3       1 RES1   0.0000
     3 H1       3.0787   1.0469   3.2715   H         1 RES1   0.0000
     4 N2       2.9105   4.5018   3.4017   N.3       1 RES1   0.0000
     5 H2       3.5496   5.0902   3.2199   H         1 RES1   0.0000
     6 N3       1.6043   3.1382   5.3627   N.3       1 RES1   0.0000
     7 H3       1.5725   3.2448   6.2675   H         1 RES1   0.0000
     8 N4       4.2174   4.1803   6.1622   N.3       1 RES1   0.0000
     9 H4       3.6216   4.7356   6.4211   H         1 RES1   0.0000
    10 N5       4.1834   1.4999   5.8229   N.3       1 RES1   0.0000
    11 H5       3.7080   0.7794   5.7162   H         1 RES1   0.0000
    12 N6       5.4095   3.0569   3.9903   N.3       1 RES1   0.0000
    13 H6       5.5021   3.2894   3.1208   H         1 RES1   0.0000
    14 C1       2.8680   2.4850   1.9662   C.3       1 RES1   0.0000
    15 H7       2.3173   2.0323   1.2790   H         1 RES1   0.0000
    16 H8       3.8169   2.4379   1.6867   H         1 RES1   0.0000
    17 C2       2.4381   3.9424   2.0996   C.3       1 RES1   0.0000
    18 H9       2.8174   4.4702   1.3537   H         1 RES1   0.0000
    19 H10      1.4512   4.0030   2.0499   H         1 RES1   0.0000
    20 C3       1.8550   5.2648   4.1067   C.3       1 RES1   0.0000
    21 H11      1.3813   5.8526   3.4668   H         1 RES1   0.0000
    22 H12      2.2617   5.8335   4.8075   H         1 RES1   0.0000
    23 C4       0.8710   4.2871   4.7389   C.3       1 RES1   0.0000
    24 H13      0.3371   4.7547   5.4291   H         1 RES1   0.0000
    25 H14      0.2498   3.9478   4.0467   H         1 RES1   0.0000
    26 C5       0.9747   1.8422   5.0428   C.3       1 RES1   0.0000
    27 H15     -0.0030   1.8964   5.1865   H         1 RES1   0.0000
    28 H16      1.3379   1.1361   5.6330   H         1 RES1   0.0000
    29 C6       1.2678   1.5035   3.5849   C.3       1 RES1   0.0000
    30 H17      1.0932   0.5415   3.4237   H         1 RES1   0.0000
    31 H18      0.6733   2.0302   2.9930   H         1 RES1   0.0000
    32 C7       4.6202   3.3565   7.3418   C.3       1 RES1   0.0000
    33 H19      4.2861   3.7821   8.1709   H         1 RES1   0.0000
    34 H20      5.6075   3.3149   7.3943   H         1 RES1   0.0000
    35 C8       4.0562   1.9456   7.2298   C.3       1 RES1   0.0000
    36 H21      4.5562   1.3336   7.8250   H         1 RES1   0.0000
    37 H22      3.1046   1.9388   7.5020   H         1 RES1   0.0000
    38 C9       5.5885   1.1312   5.4706   C.3       1 RES1   0.0000
    39 H23      5.6886   0.1465   5.4779   H         1 RES1   0.0000
    40 H24      6.2123   1.5099   6.1397   H         1 RES1   0.0000
    41 C10      5.9233   1.6728   4.0898   C.3       1 RES1   0.0000
    42 H25      6.9033   1.6649   3.9520   H         1 RES1   0.0000
    43 H26      5.5060   1.1064   3.3936   H         1 RES1   0.0000
    44 C11      6.2389   4.0142   4.7884   C.3       1 RES1   0.0000
    45 H27      6.8117   4.5445   4.1788   H         1 RES1   0.0000
    46 H28      6.8282   3.5103   5.4033   H         1 RES1   0.0000
    47 C12      5.3437   4.9484   5.5909   C.3       1 RES1   0.0000
    48 H29      5.8660   5.3684   6.3191   H         1 RES1   0.0000
    49 H30      4.9960   5.6657   5.0042   H         1 RES1   0.0000
    50 S1       5.2229   7.2147   1.5346   S.o2      2 RES2   0.0000
    51 O1       4.4043   6.8639   0.4042   O.2       2 RES2   0.0000
    52 O2       5.2513   6.2425   2.6003   O.3       2 RES2  -1.0000
    53 O3       6.5030   7.7910   1.2139   O.2       2 RES2   0.0000
    54 C13      4.3229   8.6146   2.2861   C.3       2 RES2   0.0000
    55 F1       4.9770   9.1168   3.3324   F         2 RES2   0.0000
    56 F2       4.1594   9.6061   1.4170   F         2 RES2   0.0000
    57 F3       3.1173   8.2404   2.7047   F         2 RES2   0.0000
    58 S2       1.8797   7.0791   8.0082   S.o2      3 RES3   0.0000
    59 O4       0.5198   7.5332   8.1094   O.2       3 RES3   0.0000
    60 O5       2.6111   7.0970   9.2433   O.2       3 RES3   0.0000
    61 O6       2.0629   5.8951   7.2063   O.3       3 RES3  -1.0000
    62 C14      2.6834   8.3812   7.0131   C.3       3 RES3   0.0000
    63 F4       3.9718   8.0964   6.8131   F         3 RES3   0.0000
    64 F5       2.1199   8.4967   5.8118   F         3 RES3   0.0000
    65 F6       2.6087   9.5553   7.6135   F         3 RES3   0.0000
    66 O7       9.2515   9.8140   3.1741   O.2       4 RES4   0.0000
    67 N7       8.1536   8.6347   4.7814   N.am      4 RES4   0.0000
    68 C15      8.6553   8.8080   3.5644   C.2       4 RES4   0.0000
    69 H31      8.5456   8.0972   2.9428   H         4 RES4   0.0000
    70 C16      8.2548   9.6583   5.8044   C.3       4 RES4   0.0000
    71 H32      8.9847  10.2739   5.5798   H         4 RES4   0.0000
    72 H33      8.4364   9.2376   6.6708   H         4 RES4   0.0000
    73 H34      7.4117  10.1550   5.8526   H         4 RES4   0.0000
    74 C17      7.4222   7.4347   5.1433   C.3       4 RES4   0.0000
    75 H35      7.3556   6.8443   4.3640   H         4 RES4   0.0000
    76 H36      6.5225   7.6789   5.4449   H         4 RES4   0.0000
    77 H37      7.8939   6.9696   5.8655   H         4 RES4   0.0000
@<TRIPOS>BOND
     1     1     2    1
     2     2     3    1
     3     4     1    1
     4     5     4    1
     5     6     1    1
     6     7     6    1
     7     8     1    1
     8     9     8    1
     9    10     1    1
    10    11    10    1
    11    12     1    1
    12    13    12    1
    13    14     2    1
    14    15    14    1
    15    16    14    1
    16    17     4    1
    17    18    17    1
    18    19    17    1
    19    20     4    1
    20    21    20    1
    21    22    20    1
    22    23     6    1
    23    24    23    1
    24    25    23    1
    25    26     6    1
    26    27    26    1
    27    28    26    1
    28    29     2    1
    29    30    29    1
    30    31    29    1
    31    32     8    1
    32    33    32    1
    33    34    32    1
    34    35    10    1
    35    36    35    1
    36    37    35    1
    37    38    10    1
    38    39    38    1
    39    40    38    1
    40    41    12    1
    41    42    41    1
    42    43    41    1
    43    44    12    1
    44    45    44    1
    45    46    44    1
    46    47     8    1
    47    48    47    1
    48    49    47    1
    49    14    17    1
    50    20    23    1
    51    26    29    1
    52    32    35    1
    53    38    41    1
    54    44    47    1
    55    50    51    2
    56    52    50    1
    57    53    50    2
    58    54    50    1
    59    55    54    1
    60    56    54    1
    61    57    54    1
    62    58    59    2
    63    60    58    2
    64    61    58    1
    65    62    58    1
    66    63    62    1
    67    64    62    1
    68    65    62    1
    69    66    68    2
    70    67    68   am
    71    68    69    1
    72    70    67    1
    73    71    70    1
    74    72    70    1
    75    73    70    1
    76    74    67    1
    77    75    74    1
    78    76    74    1
    79    77    74    1
@<TRIPOS>SUBSTRUCTURE
     1 RES1        1 GROUP             0 ****  ****    0  
     2 RES2       50 GROUP             0 ****  ****    0  
     3 RES3       58 GROUP             0 ****  ****    0  
     4 RES4       66 GROUP             0 ****  ****    0  
@<TRIPOS>CRYSIN
    9.1097   21.2359   14.4627   90.0000   96.9920   90.0000   231     1
