@<TRIPOS>MOLECULE
KICVID
    79    85     4     0     0
SMALL
USER_CHARGES
****
Generated from the CSD

@<TRIPOS>ATOM
     1 Fe1      4.4646   1.1974   3.0868   Fe        1 RES1   1.0000
     2 N1       2.9330   0.3738   4.0387   N.ar      1 RES1   0.0000
     3 N2       4.7604   2.0453   4.8063   N.2       1 RES1   0.0000
     4 N3       3.2196   2.5935   2.4144   N.ar      1 RES1   0.0000
     5 N4       4.0340   0.3602   1.3893   N.2       1 RES1   0.0000
     6 O1       5.8942   2.0645   2.2374   O.3       1 RES1   0.0000
     7 O2       5.5616  -0.2096   3.6827   O.3       1 RES1   0.0000
     8 O3       7.3626  -4.6902   0.9928   O.3       1 RES1   0.0000
     9 O4       9.7927   5.4009   4.2913   O.3       1 RES1   0.0000
    10 C1       2.0655  -0.5287   3.5783   C.ar      1 RES1   0.0000
    11 H1       2.1126  -0.7885   2.6660   H         1 RES1   0.0000
    12 C2       1.0846  -1.1046   4.4029   C.ar      1 RES1   0.0000
    13 H2       0.4952  -1.7625   4.0517   H         1 RES1   0.0000
    14 C3       0.9785  -0.7192   5.6973   C.ar      1 RES1   0.0000
    15 H3       0.3137  -1.1067   6.2550   H         1 RES1   0.0000
    16 C4       1.8630   0.2668   6.2253   C.ar      1 RES1   0.0000
    17 C5       1.8450   0.7487   7.5506   C.ar      1 RES1   0.0000
    18 H4       1.2005   0.4162   8.1640   H         1 RES1   0.0000
    19 C6       2.7458   1.6884   7.9563   C.ar      1 RES1   0.0000
    20 H5       2.7079   2.0097   8.8497   H         1 RES1   0.0000
    21 C7       3.7328   2.1976   7.0878   C.ar      1 RES1   0.0000
    22 H6       4.3418   2.8636   7.3880   H         1 RES1   0.0000
    23 C8       3.8031   1.7170   5.7982   C.ar      1 RES1   0.0000
    24 C9       2.8431   0.7756   5.3556   C.ar      1 RES1   0.0000
    25 C10      5.7777   2.8044   5.1065   C.2       1 RES1   0.0000
    26 H7       5.8517   3.1071   6.0034   H         1 RES1   0.0000
    27 C11      6.7865   3.2121   4.1846   C.ar      1 RES1   0.0000
    28 C12      7.7814   4.0876   4.6983   C.ar      1 RES1   0.0000
    29 H8       7.7457   4.3570   5.6083   H         1 RES1   0.0000
    30 C13      8.7904   4.5462   3.8904   C.ar      1 RES1   0.0000
    31 C14      8.8374   4.1351   2.5509   C.ar      1 RES1   0.0000
    32 H9       9.5486   4.4334   1.9944   H         1 RES1   0.0000
    33 C15      7.8735   3.3123   2.0324   C.ar      1 RES1   0.0000
    34 H10      7.9248   3.0564   1.1176   H         1 RES1   0.0000
    35 C16      6.8019   2.8311   2.8249   C.ar      1 RES1   0.0000
    36 C17      2.9294   3.7688   2.9685   C.ar      1 RES1   0.0000
    37 H11      3.3569   4.0124   3.7812   H         1 RES1   0.0000
    38 C18      2.0113   4.6615   2.3907   C.ar      1 RES1   0.0000
    39 H12      1.8268   5.4946   2.8095   H         1 RES1   0.0000
    40 C19      1.3841   4.3243   1.2256   C.ar      1 RES1   0.0000
    41 H13      0.7417   4.9111   0.8436   H         1 RES1   0.0000
    42 C20      1.6916   3.0990   0.5873   C.ar      1 RES1   0.0000
    43 C21      1.1490   2.6700  -0.6466   C.ar      1 RES1   0.0000
    44 H14      0.5113   3.2102  -1.0963   H         1 RES1   0.0000
    45 C22      1.5408   1.4789  -1.1912   C.ar      1 RES1   0.0000
    46 H15      1.1758   1.2098  -2.0265   H         1 RES1   0.0000
    47 C23      2.4646   0.6438  -0.5517   C.ar      1 RES1   0.0000
    48 H16      2.6927  -0.1951  -0.9325   H         1 RES1   0.0000
    49 C24      3.0441   1.0447   0.6324   C.ar      1 RES1   0.0000
    50 C25      2.6324   2.2618   1.2185   C.ar      1 RES1   0.0000
    51 C26      4.6194  -0.7090   0.9195   C.2       1 RES1   0.0000
    52 H17      4.3956  -0.9769   0.0368   H         1 RES1   0.0000
    53 C27      5.5602  -1.4987   1.6171   C.ar      1 RES1   0.0000
    54 C28      6.0211  -2.6680   0.9563   C.ar      1 RES1   0.0000
    55 H18      5.7194  -2.8553   0.0747   H         1 RES1   0.0000
    56 C29      6.8908  -3.5260   1.5614   C.ar      1 RES1   0.0000
    57 C30      7.3560  -3.2395   2.8546   C.ar      1 RES1   0.0000
    58 H19      7.9889  -3.8147   3.2675   H         1 RES1   0.0000
    59 C31      6.9006  -2.1294   3.5261   C.ar      1 RES1   0.0000
    60 H20      7.2175  -1.9630   4.4065   H         1 RES1   0.0000
    61 C32      5.9816  -1.2322   2.9519   C.ar      1 RES1   0.0000
    62 C33      6.6645  -5.1295  -0.1590   C.3       1 RES1   0.0000
    63 H21      5.7146  -5.2376   0.0558   H         1 RES1   0.0000
    64 H22      7.0323  -5.9877  -0.4568   H         1 RES1   0.0000
    65 H23      6.7640  -4.4672  -0.8744   H         1 RES1   0.0000
    66 C34      9.6085   6.0358   5.5573   C.3       1 RES1   0.0000
    67 H24      8.7480   6.5046   5.5644   H         1 RES1   0.0000
    68 H25     10.3320   6.6785   5.7092   H         1 RES1   0.0000
    69 H26      9.6177   5.3590   6.2656   H         1 RES1   0.0000
    70 N5       5.1765   8.4868   1.3205   N.1       2 RES2   0.0000
    71 C35      6.3902   6.9581   3.0409   C.3       2 RES2   0.0000
    72 H27      7.1516   7.4414   3.4217   H         2 RES2   0.0000
    73 H28      6.7088   6.1484   2.5888   H         2 RES2   0.0000
    74 H29      5.7691   6.7092   3.7575   H         2 RES2   0.0000
    75 C36      5.7012   7.8154   2.0751   C.1       2 RES2   0.0000
    76 Cl1      4.0813   5.6483   5.5703   Cl        3 RES3  -1.0000
    77 O5      13.5347   7.5922   3.9283   O.3       4 RES4   0.0000
    78 H30     14.2308   7.1691   4.2878   H         4 RES4   0.0000
    79 H31     13.1639   8.0688   4.5216   H         4 RES4   0.0000
@<TRIPOS>BOND
     1     1     2    1
     2     2    10   ar
     3     3     1    1
     4     4     1    1
     5     5     1    1
     6     6     1    1
     7     7     1    1
     8     8    56    1
     9     9    30    1
    10    10    11    1
    11    12    10   ar
    12    13    12    1
    13    14    12   ar
    14    15    14    1
    15    16    14   ar
    16    17    16   ar
    17    18    17    1
    18    19    17   ar
    19    20    19    1
    20    21    19   ar
    21    22    21    1
    22    23     3    1
    23    24     2   ar
    24    25     3    2
    25    26    25    1
    26    27    25    1
    27    28    27   ar
    28    29    28    1
    29    30    28   ar
    30    31    30   ar
    31    32    31    1
    32    33    31   ar
    33    34    33    1
    34    35     6    1
    35    36     4   ar
    36    37    36    1
    37    38    36   ar
    38    39    38    1
    39    40    38   ar
    40    41    40    1
    41    42    40   ar
    42    43    42   ar
    43    44    43    1
    44    45    43   ar
    45    46    45    1
    46    47    45   ar
    47    48    47    1
    48    49     5    1
    49    50     4   ar
    50    51     5    2
    51    52    51    1
    52    53    51    1
    53    54    53   ar
    54    55    54    1
    55    56    54   ar
    56    57    56   ar
    57    58    57    1
    58    59    57   ar
    59    60    59    1
    60    61     7    1
    61    62     8    1
    62    63    62    1
    63    64    62    1
    64    65    62    1
    65    66     9    1
    66    67    66    1
    67    68    66    1
    68    69    66    1
    69    16    24   ar
    70    21    23   ar
    71    23    24   ar
    72    27    35   ar
    73    33    35   ar
    74    42    50   ar
    75    47    49   ar
    76    49    50   ar
    77    53    61   ar
    78    59    61   ar
    79    70    75    3
    80    71    72    1
    81    73    71    1
    82    74    71    1
    83    75    71    1
    84    77    78    1
    85    79    77    1
@<TRIPOS>SUBSTRUCTURE
     1 RES1        1 GROUP             0 ****  ****    0  
     2 RES2       70 GROUP             0 ****  ****    0  
     3 RES3       76 GROUP             0 ****  ****    0  
     4 RES4       77 GROUP             0 ****  ****    0  
@<TRIPOS>CRYSIN
   11.3953   11.8227   12.3983   73.7030   81.9660   76.0350     2     1
