@<TRIPOS>MOLECULE
KIKDUG
    95   102     1     0     0
SMALL
NO_CHARGES
****
Generated from the CSD

@<TRIPOS>ATOM
     1 Fe1      4.7972  10.4116   5.7339   Fe        1 RES1   0.0000
     2 S1       3.0944   8.9848   6.2803   S.3       1 RES1   0.0000
     3 S2       4.9821  10.8902   7.8619   S.3       1 RES1   0.0000
     4 O1       4.7118   9.5336   4.0000   O.3       1 RES1   0.0000
     5 O2       5.8800  11.7345   4.8988   O.3       1 RES1   0.0000
     6 N1       6.3375   9.3486   5.9431   N.2       1 RES1   0.0000
     7 N2       3.4302  11.6824   5.4133   N.2       1 RES1   0.0000
     8 C1       1.9112  10.2375   6.5252   C.ar      1 RES1   0.0000
     9 C2       2.1800  11.5323   6.0350   C.ar      1 RES1   0.0000
    10 C3       6.2640   9.8178   8.2427   C.ar      1 RES1   0.0000
    11 C4       6.8797   9.0275   4.7218   C.2       1 RES1   0.0000
    12 C5       6.8872   9.1001   7.1926   C.ar      1 RES1   0.0000
    13 C6       5.9153   9.1615   3.6717   C.2       1 RES1   0.0000
    14 C7       5.7791  13.5875   3.3911   C.2       1 RES1   0.0000
    15 C8       7.9027   8.1751   7.4906   C.ar      1 RES1   0.0000
    16 H1       8.2875   7.6714   6.8096   H         1 RES1   0.0000
    17 C9       5.1928  12.6336   4.2704   C.2       1 RES1   0.0000
    18 C10      3.7714  12.6405   4.5247   C.2       1 RES1   0.0000
    19 C11      5.8742   8.7679  -0.1846   C.3       1 RES1   0.0000
    20 H2       6.2256   7.8751  -0.2051   H         1 RES1   0.0000
    21 H3       6.5816   9.3948  -0.3473   H         1 RES1   0.0000
    22 H4       5.1996   8.8621  -0.8615   H         1 RES1   0.0000
    23 C12      7.5945   8.5014   2.1167   C.2       1 RES1   0.0000
    24 H5       7.8500   8.2889   1.2484   H         1 RES1   0.0000
    25 C13      6.2859   8.8769   2.3202   C.2       1 RES1   0.0000
    26 C14      4.9090  14.4449   2.7827   C.2       1 RES1   0.0000
    27 H6       5.2688  15.0968   2.2248   H         1 RES1   0.0000
    28 C15      8.5837   8.4152   3.1354   C.2       1 RES1   0.0000
    29 C16     -0.1995  11.0077   7.3525   C.ar      1 RES1   0.0000
    30 H7      -1.0086  10.8346   7.7764   H         1 RES1   0.0000
    31 C17      6.7237   9.6232   9.5554   C.ar      1 RES1   0.0000
    32 H8       6.3271  10.0905  10.2555   H         1 RES1   0.0000
    33 C18      5.2528   9.0427   1.2006   C.3       1 RES1   0.0000
    34 C19      8.2106   8.6872   4.4276   C.2       1 RES1   0.0000
    35 H9       8.8409   8.6442   5.1100   H         1 RES1   0.0000
    36 C20      1.1608  15.1872   2.2849   C.3       1 RES1   0.0000
    37 H10      0.9224  14.2983   2.0128   H         1 RES1   0.0000
    38 H11      0.6793  15.8258   1.7530   H         1 RES1   0.0000
    39 H12      0.9378  15.3094   3.2106   H         1 RES1   0.0000
    40 C21      7.2984  13.6436   3.1847   C.3       1 RES1   0.0000
    41 C22      8.3253   8.0142   8.7869   C.ar      1 RES1   0.0000
    42 H13      9.0025   7.4068   8.9838   H         1 RES1   0.0000
    43 C23      0.7012   9.9991   7.1802   C.ar      1 RES1   0.0000
    44 H14      0.5087   9.1476   7.5015   H         1 RES1   0.0000
    45 C24      2.9365  13.5304   3.8096   C.2       1 RES1   0.0000
    46 H15      2.0149  13.5082   3.9326   H         1 RES1   0.0000
    47 C25      3.4913  14.4204   2.9344   C.2       1 RES1   0.0000
    48 C26      1.2554  12.5663   6.2517   C.ar      1 RES1   0.0000
    49 H16      1.4404  13.4300   5.9578   H         1 RES1   0.0000
    50 C27      0.0752  12.2927   6.9013   C.ar      1 RES1   0.0000
    51 H17     -0.5435  12.9719   7.0394   H         1 RES1   0.0000
    52 C28      3.0066  16.8201   2.5023   C.3       1 RES1   0.0000
    53 H18      2.8898  16.9169   3.4499   H         1 RES1   0.0000
    54 H19      2.4269  17.4323   2.0443   H         1 RES1   0.0000
    55 H20      3.9186  17.0071   2.2712   H         1 RES1   0.0000
    56 C29     10.0541   8.1170   2.8127   C.3       1 RES1   0.0000
    57 C30      7.7381   8.7654   9.8138   C.ar      1 RES1   0.0000
    58 H21      8.0490   8.6719  10.6848   H         1 RES1   0.0000
    59 C31      4.6971  10.4676   1.1746   C.3       1 RES1   0.0000
    60 H22      4.0890  10.5608   0.4362   H         1 RES1   0.0000
    61 H23      5.4196  11.0913   1.0734   H         1 RES1   0.0000
    62 H24      4.2325  10.6452   1.9950   H         1 RES1   0.0000
    63 C32      7.9692  13.9581   4.5179   C.3       1 RES1   0.0000
    64 H25      7.7662  13.2638   5.1496   H         1 RES1   0.0000
    65 H26      7.6444  14.7983   4.8502   H         1 RES1   0.0000
    66 H27      8.9196  14.0083   4.3934   H         1 RES1   0.0000
    67 C33      2.6618  15.3938   2.0921   C.3       1 RES1   0.0000
    68 C34      4.1057   8.0472   1.4139   C.3       1 RES1   0.0000
    69 H28      4.4494   7.1510   1.3811   H         1 RES1   0.0000
    70 H29      3.4495   8.1632   0.7220   H         1 RES1   0.0000
    71 H30      3.7012   8.2042   2.2699   H         1 RES1   0.0000
    72 C35      2.9860  15.1667   0.6085   C.3       1 RES1   0.0000
    73 H31      3.9271  15.2880   0.4649   H         1 RES1   0.0000
    74 H32      2.4969  15.7972   0.0738   H         1 RES1   0.0000
    75 H33      2.7365  14.2739   0.3596   H         1 RES1   0.0000
    76 C36      7.8289  12.3279   2.6309   C.3       1 RES1   0.0000
    77 H34      8.7729  12.4043   2.4736   H         1 RES1   0.0000
    78 H35      7.3817  12.1259   1.8050   H         1 RES1   0.0000
    79 H36      7.6654  11.6257   3.2640   H         1 RES1   0.0000
    80 C37      7.6744  14.7498   2.1892   C.3       1 RES1   0.0000
    81 H37      7.3848  15.5998   2.5297   H         1 RES1   0.0000
    82 H38      7.2470  14.5803   1.3469   H         1 RES1   0.0000
    83 H39      8.6270  14.7615   2.0689   H         1 RES1   0.0000
    84 C38     10.2385   7.5229   1.4535   C.3       1 RES1   0.0000
    85 H40     11.1613   7.2871   1.3305   H         1 RES1   0.0000
    86 H41      9.9808   8.1643   0.7863   H         1 RES1   0.0000
    87 H42      9.6929   6.7373   1.3701   H         1 RES1   0.0000
    88 C39     10.6892   7.2460   3.8533   C.3       1 RES1   0.0000
    89 H43     10.2420   6.3971   3.8752   H         1 RES1   0.0000
    90 H44     10.6159   7.6692   4.7121   H         1 RES1   0.0000
    91 H45     11.6151   7.1158   3.6386   H         1 RES1   0.0000
    92 C40     10.8250   9.4672   2.8825   C.3       1 RES1   0.0000
    93 H46     11.7687   9.3016   2.8168   H         1 RES1   0.0000
    94 H47     10.6342   9.9023   3.7166   H         1 RES1   0.0000
    95 H48     10.5486  10.0317   2.1564   H         1 RES1   0.0000
@<TRIPOS>BOND
     1     1     2    1
     2     2     8    1
     3     3     1    1
     4     4     1    1
     5     5     1    1
     6     6     1    1
     7     7     1    1
     8     8     9   ar
     9     9     7    1
    10    10     3    1
    11    11     6    2
    12    12     6    1
    13    13     4    1
    14    14    17    1
    15    15    12   ar
    16    16    15    1
    17    17     5    1
    18    18     7    2
    19    19    20    1
    20    21    19    1
    21    22    19    1
    22    23    24    1
    23    25    13    1
    24    26    14    2
    25    27    26    1
    26    28    23    1
    27    29    30    1
    28    31    10   ar
    29    32    31    1
    30    33    19    1
    31    34    11    1
    32    35    34    1
    33    36    37    1
    34    38    36    1
    35    39    36    1
    36    40    14    1
    37    41    15   ar
    38    42    41    1
    39    43     8   ar
    40    44    43    1
    41    45    18    1
    42    46    45    1
    43    47    26    1
    44    48     9   ar
    45    49    48    1
    46    50    29   ar
    47    51    50    1
    48    52    53    1
    49    54    52    1
    50    55    52    1
    51    56    28    1
    52    57    31   ar
    53    58    57    1
    54    59    33    1
    55    60    59    1
    56    61    59    1
    57    62    59    1
    58    63    40    1
    59    64    63    1
    60    65    63    1
    61    66    63    1
    62    67    36    1
    63    68    33    1
    64    69    68    1
    65    70    68    1
    66    71    68    1
    67    72    67    1
    68    73    72    1
    69    74    72    1
    70    75    72    1
    71    76    40    1
    72    77    76    1
    73    78    76    1
    74    79    76    1
    75    80    40    1
    76    81    80    1
    77    82    80    1
    78    83    80    1
    79    84    56    1
    80    85    84    1
    81    86    84    1
    82    87    84    1
    83    88    56    1
    84    89    88    1
    85    90    88    1
    86    91    88    1
    87    92    56    1
    88    93    92    1
    89    94    92    1
    90    95    92    1
    91    10    12   ar
    92    11    13    1
    93    17    18    1
    94    23    25    2
    95    25    33    1
    96    28    34    2
    97    29    43   ar
    98    41    57   ar
    99    45    47    2
   100    47    67    1
   101    48    50   ar
   102    52    67    1
@<TRIPOS>SUBSTRUCTURE
     1 RES1        1 GROUP             0 ****  ****    0  
@<TRIPOS>CRYSIN
   10.3765   13.4987   13.7533   85.9830   84.8280   82.0190     2     1
