@<TRIPOS>MOLECULE
KIKGIX
    86    82     8     0     0
SMALL
USER_CHARGES
****
Generated from the CSD

@<TRIPOS>ATOM
     1 Fe1     -2.3535   3.0196   7.5383   Fe        1 RES1   0.0000
     2 C1      -1.1832   4.3166   8.2806   C.1       1 RES1   0.0000
     3 C2      -0.8715   2.1140   6.7355   C.1       1 RES1   0.0000
     4 C3      -2.1629   1.9156   9.0860   C.1       1 RES1   0.0000
     5 N1      -0.4995   5.1208   8.7410   N.1       1 RES1  -1.0000
     6 N2       0.0123   1.5459   6.2597   N.1       1 RES1   0.0000
     7 N3      -2.0489   1.2330  10.0091   N.1       1 RES1  -1.0000
     8 C1A     -3.5237   1.7225   6.7961   C.1       1 RES1   0.0000
     9 C2A     -3.8354   3.9252   8.3412   C.1       1 RES1   0.0000
    10 C3A     -2.5440   4.1235   5.9907   C.1       1 RES1   0.0000
    11 N1A     -4.2075   0.9183   6.3357   N.1       1 RES1  -1.0000
    12 N2A     -4.7192   4.4932   8.8170   N.1       1 RES1   0.0000
    13 N3A     -2.6580   4.8062   5.0676   N.1       1 RES1  -1.0000
    14 C4       1.4055   0.1459   9.2536   C.ar      2 RES2   0.0000
    15 H1       0.4850   0.2191   9.1425   H         2 RES2   0.0000
    16 C5       1.9937  -1.0820   9.1947   C.ar      2 RES2   0.0000
    17 H2       1.4758  -1.8398   9.0460   H         2 RES2   0.0000
    18 C6       3.3665  -1.1989   9.3578   C.ar      2 RES2   0.0000
    19 C7       4.0936  -0.0380   9.5582   C.ar      2 RES2   0.0000
    20 H3       5.0161  -0.0826   9.6657   H         2 RES2   0.0000
    21 C8       3.4632   1.1664   9.5983   C.ar      2 RES2   0.0000
    22 H4       3.9616   1.9428   9.7169   H         2 RES2   0.0000
    23 C9       1.4698   2.5694   9.6532   C.3       2 RES2   0.0000
    24 H5       0.5708   2.5341   9.2918   H         2 RES2   0.0000
    25 H6       1.9632   3.2509   9.1712   H         2 RES2   0.0000
    26 C10      1.4144   2.9221  11.1106   C.ar      2 RES2   0.0000
    27 C11      2.1454   3.9565  11.6136   C.ar      2 RES2   0.0000
    28 H7       2.6860   4.4556  11.0437   H         2 RES2   0.0000
    29 C12      2.0949   4.2750  12.9569   C.ar      2 RES2   0.0000
    30 H8       2.5916   4.9911  13.2826   H         2 RES2   0.0000
    31 C13      1.3227   3.5470  13.8042   C.ar      2 RES2   0.0000
    32 H9       1.2914   3.7582  14.7088   H         2 RES2   0.0000
    33 C14      0.5926   2.5029  13.3142   C.ar      2 RES2   0.0000
    34 H10      0.0635   1.9968  13.8871   H         2 RES2   0.0000
    35 C15      0.6403   2.1993  11.9784   C.ar      2 RES2   0.0000
    36 H11      0.1353   1.4879  11.6558   H         2 RES2   0.0000
    37 C16      4.0718  -2.4712   9.3414   C.2       2 RES2   0.0000
    38 H12      4.9895  -2.4882   9.4938   H         2 RES2   0.0000
    39 N4       2.1330   1.2476   9.4698   N.ar      2 RES2   1.0000
    40 N5       3.4583  -3.5513   9.1241   N.2       2 RES2   0.0000
    41 O1       4.3087  -4.6364   9.1591   O.3       2 RES2   0.0000
    42 H13      3.9015  -5.3111   8.9314   H         2 RES2   0.0000
    43 C17     -2.5694   4.4315  11.6467   C.ar      3 RES3   0.0000
    44 H14     -2.3357   4.3537  10.7512   H         3 RES3   0.0000
    45 C18     -2.9820   3.3306  12.3207   C.ar      3 RES3   0.0000
    46 H15     -3.0155   2.5084  11.8865   H         3 RES3   0.0000
    47 C19     -3.3528   3.4236  13.6483   C.ar      3 RES3   0.0000
    48 C20     -3.2664   4.6496  14.2368   C.ar      3 RES3   0.0000
    49 H16     -3.4809   4.7480  15.1370   H         3 RES3   0.0000
    50 C21     -2.8684   5.7252  13.5147   C.ar      3 RES3   0.0000
    51 H17     -2.8550   6.5659  13.9128   H         3 RES3   0.0000
    52 C22     -2.1554   6.7901  11.3950   C.3       3 RES3   0.0000
    53 H18     -2.9791   7.2108  11.1010   H         3 RES3   0.0000
    54 H19     -1.6743   6.4984  10.6049   H         3 RES3   0.0000
    55 C23     -1.3162   7.8151  12.1292   C.ar      3 RES3   0.0000
    56 C24     -0.0407   7.6105  12.4850   C.ar      3 RES3   0.0000
    57 H20      0.3550   6.7814  12.3373   H         3 RES3   0.0000
    58 C25      0.6758   8.6069  13.0624   C.ar      3 RES3   0.0000
    59 H21      1.5482   8.4340  13.3353   H         3 RES3   0.0000
    60 C26      0.1645   9.8448  13.2524   C.ar      3 RES3   0.0000
    61 H22      0.6809  10.5323  13.6067   H         3 RES3   0.0000
    62 C27     -1.1248  10.0383  12.9072   C.ar      3 RES3   0.0000
    63 H23     -1.5159  10.8708  13.0459   H         3 RES3   0.0000
    64 C28     -1.8668   9.0268  12.3538   C.ar      3 RES3   0.0000
    65 H24     -2.7571   9.1783  12.1307   H         3 RES3   0.0000
    66 C29     -3.7909   2.2307  14.3560   C.2       3 RES3   0.0000
    67 H25     -3.8982   1.4353  13.8856   H         3 RES3   0.0000
    68 N6      -2.4928   5.5940  12.2251   N.ar      3 RES3   1.0000
    69 N7      -4.0237   2.2560  15.5766   N.2       3 RES3   0.0000
    70 O2      -4.4263   1.0275  16.0657   O.3       3 RES3   0.0000
    71 H26     -4.4126   1.0420  16.8859   H         3 RES3   0.0000
    72 O3       3.6501   6.8123  10.0239   O.3       4 RES4   0.0000
    73 H27      3.9656   6.1435   9.6039   H         4 RES4   0.0000
    74 H28      2.8590   6.9655   9.7546   H         4 RES4   0.0000
    75 O4       4.0070   7.3757  12.7066   O.3       5 RES5   0.0000
    76 H29      3.8707   7.3026  11.8669   H         5 RES5   0.0000
    77 H30      3.9896   8.2018  12.9207   H         5 RES5   0.0000
    78 O5      -2.6119   7.2741   7.7072   O.3       6 RES6   0.0000
    79 H31     -1.9797   6.7216   7.5775   H         6 RES6   0.0000
    80 H32     -3.3125   6.9082   7.9168   H         6 RES6   0.0000
    81 O6      -3.6767   8.6159   5.5859   O.3       7 RES7   0.0000
    82 H33     -3.2725   8.1672   6.1814   H         7 RES7   0.0000
    83 H34     -3.4444   9.4318   5.6538   H         7 RES7   0.0000
    84 O7      -3.0038   7.0216   3.5251   O.3       8 RES8   0.0000
    85 H35     -2.7406   6.3527   3.9802   H         8 RES8   0.0000
    86 H36     -3.1818   7.6639   4.0406   H         8 RES8   0.0000
@<TRIPOS>BOND
     1     1     2    1
     2     2     5    3
     3     3     1    1
     4     4     1    1
     5     6     3    3
     6     7     4    3
     7     8     1    1
     8     9     1    1
     9    10     1    1
    10    11     8    3
    11    12     9    3
    12    13    10    3
    13    14    15    1
    14    16    14   ar
    15    17    16    1
    16    18    16   ar
    17    19    18   ar
    18    20    19    1
    19    21    19   ar
    20    22    21    1
    21    23    24    1
    22    25    23    1
    23    26    23    1
    24    27    26   ar
    25    28    27    1
    26    29    27   ar
    27    30    29    1
    28    31    29   ar
    29    32    31    1
    30    33    31   ar
    31    34    33    1
    32    35    26   ar
    33    36    35    1
    34    37    18    1
    35    38    37    1
    36    39    14   ar
    37    40    37    2
    38    41    40    1
    39    42    41    1
    40    21    39   ar
    41    23    39    1
    42    33    35   ar
    43    43    44    1
    44    45    43   ar
    45    46    45    1
    46    47    45   ar
    47    48    47   ar
    48    49    48    1
    49    50    48   ar
    50    51    50    1
    51    52    53    1
    52    54    52    1
    53    55    52    1
    54    56    55   ar
    55    57    56    1
    56    58    56   ar
    57    59    58    1
    58    60    58   ar
    59    61    60    1
    60    62    60   ar
    61    63    62    1
    62    64    55   ar
    63    65    64    1
    64    66    47    1
    65    67    66    1
    66    68    43   ar
    67    69    66    2
    68    70    69    1
    69    71    70    1
    70    50    68   ar
    71    52    68    1
    72    62    64   ar
    73    72    73    1
    74    74    72    1
    75    75    76    1
    76    77    75    1
    77    78    79    1
    78    80    78    1
    79    81    82    1
    80    83    81    1
    81    84    85    1
    82    86    84    1
@<TRIPOS>SUBSTRUCTURE
     1 RES1        1 GROUP             0 ****  ****    0  
     2 RES2       14 GROUP             0 ****  ****    0  
     3 RES3       43 GROUP             0 ****  ****    0  
     4 RES4       72 GROUP             0 ****  ****    0  
     5 RES5       75 GROUP             0 ****  ****    0  
     6 RES6       78 GROUP             0 ****  ****    0  
     7 RES7       81 GROUP             0 ****  ****    0  
     8 RES8       84 GROUP             0 ****  ****    0  
@<TRIPOS>CRYSIN
    9.2150   12.2553   16.2052  108.6270   95.0420  105.5370     2     1
