@<TRIPOS>MOLECULE
KINCOD
    84    89     2     0     0
SMALL
USER_CHARGES
****
Generated from the CSD

@<TRIPOS>ATOM
     1 Fe1      3.2188  11.5671   3.5129   Fe        1 RES1   1.0000
     2 N1       4.0900  12.1764   5.0702   N.2       1 RES1   0.0000
     3 N2       1.7648  11.1854   4.6654   N.2       1 RES1   0.0000
     4 N3       2.2475  11.1022   1.9361   N.2       1 RES1   0.0000
     5 N4       4.7364  11.8593   2.3818   N.2       1 RES1   0.0000
     6 N5       3.8939   9.6602   3.7868   N.ar      1 RES1   0.0000
     7 N6       2.6010  13.4665   3.2061   N.ar      1 RES1   0.0000
     8 O1      -1.7257   9.3028   3.8672   O.2       1 RES1   0.0000
     9 O2      -1.1145   8.7252   1.7939   O.3       1 RES1   0.0000
    10 O3       8.5196  13.2998   3.6314   O.2       1 RES1   0.0000
    11 O4       7.7168  13.4636   5.7008   O.3       1 RES1   0.0000
    12 C1       3.2533  12.1589   6.2326   C.ar      1 RES1   0.0000
    13 C2       3.5999  12.6178   7.4940   C.ar      1 RES1   0.0000
    14 H1       4.4263  13.0211   7.6349   H         1 RES1   0.0000
    15 C3       2.7001  12.4712   8.5544   C.ar      1 RES1   0.0000
    16 H2       2.9275  12.7723   9.4039   H         1 RES1   0.0000
    17 C4       1.4663  11.8744   8.3366   C.ar      1 RES1   0.0000
    18 H3       0.8741  11.7704   9.0459   H         1 RES1   0.0000
    19 C5       1.1081  11.4346   7.0763   C.ar      1 RES1   0.0000
    20 H4       0.2749  11.0465   6.9396   H         1 RES1   0.0000
    21 C6       1.9976  11.5733   6.0099   C.ar      1 RES1   0.0000
    22 C7       0.6941  10.5126   4.3079   C.2       1 RES1   0.0000
    23 H5       0.1318  10.2258   4.9918   H         1 RES1   0.0000
    24 C8       0.3127  10.1828   2.9923   C.2       1 RES1   0.0000
    25 C9       1.0253  10.6242   1.8296   C.2       1 RES1   0.0000
    26 C10      2.9435  11.6444   0.7463   C.3       1 RES1   0.0000
    27 H6       2.7040  12.5748   0.6163   H         1 RES1   0.0000
    28 H7       2.6850  11.1472  -0.0451   H         1 RES1   0.0000
    29 C11      4.4484  11.5177   0.9762   C.3       1 RES1   0.0000
    30 H8       4.7379  10.6111   0.7887   H         1 RES1   0.0000
    31 H9       4.9261  12.1196   0.3838   H         1 RES1   0.0000
    32 C12      5.9810  12.1443   2.7456   C.2       1 RES1   0.0000
    33 C13      6.2658  12.5845   4.0840   C.2       1 RES1   0.0000
    34 C14      5.3313  12.6153   5.1264   C.2       1 RES1   0.0000
    35 H10      5.6137  12.9794   5.9349   H         1 RES1   0.0000
    36 C15     -0.9440   9.3848   2.9538   C.2       1 RES1   0.0000
    37 C16     -2.3700   7.9986   1.6635   C.3       1 RES1   0.0000
    38 H11     -3.1212   8.6073   1.7356   H         1 RES1   0.0000
    39 H12     -2.4459   7.3287   2.3606   H         1 RES1   0.0000
    40 C17     -2.3554   7.3441   0.3093   C.3       1 RES1   0.0000
    41 H13     -3.1248   6.7756   0.2202   H         1 RES1   0.0000
    42 H14     -1.5577   6.8188   0.2152   H         1 RES1   0.0000
    43 H15     -2.3768   8.0190  -0.3733   H         1 RES1   0.0000
    44 C18      0.3570  10.6654   0.4754   C.3       1 RES1   0.0000
    45 H16      0.5126  11.5207   0.0678   H         1 RES1   0.0000
    46 H17     -0.5877  10.5288   0.5808   H         1 RES1   0.0000
    47 H18      0.7201   9.9741  -0.0822   H         1 RES1   0.0000
    48 C19      7.6059  13.1376   4.4042   C.2       1 RES1   0.0000
    49 C20      8.9108  14.1732   6.1062   C.3       1 RES1   0.0000
    50 H19      9.6698  13.8475   5.5971   H         1 RES1   0.0000
    51 H20      9.0838  14.0072   7.0455   H         1 RES1   0.0000
    52 C21      8.7480  15.6352   5.8787   C.3       1 RES1   0.0000
    53 H21      9.5466  16.0918   6.1516   H         1 RES1   0.0000
    54 H22      8.0033  15.9574   6.3918   H         1 RES1   0.0000
    55 H23      8.5884  15.7980   4.9461   H         1 RES1   0.0000
    56 C22      7.0827  12.0167   1.7273   C.3       1 RES1   0.0000
    57 H24      6.8195  11.3935   1.0471   H         1 RES1   0.0000
    58 H25      7.8810  11.7033   2.1583   H         1 RES1   0.0000
    59 H26      7.2501  12.8744   1.3287   H         1 RES1   0.0000
    60 C23      3.9167   8.7641   2.7696   C.ar      1 RES1   0.0000
    61 H27      3.5276   8.9997   1.9583   H         1 RES1   0.0000
    62 C24      4.4918   7.5206   2.8864   C.ar      1 RES1   0.0000
    63 H28      4.4921   6.9332   2.1653   H         1 RES1   0.0000
    64 C25      5.0713   7.1511   4.0876   C.ar      1 RES1   0.0000
    65 H29      5.4822   6.3220   4.1844   H         1 RES1   0.0000
    66 C26      5.0247   8.0417   5.1336   C.ar      1 RES1   0.0000
    67 H30      5.3877   7.8136   5.9587   H         1 RES1   0.0000
    68 C27      4.4354   9.2738   4.9531   C.ar      1 RES1   0.0000
    69 H31      4.4115   9.8649   5.6705   H         1 RES1   0.0000
    70 C28      1.2850  13.7604   3.1644   C.ar      1 RES1   0.0000
    71 H32      0.6690  13.0830   3.3289   H         1 RES1   0.0000
    72 C29      0.8188  15.0295   2.8876   C.ar      1 RES1   0.0000
    73 H33     -0.0945  15.2023   2.8773   H         1 RES1   0.0000
    74 C30      1.7246  16.0410   2.6240   C.ar      1 RES1   0.0000
    75 H34      1.4323  16.8996   2.4184   H         1 RES1   0.0000
    76 C31      3.0760  15.7457   2.6757   C.ar      1 RES1   0.0000
    77 H35      3.7080  16.4066   2.5068   H         1 RES1   0.0000
    78 C32      3.4729  14.4650   2.9779   C.ar      1 RES1   0.0000
    79 H36      4.3832  14.2805   3.0266   H         1 RES1   0.0000
    80 Cl1      6.2294  14.6587   9.8443   Cl        2 RES2   0.0000
    81 O5       6.5878  16.0309   9.9675   O.2       2 RES2   0.0000
    82 O6       4.8314  14.4966  10.1156   O.2       2 RES2   0.0000
    83 O7       6.4901  14.2229   8.5039   O.3       2 RES2  -1.0000
    84 O8       7.0125  13.8988  10.7475   O.2       2 RES2   0.0000
@<TRIPOS>BOND
     1     1     2    1
     2     2    12    1
     3     3     1    1
     4     4     1    1
     5     5     1    1
     6     6     1    1
     7     7     1    1
     8     8    36    2
     9     9    36    1
    10    10    48    2
    11    11    48    1
    12    12    13   ar
    13    13    14    1
    14    15    13   ar
    15    16    15    1
    16    17    15   ar
    17    18    17    1
    18    19    17   ar
    19    20    19    1
    20    21     3    1
    21    22     3   un
    22    23    22    1
    23    24    22   un
    24    25     4   un
    25    26     4    1
    26    27    26    1
    27    28    26    1
    28    29     5    1
    29    30    29    1
    30    31    29    1
    31    32     5   un
    32    33    32   un
    33    34     2   un
    34    35    34    1
    35    36    24    1
    36    37     9    1
    37    38    37    1
    38    39    37    1
    39    40    37    1
    40    41    40    1
    41    42    40    1
    42    43    40    1
    43    44    25    1
    44    45    44    1
    45    46    44    1
    46    47    44    1
    47    48    33    1
    48    49    11    1
    49    50    49    1
    50    51    49    1
    51    52    49    1
    52    53    52    1
    53    54    52    1
    54    55    52    1
    55    56    32    1
    56    57    56    1
    57    58    56    1
    58    59    56    1
    59    60     6   ar
    60    61    60    1
    61    62    60   ar
    62    63    62    1
    63    64    62   ar
    64    65    64    1
    65    66    64   ar
    66    67    66    1
    67    68     6   ar
    68    69    68    1
    69    70     7   ar
    70    71    70    1
    71    72    70   ar
    72    73    72    1
    73    74    72   ar
    74    75    74    1
    75    76    74   ar
    76    77    76    1
    77    78     7   ar
    78    79    78    1
    79    12    21   ar
    80    19    21   ar
    81    24    25   un
    82    26    29    1
    83    33    34   un
    84    66    68   ar
    85    76    78   ar
    86    80    81    2
    87    82    80    2
    88    83    80    1
    89    84    80    2
@<TRIPOS>SUBSTRUCTURE
     1 RES1        1 GROUP             0 ****  ****    0  
     2 RES2       80 GROUP             0 ****  ****    0  
@<TRIPOS>CRYSIN
   10.1980   13.2270   13.2660   67.0000   80.5600   88.7000     2     1
