@<TRIPOS>MOLECULE
KINQUT
    77    81     5     0     0
SMALL
USER_CHARGES
****
Generated from the CSD

@<TRIPOS>ATOM
     1 Fe1      0.5493   3.2456   8.6026   Fe        1 RES1   2.0000
     2 N1       0.5885   1.4566   7.6890   N.ar      1 RES1   0.0000
     3 N2       2.4547   3.0330   8.3745   N.2       1 RES1   0.0000
     4 N3       3.5452   3.7638   8.5640   N.pl3     1 RES1   0.0000
     5 C1      -0.4509   0.6868   7.3860   C.ar      1 RES1   0.0000
     6 C2      -0.3186  -0.5866   6.8809   C.ar      1 RES1   0.0000
     7 C3       0.9122  -1.0729   6.6846   C.ar      1 RES1   0.0000
     8 C4       2.0032  -0.3128   6.9853   C.ar      1 RES1   0.0000
     9 C5       1.8208   0.9800   7.4972   C.ar      1 RES1   0.0000
    10 C6       2.8429   1.8794   7.7923   C.2       1 RES1   0.0000
    11 C7       4.2518   1.9161   7.6209   C.2       1 RES1   0.0000
    12 C8       4.6766   3.1357   8.1236   C.2       1 RES1   0.0000
    13 N4      -1.4075   3.2579   8.9317   N.ar      1 RES1   0.0000
    14 N5       0.4997   2.3487  10.3401   N.2       1 RES1   0.0000
    15 N6       1.3824   1.8819  11.2129   N.pl3     1 RES1   0.0000
    16 C9      -2.3529   3.7515   8.1395   C.ar      1 RES1   0.0000
    17 C10     -3.6916   3.7051   8.4550   C.ar      1 RES1   0.0000
    18 C11     -4.0607   3.1405   9.6104   C.ar      1 RES1   0.0000
    19 C12     -3.1176   2.6224  10.4491   C.ar      1 RES1   0.0000
    20 C13     -1.7655   2.6908  10.0870   C.ar      1 RES1   0.0000
    21 C14     -0.7221   2.1947  10.8883   C.2       1 RES1   0.0000
    22 C15     -0.5693   1.5984  12.1684   C.2       1 RES1   0.0000
    23 C16      0.7895   1.4102  12.3512   C.2       1 RES1   0.0000
    24 N7       0.6667   5.0542   9.4118   N.ar      1 RES1   0.0000
    25 N8       0.4067   4.3161   6.9978   N.2       1 RES1   0.0000
    26 N9       0.2142   4.0937   5.7052   N.pl3     1 RES1   0.0000
    27 C17      0.8781   5.3377  10.6931   C.ar      1 RES1   0.0000
    28 C18      0.9156   6.6257  11.1777   C.ar      1 RES1   0.0000
    29 C19      0.7309   7.6399  10.3231   C.ar      1 RES1   0.0000
    30 C20      0.5117   7.3858   9.0009   C.ar      1 RES1   0.0000
    31 C21      0.4809   6.0587   8.5515   C.ar      1 RES1   0.0000
    32 C22      0.3077   5.6456   7.1919   C.2       1 RES1   0.0000
    33 C23      0.0399   6.2640   5.9412   C.2       1 RES1   0.0000
    34 C24     -0.0150   5.2448   5.0049   C.2       1 RES1   0.0000
    35 H1       3.5392   4.6729   8.9816   H         1 RES1   0.0000
    36 H2      -1.3710   1.0509   7.5301   H         1 RES1   0.0000
    37 H3      -1.1250  -1.1340   6.6642   H         1 RES1   0.0000
    38 H4       1.0316  -1.9967   6.3191   H         1 RES1   0.0000
    39 H5       2.9245  -0.6721   6.8412   H         1 RES1   0.0000
    40 H6       4.8247   1.2024   7.2169   H         1 RES1   0.0000
    41 H7       5.6131   3.4827   8.1588   H         1 RES1   0.0000
    42 H8       2.3687   1.8770  11.0562   H         1 RES1   0.0000
    43 H9      -2.0796   4.1744   7.2759   H         1 RES1   0.0000
    44 H10     -4.3746   4.0888   7.8331   H         1 RES1   0.0000
    45 H11     -5.0288   3.0965   9.8589   H         1 RES1   0.0000
    46 H12     -3.3884   2.1972  11.3127   H         1 RES1   0.0000
    47 H13     -1.2991   1.3638  12.8108   H         1 RES1   0.0000
    48 H14      1.2427   1.0094  13.1490   H         1 RES1   0.0000
    49 H15      0.2351   3.1845   5.2875   H         1 RES1   0.0000
    50 H16      1.0166   4.5825  11.3320   H         1 RES1   0.0000
    51 H17      1.0785   6.7992  12.1492   H         1 RES1   0.0000
    52 H18      0.7545   8.5809  10.6545   H         1 RES1   0.0000
    53 H19      0.3722   8.1385   8.3586   H         1 RES1   0.0000
    54 H20     -0.0844   7.2416   5.7710   H         1 RES1   0.0000
    55 H21     -0.1853   5.3328   4.0232   H         1 RES1   0.0000
    56 C25     -0.6048   0.6257   2.9371   C.3       2 RES2   0.0000
    57 F1      -1.6075   1.1560   3.6090   F         2 RES2   0.0000
    58 F2      -0.9964   0.4741   1.6876   F         2 RES2   0.0000
    59 F3      -0.3801  -0.5743   3.4354   F         2 RES2   0.0000
    60 S1       0.8270   1.6326   3.0359   S.o2      2 RES2   0.0000
    61 O1       1.7827   0.9263   2.2755   O.3       2 RES2  -1.0000
    62 O2       1.1017   1.6888   4.4182   O.2       2 RES2   0.0000
    63 O3       0.4137   2.8570   2.4696   O.2       2 RES2   0.0000
    64 C26      5.8331   7.6913   9.1632   C.3       3 RES3   0.0000
    65 F4       5.1467   8.4636   8.3450   F         3 RES3   0.0000
    66 F5       6.7829   8.4269   9.7057   F         3 RES3   0.0000
    67 F6       6.4164   6.7577   8.4369   F         3 RES3   0.0000
    68 S2       4.7985   6.9850  10.3912   S.o2      3 RES3   0.0000
    69 O4       5.6809   6.2053  11.1652   O.3       3 RES3  -1.0000
    70 O5       3.8572   6.2444   9.6478   O.2       3 RES3   0.0000
    71 O6       4.2648   8.1067  11.0619   O.2       3 RES3   0.0000
    72 O7       4.0238   1.4151  10.9405   O.3       4 RES4   0.0000
    73 H22      4.6157   2.1678  11.2276   H         4 RES4   0.0000
    74 H23      4.1770   0.6550  11.5692   H         4 RES4   0.0000
    75 O8       5.6132   3.4729  11.6872   O.3       5 RES5   0.0000
    76 H24      5.6447   4.4554  11.5057   H         5 RES5   0.0000
    77 H25      6.2388   3.2652  12.4386   H         5 RES5   0.0000
@<TRIPOS>BOND
     1     1     2    1
     2     2     5   ar
     3     3     1    1
     4     4     3    1
     5     5     6   ar
     6     6     7   ar
     7     7     8   ar
     8     8     9   ar
     9     9     2   ar
    10    10     3    2
    11    11    10    1
    12    12     4    1
    13    13     1    1
    14    14     1    1
    15    15    14    1
    16    16    13   ar
    17    17    16   ar
    18    18    17   ar
    19    19    18   ar
    20    20    13   ar
    21    21    14    2
    22    22    21    1
    23    23    15    1
    24    24     1    1
    25    25     1    1
    26    26    25    1
    27    27    24   ar
    28    28    27   ar
    29    29    28   ar
    30    30    29   ar
    31    31    24   ar
    32    32    25    2
    33    33    32    1
    34    34    26    1
    35    35     4    1
    36    36     5    1
    37    37     6    1
    38    38     7    1
    39    39     8    1
    40    40    11    1
    41    41    12    1
    42    42    15    1
    43    43    16    1
    44    44    17    1
    45    45    18    1
    46    46    19    1
    47    47    22    1
    48    48    23    1
    49    49    26    1
    50    50    27    1
    51    51    28    1
    52    52    29    1
    53    53    30    1
    54    54    33    1
    55    55    34    1
    56     9    10    1
    57    11    12    2
    58    19    20   ar
    59    20    21    1
    60    22    23    2
    61    30    31   ar
    62    31    32    1
    63    33    34    2
    64    56    57    1
    65    58    56    1
    66    59    56    1
    67    60    56    1
    68    61    60    1
    69    62    60    2
    70    63    60    2
    71    64    65    1
    72    66    64    1
    73    67    64    1
    74    68    64    1
    75    69    68    1
    76    70    68    2
    77    71    68    2
    78    72    73    1
    79    74    72    1
    80    75    76    1
    81    77    75    1
@<TRIPOS>SUBSTRUCTURE
     1 RES1        1 GROUP             0 ****  ****    0  
     2 RES2       56 GROUP             0 ****  ****    0  
     3 RES3       64 GROUP             0 ****  ****    0  
     4 RES4       72 GROUP             0 ****  ****    0  
     5 RES5       75 GROUP             0 ****  ****    0  
@<TRIPOS>CRYSIN
   12.3300   24.4400   12.5500   90.0000  115.2700   90.0000    14     1
