@<TRIPOS>MOLECULE
KIRFOG
   111   115     3     0     0
SMALL
USER_CHARGES
****
Generated from the CSD

@<TRIPOS>ATOM
     1 Fe1      2.4504   3.3752   2.2703   Fe        1 RES1   1.0000
     2 C1       2.5133   0.9894  -0.2584   C.3       1 RES1   0.0000
     3 C2       4.2851   0.2827   1.7890   C.3       1 RES1   0.0000
     4 P1       3.4789   1.7638   1.0939   P.3       1 RES1   0.0000
     5 C3       4.8577   2.5162   0.1124   C.3       1 RES1   0.0000
     6 C4       5.3927   3.7234   0.8048   C.3       1 RES1   0.0000
     7 P2       3.9891   4.7234   1.4091   P.3       1 RES1   0.0000
     8 C5       4.7655   6.0408   2.4005   C.3       1 RES1   0.0000
     9 C6       3.5241   5.6772  -0.0750   C.3       1 RES1   0.0000
    10 C7       5.3024   2.8548   4.3059   C.3       1 RES1   0.0000
    11 C8       3.3284   4.3845   5.4815   C.3       1 RES1   0.0000
    12 P3       3.4990   3.1654   4.1669   P.3       1 RES1   0.0000
    13 C9       2.9096   1.6431   5.0259   C.3       1 RES1   0.0000
    14 C10      1.4313   1.5606   4.8977   C.3       1 RES1   0.0000
    15 P4       0.8801   2.1024   3.2428   P.3       1 RES1   0.0000
    16 C11      0.3280   0.5477   2.4853   C.3       1 RES1   0.0000
    17 C12     -0.7293   2.8577   3.6451   C.3       1 RES1   0.0000
    18 C13      0.8668   4.2653   1.0217   C.3       1 RES1   0.0000
    19 C14      1.2414   4.9028   2.3157   C.2       1 RES1   0.0000
    20 C15      0.6619   5.9761   2.7930   C.2       1 RES1   0.0000
    21 C16      1.0041   6.6106   4.0949   C.3       1 RES1   0.0000
    22 C17     -0.4852   6.6636   2.0573   C.3       1 RES1   0.0000
    23 H1       1.5387   3.3819   0.7495   H         1 RES1   0.0000
    24 H2       0.9962   4.8350   0.2130   H         1 RES1   0.0000
    25 H3      -0.0142   3.9413   1.0237   H         1 RES1   0.0000
    26 H4       1.1338   7.5161   4.0219   H         1 RES1   0.0000
    27 H5       1.6495   6.2691   4.5288   H         1 RES1   0.0000
    28 H6       0.3816   6.3368   4.8345   H         1 RES1   0.0000
    29 H7      -0.3040   7.5058   1.9034   H         1 RES1   0.0000
    30 H8      -1.1527   6.6680   2.6530   H         1 RES1   0.0000
    31 H9      -0.7586   6.3309   1.0888   H         1 RES1   0.0000
    32 H10      2.9502   0.1590  -0.5385   H         1 RES1   0.0000
    33 H11      2.4645   1.6048  -1.0198   H         1 RES1   0.0000
    34 H12      1.6078   0.7921   0.0592   H         1 RES1   0.0000
    35 H13      4.8537   0.5433   2.5425   H         1 RES1   0.0000
    36 H14      4.8338  -0.1443   1.0987   H         1 RES1   0.0000
    37 H15      3.6013  -0.3489   2.0967   H         1 RES1   0.0000
    38 H16      4.5203   2.7753  -0.7693   H         1 RES1   0.0000
    39 H17      5.5756   1.8580   0.0079   H         1 RES1   0.0000
    40 H18      5.9504   3.4481   1.5622   H         1 RES1   0.0000
    41 H19      5.9303   4.2520   0.1795   H         1 RES1   0.0000
    42 H20      5.0745   5.6698   3.2526   H         1 RES1   0.0000
    43 H21      4.1103   6.7505   2.5721   H         1 RES1   0.0000
    44 H22      5.5283   6.4133   1.9113   H         1 RES1   0.0000
    45 H23      4.3154   6.1307  -0.4320   H         1 RES1   0.0000
    46 H24      2.8454   6.3412   0.1657   H         1 RES1   0.0000
    47 H25      3.1609   5.0691  -0.7515   H         1 RES1   0.0000
    48 H26      5.5723   2.1908   3.6373   H         1 RES1   0.0000
    49 H27      5.5071   2.5162   5.2034   H         1 RES1   0.0000
    50 H28      5.7911   3.6896   4.1521   H         1 RES1   0.0000
    51 H29      3.8688   4.1121   6.2528   H         1 RES1   0.0000
    52 H30      2.3876   4.4478   5.7478   H         1 RES1   0.0000
    53 H31      3.6359   5.2576   5.1600   H         1 RES1   0.0000
    54 H32      3.1558   1.6828   5.9746   H         1 RES1   0.0000
    55 H33      3.3196   0.8539   4.6156   H         1 RES1   0.0000
    56 H34      1.1489   0.6346   5.0417   H         1 RES1   0.0000
    57 H35      1.0213   2.1378   5.5762   H         1 RES1   0.0000
    58 H36      1.1076   0.0221   2.2131   H         1 RES1   0.0000
    59 H37     -0.2243   0.7450   1.7003   H         1 RES1   0.0000
    60 H38     -0.1981   0.0368   3.1362   H         1 RES1   0.0000
    61 H39     -0.5848   3.7279   4.0712   H         1 RES1   0.0000
    62 H40     -1.2220   2.2718   4.2566   H         1 RES1   0.0000
    63 H41     -1.2467   2.9799   2.8206   H         1 RES1   0.0000
    64 B1      -5.2894   3.8928   0.6253   B         2 RES2  -1.0000
    65 C18     -3.8562   4.0091  -0.1913   C.ar      2 RES2   0.0000
    66 C19     -3.5060   5.2326  -0.7673   C.ar      2 RES2   0.0000
    67 C20     -2.3521   5.4151  -1.4892   C.ar      2 RES2   0.0000
    68 C21     -1.4845   4.3727  -1.6707   C.ar      2 RES2   0.0000
    69 C22     -1.7918   3.1492  -1.1421   C.ar      2 RES2   0.0000
    70 C23     -2.9611   2.9814  -0.4162   C.ar      2 RES2   0.0000
    71 C24     -5.4728   2.4308   1.3314   C.ar      2 RES2   0.0000
    72 C25     -6.6099   1.6284   1.2604   C.ar      2 RES2   0.0000
    73 C26     -6.7402   0.4373   1.9429   C.ar      2 RES2   0.0000
    74 C27     -5.7364  -0.0118   2.7437   C.ar      2 RES2   0.0000
    75 C28     -4.5968   0.7523   2.8877   C.ar      2 RES2   0.0000
    76 C29     -4.4814   1.9493   2.1914   C.ar      2 RES2   0.0000
    77 C30     -5.3711   4.9661   1.8581   C.ar      2 RES2   0.0000
    78 C31     -4.3538   5.7950   2.2979   C.ar      2 RES2   0.0000
    79 C32     -4.4905   6.6519   3.3572   C.ar      2 RES2   0.0000
    80 C33     -5.6592   6.7181   4.0633   C.ar      2 RES2   0.0000
    81 C34     -6.7027   5.9186   3.6787   C.ar      2 RES2   0.0000
    82 C35     -6.5425   5.0750   2.6017   C.ar      2 RES2   0.0000
    83 C36     -6.4382   4.2240  -0.4813   C.ar      2 RES2   0.0000
    84 C37     -6.8377   3.3024  -1.4458   C.ar      2 RES2   0.0000
    85 C38     -7.7923   3.5806  -2.4064   C.ar      2 RES2   0.0000
    86 C39     -8.3719   4.8262  -2.4577   C.ar      2 RES2   0.0000
    87 C40     -7.9796   5.7758  -1.5642   C.ar      2 RES2   0.0000
    88 C41     -7.0373   5.4725  -0.6016   C.ar      2 RES2   0.0000
    89 H42     -4.1119   5.9952  -0.6509   H         2 RES2   0.0000
    90 H43     -2.1504   6.2941  -1.8739   H         2 RES2   0.0000
    91 H44     -0.6537   4.5023  -2.1737   H         2 RES2   0.0000
    92 H45     -1.1838   2.3925  -1.2762   H         2 RES2   0.0000
    93 H46     -3.1594   2.0966  -0.0454   H         2 RES2   0.0000
    94 H47     -7.3530   1.9243   0.6943   H         2 RES2   0.0000
    95 H48     -7.5632  -0.0883   1.8522   H         2 RES2   0.0000
    96 H49     -5.8222  -0.8687   3.2112   H         2 RES2   0.0000
    97 H50     -3.8745   0.4535   3.4795   H         2 RES2   0.0000
    98 H51     -3.6670   2.4808   2.3078   H         2 RES2   0.0000
    99 H52     -3.4933   5.7655   1.8305   H         2 RES2   0.0000
   100 H53     -3.7399   7.2290   3.6116   H         2 RES2   0.0000
   101 H54     -5.7474   7.3232   4.8286   H         2 RES2   0.0000
   102 H55     -7.5530   5.9466   4.1639   H         2 RES2   0.0000
   103 H56     -7.3021   4.5155   2.3413   H         2 RES2   0.0000
   104 H57     -6.4242   2.4131  -1.4439   H         2 RES2   0.0000
   105 H58     -8.0550   2.8916  -3.0514   H         2 RES2   0.0000
   106 H59     -9.0583   5.0264  -3.1264   H         2 RES2   0.0000
   107 H60     -8.3658   6.6754  -1.6056   H         2 RES2   0.0000
   108 O1       9.3961   3.9104   7.2410   O.2       3 RES3   0.0000
   109 C42      9.7858   3.4467   6.2034   C.2       3 RES3   0.0000
   110 C43      8.8991   2.6074   5.3928   C.3       3 RES3   0.0000
   111 C44     11.1508   3.7279   5.7281   C.3       3 RES3   0.0000
@<TRIPOS>BOND
     1     1     4    1
     2     2     4    1
     3     3     4    1
     4     4     5    1
     5     5     6    1
     6     6     7    1
     7     7     1    1
     8     8     7    1
     9     9     7    1
    10    10    12    1
    11    11    12    1
    12    12     1    1
    13    13    12    1
    14    14    13    1
    15    15     1    1
    16    16    15    1
    17    17    15    1
    18    18    19    1
    19    19     1    1
    20    20    19    2
    21    21    20    1
    22    22    20    1
    23    23     1    1
    24    24    18    1
    25    25    18    1
    26    26    21    1
    27    27    21    1
    28    28    21    1
    29    29    22    1
    30    30    22    1
    31    31    22    1
    32    32     2    1
    33    33     2    1
    34    34     2    1
    35    35     3    1
    36    36     3    1
    37    37     3    1
    38    38     5    1
    39    39     5    1
    40    40     6    1
    41    41     6    1
    42    42     8    1
    43    43     8    1
    44    44     8    1
    45    45     9    1
    46    46     9    1
    47    47     9    1
    48    48    10    1
    49    49    10    1
    50    50    10    1
    51    51    11    1
    52    52    11    1
    53    53    11    1
    54    54    13    1
    55    55    13    1
    56    56    14    1
    57    57    14    1
    58    58    16    1
    59    59    16    1
    60    60    16    1
    61    61    17    1
    62    62    17    1
    63    63    17    1
    64    14    15    1
    65    18    23    1
    66    64    65    1
    67    65    66   ar
    68    66    67   ar
    69    67    68   ar
    70    68    69   ar
    71    69    70   ar
    72    70    65   ar
    73    71    64    1
    74    72    71   ar
    75    73    72   ar
    76    74    73   ar
    77    75    74   ar
    78    76    71   ar
    79    77    64    1
    80    78    77   ar
    81    79    78   ar
    82    80    79   ar
    83    81    80   ar
    84    82    77   ar
    85    83    64    1
    86    84    83   ar
    87    85    84   ar
    88    86    85   ar
    89    87    86   ar
    90    88    83   ar
    91    89    66    1
    92    90    67    1
    93    91    68    1
    94    92    69    1
    95    93    70    1
    96    94    72    1
    97    95    73    1
    98    96    74    1
    99    97    75    1
   100    98    76    1
   101    99    78    1
   102   100    79    1
   103   101    80    1
   104   102    81    1
   105   103    82    1
   106   104    84    1
   107   105    85    1
   108   106    86    1
   109   107    87    1
   110    75    76   ar
   111    81    82   ar
   112    87    88   ar
   113   108   109    2
   114   109   110    1
   115   111   109    1
@<TRIPOS>SUBSTRUCTURE
     1 RES1        1 GROUP             0 ****  ****    0  
     2 RES2       64 GROUP             0 ****  ****    0  
     3 RES3      108 GROUP             0 ****  ****    0  
@<TRIPOS>CRYSIN
   15.3730   14.7230   19.7330   90.0000   91.6530   90.0000   231     1
