@<TRIPOS>MOLECULE
KISJUS
   114   123     2     0     0
SMALL
USER_CHARGES
****
Generated from the CSD

@<TRIPOS>ATOM
     1 Fe1     12.6000   1.6568  12.1380   Fe        1 RES1   1.0000
     2 O1      10.9309   0.9951   8.1435   O.3       1 RES1   0.0000
     3 O2      11.9762   0.9171  10.5267   O.3       1 RES1   0.0000
     4 O3      13.2979   2.5081  13.6406   O.3       1 RES1   0.0000
     5 O4      15.0434   3.6397  15.1635   O.3       1 RES1   0.0000
     6 N1      14.1976   0.5328  12.0880   N.2       1 RES1   0.0000
     7 N2      11.7915   0.1632  13.2377   N.3       1 RES1   0.0000
     8 N3      10.9146   2.6139  12.3120   N.2       1 RES1   0.0000
     9 N4      13.3439   3.1395  11.0524   N.2       1 RES1   0.0000
    10 N5      13.4630   4.6573   9.4752   N.pl3     1 RES1   0.0000
    11 C1      10.3447   1.0164   6.8435   C.3       1 RES1   0.0000
    12 C2      12.7124   0.3993   9.5668   C.ar      1 RES1   0.0000
    13 C3      12.1692   0.3782   8.2515   C.ar      1 RES1   0.0000
    14 C4      12.8524  -0.2223   7.2174   C.ar      1 RES1   0.0000
    15 C5      14.1074  -0.8145   7.4369   C.ar      1 RES1   0.0000
    16 C6      14.6503  -0.7838   8.6888   C.ar      1 RES1   0.0000
    17 C7      13.9869  -0.1642   9.7562   C.ar      1 RES1   0.0000
    18 C8      14.6019  -0.1473  11.0640   C.2       1 RES1   0.0000
    19 C9      14.8491   0.2195  13.3724   C.3       1 RES1   0.0000
    20 C10     13.9497  -0.7106  14.1738   C.3       1 RES1   0.0000
    21 C11     12.5649  -0.1545  14.4772   C.3       1 RES1   0.0000
    22 C12     10.3380   0.2798  13.5242   C.3       1 RES1   0.0000
    23 C13      9.5472   0.5627  12.2665   C.3       1 RES1   0.0000
    24 C14      9.7117   1.9986  11.7288   C.3       1 RES1   0.0000
    25 C15     10.7436   3.7116  12.9898   C.2       1 RES1   0.0000
    26 C16     11.7554   4.3439  13.8041   C.ar      1 RES1   0.0000
    27 C17     11.4412   5.5927  14.4029   C.ar      1 RES1   0.0000
    28 C18     12.3480   6.1598  15.2587   C.ar      1 RES1   0.0000
    29 C19     13.5607   5.5449  15.5594   C.ar      1 RES1   0.0000
    30 C20     13.8948   4.3399  14.9679   C.ar      1 RES1   0.0000
    31 C21     12.9599   3.6910  14.1002   C.ar      1 RES1   0.0000
    32 C22     16.0822   4.2743  15.9078   C.3       1 RES1   0.0000
    33 C23     12.8238   3.5656   9.9121   C.2       1 RES1   0.0000
    34 C24     14.3939   4.0042  11.3442   C.2       1 RES1   0.0000
    35 C25     14.4543   4.9516  10.3830   C.2       1 RES1   0.0000
    36 C26     13.1687   5.3876   8.2434   C.3       1 RES1   0.0000
    37 H1      10.6306   1.7757   6.3838   H         1 RES1   0.0000
    38 H2       9.4138   1.0345   6.9247   H         1 RES1   0.0000
    39 H3      10.5880   0.2509   6.3727   H         1 RES1   0.0000
    40 H4      12.4871  -0.2164   6.3504   H         1 RES1   0.0000
    41 H5      14.5545  -1.2226   6.7338   H         1 RES1   0.0000
    42 H6      15.4764  -1.1926   8.8479   H         1 RES1   0.0000
    43 H7      15.3463  -0.7015  11.1625   H         1 RES1   0.0000
    44 H8      15.6551  -0.2244  13.2305   H         1 RES1   0.0000
    45 H9      15.0202   1.0074  13.8525   H         1 RES1   0.0000
    46 H10     13.7757  -1.4796  13.6664   H         1 RES1   0.0000
    47 H11     14.3835  -0.9454  14.9740   H         1 RES1   0.0000
    48 H12     12.7235   0.6435  14.9438   H         1 RES1   0.0000
    49 H13     12.0848  -0.7439  15.0154   H         1 RES1   0.0000
    50 H14     10.0218  -0.5068  13.9145   H         1 RES1   0.0000
    51 H15     10.2541   0.9867  14.1277   H         1 RES1   0.0000
    52 H16      9.8322  -0.0033  11.5840   H         1 RES1   0.0000
    53 H17      8.6480   0.3828  12.4447   H         1 RES1   0.0000
    54 H18      8.9678   2.4786  12.0072   H         1 RES1   0.0000
    55 H19      9.7413   2.0034  10.7934   H         1 RES1   0.0000
    56 H20      9.9001   4.1096  12.9871   H         1 RES1   0.0000
    57 H21     10.6128   5.9908  14.2279   H         1 RES1   0.0000
    58 H22     12.1466   6.9831  15.6485   H         1 RES1   0.0000
    59 H23     14.1800   5.9654  16.1353   H         1 RES1   0.0000
    60 H24     16.6312   4.7852  15.3558   H         1 RES1   0.0000
    61 H25     16.5943   3.6197  16.3373   H         1 RES1   0.0000
    62 H26     15.6947   4.8257  16.5457   H         1 RES1   0.0000
    63 H27     12.1350   3.1111   9.4540   H         1 RES1   0.0000
    64 H28     14.9192   4.0005  12.1281   H         1 RES1   0.0000
    65 H29     15.0384   5.6839  10.3416   H         1 RES1   0.0000
    66 H30     13.7187   5.0274   7.5896   H         1 RES1   0.0000
    67 H31     13.3331   6.3050   8.3198   H         1 RES1   0.0000
    68 H32     12.2704   5.2412   8.0000   H         1 RES1   0.0000
    69 H53     12.0730  -0.5961  12.6785   H         1 RES1   0.0000
    70 C27     19.4499   5.4277  10.3213   C.ar      2 RES2   0.0000
    71 C28     20.6612   4.7869  10.0108   C.ar      2 RES2   0.0000
    72 C29     20.8970   4.2143   8.7859   C.ar      2 RES2   0.0000
    73 C30     19.9230   4.2615   7.7964   C.ar      2 RES2   0.0000
    74 C31     18.7231   4.8997   8.0573   C.ar      2 RES2   0.0000
    75 C32     18.4880   5.4815   9.2949   C.ar      2 RES2   0.0000
    76 C33     20.2519   6.9500  12.4606   C.ar      2 RES2   0.0000
    77 C34     21.2909   7.4759  11.6684   C.ar      2 RES2   0.0000
    78 C35     22.2028   8.4292  12.1345   C.ar      2 RES2   0.0000
    79 C36     22.0880   8.8839  13.4405   C.ar      2 RES2   0.0000
    80 C37     21.1009   8.3898  14.2454   C.ar      2 RES2   0.0000
    81 C38     20.1940   7.4519  13.7507   C.ar      2 RES2   0.0000
    82 C39     17.7321   6.7588  11.9448   C.ar      2 RES2   0.0000
    83 C40     17.5157   7.9566  11.2244   C.ar      2 RES2   0.0000
    84 C41     16.3565   8.6989  11.2621   C.ar      2 RES2   0.0000
    85 C42     15.2865   8.3194  12.0788   C.ar      2 RES2   0.0000
    86 C43     15.4635   7.1614  12.8360   C.ar      2 RES2   0.0000
    87 C44     16.6290   6.4187  12.7708   C.ar      2 RES2   0.0000
    88 C45     18.9223   4.5256  12.7405   C.ar      2 RES2   0.0000
    89 C46     19.5210   4.2195  13.9591   C.ar      2 RES2   0.0000
    90 C47     19.3505   2.9785  14.5858   C.ar      2 RES2   0.0000
    91 C48     18.5120   2.0223  14.0323   C.ar      2 RES2   0.0000
    92 C49     17.9008   2.3047  12.8153   C.ar      2 RES2   0.0000
    93 C50     18.1233   3.5216  12.1854   C.ar      2 RES2   0.0000
    94 B1      19.1200   5.9236  11.8624   B         2 RES2  -1.0000
    95 H33     21.3167   4.7569  10.6884   H         2 RES2   0.0000
    96 H34     21.7144   3.7903   8.6507   H         2 RES2   0.0000
    97 H35     20.0965   3.8803   6.9628   H         2 RES2   0.0000
    98 H36     18.0730   4.9302   7.3733   H         2 RES2   0.0000
    99 H37     17.6701   5.9087   9.4174   H         2 RES2   0.0000
   100 H38     21.3637   7.1752  10.7871   H         2 RES2   0.0000
   101 H39     22.8718   8.7619  11.5809   H         2 RES2   0.0000
   102 H40     22.7158   9.5022  13.7761   H         2 RES2   0.0000
   103 H41     21.0558   8.6909  15.1299   H         2 RES2   0.0000
   104 H42     19.5081   7.1555  14.3043   H         2 RES2   0.0000
   105 H43     18.2141   8.2272  10.6741   H         2 RES2   0.0000
   106 H44     16.2822   9.4520  10.7155   H         2 RES2   0.0000
   107 H45     14.5040   8.8241  12.0883   H         2 RES2   0.0000
   108 H46     14.7727   6.9120  13.4055   H         2 RES2   0.0000
   109 H47     16.7038   5.6681  13.3196   H         2 RES2   0.0000
   110 H48     20.0798   4.8663  14.3536   H         2 RES2   0.0000
   111 H49     19.7873   2.8227  15.4051   H         2 RES2   0.0000
   112 H50     18.3881   1.2074  14.4697   H         2 RES2   0.0000
   113 H51     17.3308   1.6611  12.4303   H         2 RES2   0.0000
   114 H52     17.6874   3.6749  11.3645   H         2 RES2   0.0000
@<TRIPOS>BOND
     1     1     3    1
     2     2    11    1
     3     3    12    1
     4     4     1    1
     5     5    30    1
     6     6     1    1
     7     7     1    1
     8     8     1    1
     9     9     1    1
    10    10    33    1
    11    11    37    1
    12    12    13   ar
    13    13     2    1
    14    14    13   ar
    15    15    14   ar
    16    16    15   ar
    17    17    12   ar
    18    18     6    2
    19    19     6    1
    20    20    19    1
    21    21     7    1
    22    22     7    1
    23    23    22    1
    24    24     8    1
    25    25     8    2
    26    26    25    1
    27    27    26   ar
    28    28    27   ar
    29    29    28   ar
    30    30    29   ar
    31    31     4    1
    32    32     5    1
    33    33     9    2
    34    34     9    1
    35    35    10    1
    36    36    10    1
    37    38    11    1
    38    39    11    1
    39    40    14    1
    40    41    15    1
    41    42    16    1
    42    43    18    1
    43    44    19    1
    44    45    19    1
    45    46    20    1
    46    47    20    1
    47    48    21    1
    48    49    21    1
    49    50    22    1
    50    51    22    1
    51    52    23    1
    52    53    23    1
    53    54    24    1
    54    55    24    1
    55    56    25    1
    56    57    27    1
    57    58    28    1
    58    59    29    1
    59    60    32    1
    60    61    32    1
    61    62    32    1
    62    63    33    1
    63    64    34    1
    64    65    35    1
    65    66    36    1
    66    67    36    1
    67    68    36    1
    68    69     7    1
    69    16    17   ar
    70    17    18    1
    71    20    21    1
    72    23    24    1
    73    26    31   ar
    74    30    31   ar
    75    34    35    2
    76    70    71   ar
    77    71    72   ar
    78    72    73   ar
    79    73    74   ar
    80    74    75   ar
    81    75    70   ar
    82    76    77   ar
    83    77    78   ar
    84    78    79   ar
    85    79    80   ar
    86    80    81   ar
    87    81    76   ar
    88    82    83   ar
    89    83    84   ar
    90    84    85   ar
    91    85    86   ar
    92    86    87   ar
    93    87    82   ar
    94    88    89   ar
    95    89    90   ar
    96    90    91   ar
    97    91    92   ar
    98    92    93   ar
    99    93    88   ar
   100    94    70    1
   101    95    71    1
   102    96    72    1
   103    97    73    1
   104    98    74    1
   105    99    75    1
   106   100    77    1
   107   101    78    1
   108   102    79    1
   109   103    80    1
   110   104    81    1
   111   105    83    1
   112   106    84    1
   113   107    85    1
   114   108    86    1
   115   109    87    1
   116   110    89    1
   117   111    90    1
   118   112    91    1
   119   113    92    1
   120   114    93    1
   121    76    94    1
   122    82    94    1
   123    88    94    1
@<TRIPOS>SUBSTRUCTURE
     1 RES1        1 GROUP             0 ****  ****    0  
     2 RES2       70 GROUP             0 ****  ****    0  
@<TRIPOS>CRYSIN
   12.0480   12.2130   17.0410   77.6850   69.7130   68.2740     2     1
