@<TRIPOS>MOLECULE
KISJUS01
   114   123     2     0     0
SMALL
USER_CHARGES
****
Generated from the CSD

@<TRIPOS>ATOM
     1 Fe1     12.5505   1.6773  12.2630   Fe        1 RES1   1.0000
     2 O1      10.9739   1.0205   8.2075   O.3       1 RES1   0.0000
     3 O2      11.9522   0.8911  10.6281   O.3       1 RES1   0.0000
     4 O3      13.2191   2.5759  13.7979   O.3       1 RES1   0.0000
     5 O4      14.9609   3.7327  15.3347   O.3       1 RES1   0.0000
     6 N1      14.1559   0.3760  12.2423   N.2       1 RES1   0.0000
     7 N2      11.6791   0.0805  13.4566   N.3       1 RES1   0.0000
     8 N3      10.7514   2.6190  12.5676   N.2       1 RES1   0.0000
     9 N4      13.3321   3.2414  11.1034   N.2       1 RES1   0.0000
    10 N5      13.4849   4.7102   9.4853   N.pl3     1 RES1   0.0000
    11 C1      10.3474   1.0554   6.9190   C.3       1 RES1   0.0000
    12 C2      12.6875   0.3879   9.6689   C.ar      1 RES1   0.0000
    13 C3      12.1918   0.3797   8.3520   C.ar      1 RES1   0.0000
    14 C4      12.8710  -0.1944   7.3230   C.ar      1 RES1   0.0000
    15 C5      14.0767  -0.7937   7.5638   C.ar      1 RES1   0.0000
    16 C6      14.6319  -0.8215   8.8306   C.ar      1 RES1   0.0000
    17 C7      13.9442  -0.1991   9.8933   C.ar      1 RES1   0.0000
    18 C8      14.5543  -0.2631  11.2044   C.2       1 RES1   0.0000
    19 C9      14.7796   0.0379  13.5427   C.3       1 RES1   0.0000
    20 C10     13.8447  -0.8394  14.3292   C.3       1 RES1   0.0000
    21 C11     12.4581  -0.2303  14.6735   C.3       1 RES1   0.0000
    22 C12     10.2533   0.2224  13.7571   C.3       1 RES1   0.0000
    23 C13      9.4191   0.5547  12.5123   C.3       1 RES1   0.0000
    24 C14      9.5313   1.9871  12.0250   C.3       1 RES1   0.0000
    25 C15     10.6088   3.7003  13.2428   C.2       1 RES1   0.0000
    26 C16     11.6524   4.3599  14.0191   C.ar      1 RES1   0.0000
    27 C17     11.3246   5.5947  14.6174   C.ar      1 RES1   0.0000
    28 C18     12.2363   6.1884  15.4407   C.ar      1 RES1   0.0000
    29 C19     13.4506   5.6113  15.7083   C.ar      1 RES1   0.0000
    30 C20     13.7761   4.4162  15.1389   C.ar      1 RES1   0.0000
    31 C21     12.8852   3.7390  14.2870   C.ar      1 RES1   0.0000
    32 C22     15.9865   4.3471  16.1187   C.3       1 RES1   0.0000
    33 C23     12.8792   3.6117   9.9261   C.2       1 RES1   0.0000
    34 C24     14.2816   4.1820  11.4111   C.2       1 RES1   0.0000
    35 C25     14.3832   5.0807  10.4254   C.2       1 RES1   0.0000
    36 C26     13.2270   5.3726   8.1907   C.3       1 RES1   0.0000
    37 H1      10.6398   1.8293   6.4521   H         1 RES1   0.0000
    38 H2       9.4012   1.0737   7.0015   H         1 RES1   0.0000
    39 H3      10.6082   0.2775   6.4391   H         1 RES1   0.0000
    40 H4      12.5150  -0.1864   6.4408   H         1 RES1   0.0000
    41 H5      14.5474  -1.2072   6.8496   H         1 RES1   0.0000
    42 H6      15.4707  -1.2378   8.9922   H         1 RES1   0.0000
    43 H7      15.3106  -0.8285  11.3045   H         1 RES1   0.0000
    44 H8      15.6024  -0.4134  13.3986   H         1 RES1   0.0000
    45 H9      14.9381   0.8373  14.0304   H         1 RES1   0.0000
    46 H10     13.6827  -1.6208  13.8122   H         1 RES1   0.0000
    47 H11     14.2726  -1.0803  15.1421   H         1 RES1   0.0000
    48 H12     12.6030   0.5804  15.1469   H         1 RES1   0.0000
    49 H13     11.9657  -0.8316  15.2196   H         1 RES1   0.0000
    50 H14      9.9327  -0.5791  14.1532   H         1 RES1   0.0000
    51 H15     10.1521   0.9413  14.3697   H         1 RES1   0.0000
    52 H16      9.7256  -0.0183  11.8199   H         1 RES1   0.0000
    53 H17      8.5044   0.3711  12.6925   H         1 RES1   0.0000
    54 H18      8.7664   2.4748  12.3079   H         1 RES1   0.0000
    55 H19      9.5785   1.9945  11.0766   H         1 RES1   0.0000
    56 H20      9.7497   4.1053  13.2402   H         1 RES1   0.0000
    57 H21     10.4837   6.0002  14.4392   H         1 RES1   0.0000
    58 H22     12.0181   7.0251  15.8353   H         1 RES1   0.0000
    59 H23     14.0659   6.0379  16.2942   H         1 RES1   0.0000
    60 H24     16.5486   4.8685  15.5590   H         1 RES1   0.0000
    61 H25     16.5028   3.6800  16.5560   H         1 RES1   0.0000
    62 H26     15.5767   4.9068  16.7676   H         1 RES1   0.0000
    63 H27     12.1919   3.1504   9.4608   H         1 RES1   0.0000
    64 H28     14.8003   4.1761  12.2061   H         1 RES1   0.0000
    65 H29     14.9727   5.8261  10.3850   H         1 RES1   0.0000
    66 H30     13.7996   5.0078   7.5266   H         1 RES1   0.0000
    67 H31     13.3853   6.3060   8.2683   H         1 RES1   0.0000
    68 H32     12.3209   5.2243   7.9435   H         1 RES1   0.0000
    69 H53     11.7165  -0.4936  12.8266   H         1 RES1   0.0000
    70 C27     19.4326   5.5206  10.5591   C.ar      2 RES2   0.0000
    71 C28     20.6622   4.8704  10.2913   C.ar      2 RES2   0.0000
    72 C29     20.9603   4.2971   9.0649   C.ar      2 RES2   0.0000
    73 C30     20.0087   4.3624   8.0453   C.ar      2 RES2   0.0000
    74 C31     18.8199   4.9693   8.2712   C.ar      2 RES2   0.0000
    75 C32     18.5531   5.5312   9.4986   C.ar      2 RES2   0.0000
    76 C33     20.2133   7.0435  12.6719   C.ar      2 RES2   0.0000
    77 C34     21.2729   7.5559  11.9330   C.ar      2 RES2   0.0000
    78 C35     22.1829   8.4775  12.4194   C.ar      2 RES2   0.0000
    79 C36     22.1101   8.9189  13.6781   C.ar      2 RES2   0.0000
    80 C37     21.0939   8.4716  14.4586   C.ar      2 RES2   0.0000
    81 C38     20.1420   7.5485  13.9690   C.ar      2 RES2   0.0000
    82 C39     17.6863   6.8537  12.1361   C.ar      2 RES2   0.0000
    83 C40     17.5030   8.0125  11.3718   C.ar      2 RES2   0.0000
    84 C41     16.3248   8.7750  11.3888   C.ar      2 RES2   0.0000
    85 C42     15.2980   8.4176  12.1916   C.ar      2 RES2   0.0000
    86 C43     15.4195   7.3130  12.9914   C.ar      2 RES2   0.0000
    87 C44     16.5992   6.5480  12.9474   C.ar      2 RES2   0.0000
    88 C45     18.8972   4.6206  12.9423   C.ar      2 RES2   0.0000
    89 C46     19.4975   4.3138  14.1774   C.ar      2 RES2   0.0000
    90 C47     19.3221   3.0977  14.8254   C.ar      2 RES2   0.0000
    91 C48     18.5028   2.1503  14.2744   C.ar      2 RES2   0.0000
    92 C49     17.8675   2.4046  13.0706   C.ar      2 RES2   0.0000
    93 C50     18.0863   3.6051  12.4286   C.ar      2 RES2   0.0000
    94 B1      19.0786   6.0184  12.0817   B         2 RES2  -1.0000
    95 H33     21.3155   4.8381  10.9797   H         2 RES2   0.0000
    96 H34     21.7956   3.8660   8.9275   H         2 RES2   0.0000
    97 H35     20.2038   3.9766   7.1986   H         2 RES2   0.0000
    98 H36     18.1726   5.0033   7.5767   H         2 RES2   0.0000
    99 H37     17.7178   5.9657   9.6240   H         2 RES2   0.0000
   100 H38     21.3649   7.2520  11.0378   H         2 RES2   0.0000
   101 H39     22.8686   8.8173  11.8555   H         2 RES2   0.0000
   102 H40     22.7360   9.5461  14.0191   H         2 RES2   0.0000
   103 H41     21.0305   8.7769  15.3570   H         2 RES2   0.0000
   104 H42     19.4378   7.2454  14.5297   H         2 RES2   0.0000
   105 H43     18.2196   8.2893  10.8132   H         2 RES2   0.0000
   106 H44     16.2534   9.5428  10.8342   H         2 RES2   0.0000
   107 H45     14.4986   8.9312  12.2012   H         2 RES2   0.0000
   108 H46     14.7103   7.0578  13.5699   H         2 RES2   0.0000
   109 H47     16.6710   5.7816  13.5052   H         2 RES2   0.0000
   110 H48     20.0542   4.9711  14.5798   H         2 RES2   0.0000
   111 H49     19.7520   2.9372  15.6575   H         2 RES2   0.0000
   112 H50     18.3773   1.3211  14.7187   H         2 RES2   0.0000
   113 H51     17.3012   1.7494  12.6779   H         2 RES2   0.0000
   114 H52     17.6576   3.7632  11.5953   H         2 RES2   0.0000
@<TRIPOS>BOND
     1     1     3    1
     2     2    11    1
     3     3    12    1
     4     4     1    1
     5     5    30    1
     6     6     1    1
     7     7     1    1
     8     8     1    1
     9     9     1    1
    10    10    33    1
    11    11    37    1
    12    12    13   ar
    13    13     2    1
    14    14    13   ar
    15    15    14   ar
    16    16    15   ar
    17    17    12   ar
    18    18     6    2
    19    19     6    1
    20    20    19    1
    21    21     7    1
    22    22     7    1
    23    23    22    1
    24    24     8    1
    25    25     8    2
    26    26    25    1
    27    27    26   ar
    28    28    27   ar
    29    29    28   ar
    30    30    29   ar
    31    31     4    1
    32    32     5    1
    33    33     9    2
    34    34     9    1
    35    35    10    1
    36    36    10    1
    37    38    11    1
    38    39    11    1
    39    40    14    1
    40    41    15    1
    41    42    16    1
    42    43    18    1
    43    44    19    1
    44    45    19    1
    45    46    20    1
    46    47    20    1
    47    48    21    1
    48    49    21    1
    49    50    22    1
    50    51    22    1
    51    52    23    1
    52    53    23    1
    53    54    24    1
    54    55    24    1
    55    56    25    1
    56    57    27    1
    57    58    28    1
    58    59    29    1
    59    60    32    1
    60    61    32    1
    61    62    32    1
    62    63    33    1
    63    64    34    1
    64    65    35    1
    65    66    36    1
    66    67    36    1
    67    68    36    1
    68    69     7    1
    69    16    17   ar
    70    17    18    1
    71    20    21    1
    72    23    24    1
    73    26    31   ar
    74    30    31   ar
    75    34    35    2
    76    70    71   ar
    77    71    72   ar
    78    72    73   ar
    79    73    74   ar
    80    74    75   ar
    81    75    70   ar
    82    76    77   ar
    83    77    78   ar
    84    78    79   ar
    85    79    80   ar
    86    80    81   ar
    87    81    76   ar
    88    82    83   ar
    89    83    84   ar
    90    84    85   ar
    91    85    86   ar
    92    86    87   ar
    93    87    82   ar
    94    88    89   ar
    95    89    90   ar
    96    90    91   ar
    97    91    92   ar
    98    92    93   ar
    99    93    88   ar
   100    94    70    1
   101    95    71    1
   102    96    72    1
   103    97    73    1
   104    98    74    1
   105    99    75    1
   106   100    77    1
   107   101    78    1
   108   102    79    1
   109   103    80    1
   110   104    81    1
   111   105    83    1
   112   106    84    1
   113   107    85    1
   114   108    86    1
   115   109    87    1
   116   110    89    1
   117   111    90    1
   118   112    91    1
   119   113    92    1
   120   114    93    1
   121    76    94    1
   122    82    94    1
   123    88    94    1
@<TRIPOS>SUBSTRUCTURE
     1 RES1        1 GROUP             0 ****  ****    0  
     2 RES2       70 GROUP             0 ****  ****    0  
@<TRIPOS>CRYSIN
   12.2270   12.3910   17.2040   78.2290   70.6500   68.7100     2     1
