@<TRIPOS>MOLECULE
KITCOF
   101   103     1     0     0
SMALL
NO_CHARGES
****
Generated from the CSD

@<TRIPOS>ATOM
     1 Fe1      2.3479   4.2626   4.4243   Fe        1 RES1   0.0000
     2 P1       1.8436   2.1412   4.2579   P.3       1 RES1   0.0000
     3 O1       2.6100   1.2733   5.3517   O.3       1 RES1   0.0000
     4 C1       2.7684  -0.1632   5.3072   C.3       1 RES1   0.0000
     5 C2       4.1944  -0.4500   4.9267   C.3       1 RES1   0.0000
     6 C3       2.3800  -0.7269   6.5969   C.3       1 RES1   0.0000
     7 O2       2.2985   1.4390   2.9073   O.3       1 RES1   0.0000
     8 C4       1.4572   0.8085   1.8992   C.3       1 RES1   0.0000
     9 C5       2.3333  -0.1904   1.1909   C.3       1 RES1   0.0000
    10 C6       0.9368   1.8667   0.9702   C.3       1 RES1   0.0000
    11 O3       0.3513   1.6343   4.2958   O.3       1 RES1   0.0000
    12 C7      -0.8171   2.1807   4.9201   C.3       1 RES1   0.0000
    13 C8      -1.1722   1.3005   6.0698   C.3       1 RES1   0.0000
    14 C9      -1.8929   2.2327   3.9038   C.3       1 RES1   0.0000
    15 P2       1.5321   4.7423   6.4306   P.3       1 RES1   0.0000
    16 O4       0.1028   5.4222   6.3087   O.3       1 RES1   0.0000
    17 C10     -0.7190   5.9365   7.4090   C.3       1 RES1   0.0000
    18 C11     -1.3779   7.1801   6.9033   C.3       1 RES1   0.0000
    19 C12     -1.7325   4.8832   7.8142   C.3       1 RES1   0.0000
    20 O5       1.3036   3.5011   7.4057   O.3       1 RES1   0.0000
    21 C13      1.6848   3.3403   8.7695   C.3       1 RES1   0.0000
    22 C14      0.8257   2.2524   9.3477   C.3       1 RES1   0.0000
    23 C15      3.1046   3.0412   8.9161   C.3       1 RES1   0.0000
    24 O6       2.3471   5.6744   7.4370   O.3       1 RES1   0.0000
    25 C16      3.1625   6.7895   7.0071   C.3       1 RES1   0.0000
    26 C17      2.4787   8.0752   7.3991   C.3       1 RES1   0.0000
    27 C18      4.5085   6.6560   7.5918   C.3       1 RES1   0.0000
    28 C19      3.8599   3.8620   5.1688   C.1       1 RES1   0.0000
    29 O7       4.8568   3.5925   5.6860   O.2       1 RES1   0.0000
    30 O8       0.5545   4.7917   3.5167   O.2       1 RES1   0.0000
    31 C20      0.6333   6.0230   3.3553   C.2       1 RES1   0.0000
    32 O9      -0.4428   6.7771   3.1757   O.3       1 RES1   0.0000
    33 C21     -1.7201   6.1170   3.2186   C.3       1 RES1   0.0000
    34 C22      1.8960   6.6733   3.3866   C.2       1 RES1   0.0000
    35 C23      2.2600   7.9615   3.7440   C.2       1 RES1   0.0000
    36 C24      3.6668   8.0134   3.8494   C.2       1 RES1   0.0000
    37 C25      4.4078   9.1829   4.3584   C.2       1 RES1   0.0000
    38 O10      3.9282  10.2188   4.6483   O.2       1 RES1   0.0000
    39 O11      5.7218   8.9331   4.4754   O.3       1 RES1   0.0000
    40 C26      6.5104   9.9889   5.0206   C.3       1 RES1   0.0000
    41 C27      4.1914   6.7573   3.5282   C.2       1 RES1   0.0000
    42 C28      3.1212   5.8821   3.2087   C.3       1 RES1   0.0000
    43 C29      3.1288   4.5543   2.5811   C.3       1 RES1   0.0000
    44 C30      4.4089   3.9609   2.2171   C.2       1 RES1   0.0000
    45 O12      5.5023   4.2304   2.6486   O.2       1 RES1   0.0000
    46 O13      4.2405   2.9967   1.2782   O.3       1 RES1   0.0000
    47 C31      5.3825   2.1931   0.9619   C.3       1 RES1   0.0000
    48 H1       2.2039  -0.5860   4.6566   H         1 RES1   0.0000
    49 H2       4.3346  -1.3970   4.8921   H         1 RES1   0.0000
    50 H3       4.7855  -0.0618   5.5757   H         1 RES1   0.0000
    51 H4       4.3717  -0.0668   4.0636   H         1 RES1   0.0000
    52 H5       2.4860  -1.6813   6.5772   H         1 RES1   0.0000
    53 H6       1.4612  -0.5118   6.7748   H         1 RES1   0.0000
    54 H7       2.9341  -0.3610   7.2887   H         1 RES1   0.0000
    55 H8       0.6916   0.3659   2.2698   H         1 RES1   0.0000
    56 H9       1.8266  -0.6379   0.5090   H         1 RES1   0.0000
    57 H10      2.6561  -0.8357   1.8251   H         1 RES1   0.0000
    58 H11      3.0784   0.2621   0.7890   H         1 RES1   0.0000
    59 H12      0.3823   1.4612   0.2998   H         1 RES1   0.0000
    60 H13      1.6753   2.3118   0.5469   H         1 RES1   0.0000
    61 H14      0.4225   2.5046   1.4676   H         1 RES1   0.0000
    62 H15     -0.6808   3.0708   5.2545   H         1 RES1   0.0000
    63 H16     -1.9557   1.6442   6.5063   H         1 RES1   0.0000
    64 H17     -0.4414   1.2808   6.6925   H         1 RES1   0.0000
    65 H18     -1.3458   0.4129   5.7519   H         1 RES1   0.0000
    66 H19     -2.6903   2.5961   4.2975   H         1 RES1   0.0000
    67 H20     -2.0690   1.3475   3.5793   H         1 RES1   0.0000
    68 H21     -1.6135   2.7915   3.1741   H         1 RES1   0.0000
    69 H22     -0.2040   6.1392   8.1930   H         1 RES1   0.0000
    70 H23     -1.9317   7.5560   7.5918   H         1 RES1   0.0000
    71 H24     -1.9186   6.9700   6.1390   H         1 RES1   0.0000
    72 H25     -0.7041   7.8156   6.6513   H         1 RES1   0.0000
    73 H26     -2.2736   5.2145   8.5340   H         1 RES1   0.0000
    74 H27     -1.2709   4.0895   8.0991   H         1 RES1   0.0000
    75 H28     -2.2926   4.6755   7.0631   H         1 RES1   0.0000
    76 H29      1.5574   4.1612   9.2489   H         1 RES1   0.0000
    77 H30      1.0589   2.1115  10.2685   H         1 RES1   0.0000
    78 H31      0.9597   1.4365   8.8568   H         1 RES1   0.0000
    79 H32     -0.0955   2.5170   9.2867   H         1 RES1   0.0000
    80 H33      3.3156   2.9373   9.8468   H         1 RES1   0.0000
    81 H34      3.6204   3.7607   8.5488   H         1 RES1   0.0000
    82 H35      3.3125   2.2277   8.4500   H         1 RES1   0.0000
    83 H36      3.2693   6.7969   6.0517   H         1 RES1   0.0000
    84 H37      3.0124   8.8219   7.1191   H         1 RES1   0.0000
    85 H38      2.3691   8.0999   8.3528   H         1 RES1   0.0000
    86 H39      1.6177   8.1222   6.9774   H         1 RES1   0.0000
    87 H40      5.0540   7.3928   7.3101   H         1 RES1   0.0000
    88 H41      4.9069   5.8326   7.2986   H         1 RES1   0.0000
    89 H42      4.4417   6.6535   8.5488   H         1 RES1   0.0000
    90 H43     -2.4198   6.7598   3.0769   H         1 RES1   0.0000
    91 H44     -1.8354   5.7016   4.0767   H         1 RES1   0.0000
    92 H45     -1.7576   5.4469   2.5317   H         1 RES1   0.0000
    93 H46      1.6616   8.6958   3.9021   H         1 RES1   0.0000
    94 H47      7.4288   9.7145   5.0634   H         1 RES1   0.0000
    95 H48      6.1977  10.1966   5.9051   H         1 RES1   0.0000
    96 H49      6.4332  10.7677   4.4638   H         1 RES1   0.0000
    97 H50      5.1251   6.5323   3.5299   H         1 RES1   0.0000
    98 H51      2.4743   4.4777   1.8827   H         1 RES1   0.0000
    99 H52      5.1443   1.5503   0.2899   H         1 RES1   0.0000
   100 H53      5.6787   1.7332   1.7526   H         1 RES1   0.0000
   101 H54      6.0887   2.7519   0.6325   H         1 RES1   0.0000
@<TRIPOS>BOND
     1     1     2    1
     2     2     3    1
     3     3     4    1
     4     4     5    1
     5     5    49    1
     6     6     4    1
     7     7     2    1
     8     8     7    1
     9     9     8    1
    10    10     8    1
    11    11     2    1
    12    12    11    1
    13    13    12    1
    14    14    12    1
    15    15     1    1
    16    16    15    1
    17    17    16    1
    18    18    17    1
    19    19    17    1
    20    20    15    1
    21    21    20    1
    22    22    21    1
    23    23    21    1
    24    24    15    1
    25    25    24    1
    26    26    25    1
    27    27    25    1
    28    28     1    1
    29    29    28    3
    30    30     1    1
    31    31    30    2
    32    32    31    1
    33    33    32    1
    34    34    31    1
    35    35    34    2
    36    36    35    1
    37    37    36    1
    38    38    37    2
    39    39    37    1
    40    40    39    1
    41    41    36    2
    42    42     1    1
    43    43     1    1
    44    44    43    1
    45    45    44    2
    46    46    44    1
    47    47    46    1
    48    48     4    1
    49    50     5    1
    50    51     5    1
    51    52     6    1
    52    53     6    1
    53    54     6    1
    54    55     8    1
    55    56     9    1
    56    57     9    1
    57    58     9    1
    58    59    10    1
    59    60    10    1
    60    61    10    1
    61    62    12    1
    62    63    13    1
    63    64    13    1
    64    65    13    1
    65    66    14    1
    66    67    14    1
    67    68    14    1
    68    69    17    1
    69    70    18    1
    70    71    18    1
    71    72    18    1
    72    73    19    1
    73    74    19    1
    74    75    19    1
    75    76    21    1
    76    77    22    1
    77    78    22    1
    78    79    22    1
    79    80    23    1
    80    81    23    1
    81    82    23    1
    82    83    25    1
    83    84    26    1
    84    85    26    1
    85    86    26    1
    86    87    27    1
    87    88    27    1
    88    89    27    1
    89    90    33    1
    90    91    33    1
    91    92    33    1
    92    93    35    1
    93    94    40    1
    94    95    40    1
    95    96    40    1
    96    97    41    1
    97    98    43    1
    98    99    47    1
    99   100    47    1
   100   101    47    1
   101    34    42    1
   102    41    42    1
   103    42    43    1
@<TRIPOS>SUBSTRUCTURE
     1 RES1        1 GROUP             0 ****  ****    0  
@<TRIPOS>CRYSIN
    9.7890   24.7250   16.5050   90.0000   93.6400   90.0000   231     1
