@<TRIPOS>MOLECULE
KITFAV
    98   106     4     0     0
SMALL
USER_CHARGES
****
Generated from the CSD

@<TRIPOS>ATOM
     1 Fe1      4.3523   3.6494   4.9835   Fe        1 RES1   2.0000
     2 N1       6.1351   2.7914   4.8671   N.ar      1 RES1   0.0000
     3 N2       4.2573   2.9903   3.2191   N.ar      1 RES1   0.0000
     4 N3       2.5500   4.3043   4.5027   N.ar      1 RES1   0.0000
     5 N4       5.1713   5.3867   4.5554   N.ar      1 RES1   0.0000
     6 N5       4.3969   4.3910   6.7086   N.ar      1 RES1   0.0000
     7 N6       3.5962   2.1377   5.9943   N.ar      1 RES1   0.0000
     8 N7       5.2716   0.9367  -2.8398   N.ar      1 RES1   0.0000
     9 N8       3.1138   6.6205  12.6176   N.ar      1 RES1   0.0000
    10 C1       7.0884   2.7608   5.8063   C.ar      1 RES1   0.0000
    11 C2       8.3368   2.2086   5.5881   C.ar      1 RES1   0.0000
    12 C3       8.6269   1.6689   4.3568   C.ar      1 RES1   0.0000
    13 C4       7.6493   1.6733   3.3664   C.ar      1 RES1   0.0000
    14 C5       6.4203   2.2411   3.6414   C.ar      1 RES1   0.0000
    15 C6       5.3207   2.3661   2.6754   C.ar      1 RES1   0.0000
    16 C7       5.3179   1.9913   1.3382   C.ar      1 RES1   0.0000
    17 C8       4.1959   2.2442   0.5403   C.ar      1 RES1   0.0000
    18 C9       3.1078   2.8792   1.1400   C.ar      1 RES1   0.0000
    19 C10      3.1686   3.2497   2.4735   C.ar      1 RES1   0.0000
    20 C11      2.1586   4.0141   3.2307   C.ar      1 RES1   0.0000
    21 C12      0.9431   4.4222   2.7210   C.ar      1 RES1   0.0000
    22 C13      0.0963   5.1691   3.5270   C.ar      1 RES1   0.0000
    23 C14      0.4855   5.4613   4.8132   C.ar      1 RES1   0.0000
    24 C15      1.7094   5.0167   5.2689   C.ar      1 RES1   0.0000
    25 C16      5.5905   5.8024   3.3430   C.ar      1 RES1   0.0000
    26 C17      6.1715   7.0398   3.1440   C.ar      1 RES1   0.0000
    27 C18      6.3313   7.8950   4.2245   C.ar      1 RES1   0.0000
    28 C19      5.9044   7.4776   5.4842   C.ar      1 RES1   0.0000
    29 C20      5.3422   6.2246   5.6202   C.ar      1 RES1   0.0000
    30 C21      4.8698   5.6343   6.8888   C.ar      1 RES1   0.0000
    31 C22      4.8656   6.2370   8.1379   C.ar      1 RES1   0.0000
    32 C23      4.3134   5.5469   9.2254   C.ar      1 RES1   0.0000
    33 C24      3.7993   4.2685   9.0162   C.ar      1 RES1   0.0000
    34 C25      3.8680   3.7061   7.7442   C.ar      1 RES1   0.0000
    35 C26      3.4208   2.3760   7.3244   C.ar      1 RES1   0.0000
    36 C27      2.8998   1.4162   8.1754   C.ar      1 RES1   0.0000
    37 C28      2.5993   0.1567   7.6817   C.ar      1 RES1   0.0000
    38 C29      2.8193  -0.0968   6.3421   C.ar      1 RES1   0.0000
    39 C30      3.2910   0.9153   5.5221   C.ar      1 RES1   0.0000
    40 C31      4.1712   1.8988  -0.9108   C.ar      1 RES1   0.0000
    41 C32      3.0667   2.1872  -1.7110   C.ar      1 RES1   0.0000
    42 C33      3.0888   1.8593  -3.0492   C.ar      1 RES1   0.0000
    43 C34      4.2021   1.2437  -3.5631   C.ar      1 RES1   0.0000
    44 C35      5.2402   1.2673  -1.5426   C.ar      1 RES1   0.0000
    45 C36      4.2940   6.1826  10.5665   C.ar      1 RES1   0.0000
    46 C37      3.1852   6.0721  11.3999   C.ar      1 RES1   0.0000
    47 C38      4.1798   7.2960  13.0373   C.ar      1 RES1   0.0000
    48 C39      5.3035   7.4920  12.2846   C.ar      1 RES1   0.0000
    49 C40      5.3682   6.9287  11.0189   C.ar      1 RES1   0.0000
    50 H1       6.8636   3.1455   6.6494   H         1 RES1   0.0000
    51 H2       8.9876   2.2054   6.2806   H         1 RES1   0.0000
    52 H3       9.4894   1.2882   4.1822   H         1 RES1   0.0000
    53 H4       7.8119   1.3022   2.5026   H         1 RES1   0.0000
    54 H5       6.0699   1.5534   0.9773   H         1 RES1   0.0000
    55 H6       2.3244   3.0579   0.6460   H         1 RES1   0.0000
    56 H7       0.6998   4.1931   1.8254   H         1 RES1   0.0000
    57 H8      -0.7482   5.4668   3.1882   H         1 RES1   0.0000
    58 H9      -0.0898   5.9595   5.3929   H         1 RES1   0.0000
    59 H10      1.9848   5.2017   6.1660   H         1 RES1   0.0000
    60 H11      5.4709   5.1867   2.6110   H         1 RES1   0.0000
    61 H12      6.4652   7.2866   2.2630   H         1 RES1   0.0000
    62 H13      6.7285   8.7566   4.1176   H         1 RES1   0.0000
    63 H14      5.9878   8.0591   6.2452   H         1 RES1   0.0000
    64 H15      5.2221   7.1166   8.2602   H         1 RES1   0.0000
    65 H16      3.4070   3.7824   9.7293   H         1 RES1   0.0000
    66 H17      2.7641   1.6279   9.0979   H         1 RES1   0.0000
    67 H18      2.2714  -0.5228   8.2560   H         1 RES1   0.0000
    68 H19      2.6469  -0.9572   5.9680   H         1 RES1   0.0000
    69 H20      3.4232   0.7651   4.5844   H         1 RES1   0.0000
    70 H21      2.3020   2.6007  -1.3295   H         1 RES1   0.0000
    71 H22      2.3416   2.0513  -3.6112   H         1 RES1   0.0000
    72 H23      4.2316   1.0113  -4.4843   H         1 RES1   0.0000
    73 H24      6.0031   1.0420  -1.0148   H         1 RES1   0.0000
    74 H25      2.4329   5.5875  11.0879   H         1 RES1   0.0000
    75 H26      4.1174   7.6625  13.9136   H         1 RES1   0.0000
    76 H27      6.0201   8.0088  12.6174   H         1 RES1   0.0000
    77 H28      6.1368   7.0459  10.4690   H         1 RES1   0.0000
    78 P1      -0.4640   5.6178   8.6484   P.3       2 RES2  -1.0000
    79 F1      -0.2735   4.3801   7.6890   F         2 RES2   0.0000
    80 F2      -0.5977   6.8361   9.6520   F         2 RES2   0.0000
    81 F3       0.4148   4.8569   9.7480   F         2 RES2   0.0000
    82 F4      -1.3410   6.3360   7.5565   F         2 RES2   0.0000
    83 F5      -1.7468   4.9437   9.3048   F         2 RES2   0.0000
    84 F6       0.8232   6.2884   8.0062   F         2 RES2   0.0000
    85 P2       7.5668   4.8781   0.0000   P.3       3 RES3  -1.0000
    86 F7       6.0322   5.2625   0.3063   F         3 RES3   0.0000
    87 F8       7.0788   3.5826  -0.7981   F         3 RES3   0.0000
    88 F9       7.5164   5.7248  -1.3570   F         3 RES3   0.0000
    89 F7A      9.1013   4.4937  -0.3063   F         3 RES3   0.0000
    90 F8A      8.0548   6.1735   0.7981   F         3 RES3   0.0000
    91 F9A      7.6171   4.0313   1.3570   F         3 RES3   0.0000
    92 P3       0.0000   0.0000   0.0000   P.3       4 RES4  -1.0000
    93 F10     -1.5512   0.1229   0.3592   F         4 RES4   0.0000
    94 F11      0.3625  -0.0200   1.5566   F         4 RES4   0.0000
    95 F12      0.1194   1.5867   0.0088   F         4 RES4   0.0000
    96 F10A     1.5512  -0.1229  -0.3592   F         4 RES4   0.0000
    97 F11A    -0.3625   0.0200  -1.5566   F         4 RES4   0.0000
    98 F12A    -0.1194  -1.5867  -0.0088   F         4 RES4   0.0000
@<TRIPOS>BOND
     1     1     2    1
     2     2    10   ar
     3     3     1    1
     4     4     1    1
     5     5     1    1
     6     6     1    1
     7     7     1    1
     8     8    43   ar
     9     9    46   ar
    10    10    11   ar
    11    11    12   ar
    12    12    13   ar
    13    13    14   ar
    14    14     2   ar
    15    15     3   ar
    16    16    15   ar
    17    17    16   ar
    18    18    17   ar
    19    19     3   ar
    20    20     4   ar
    21    21    20   ar
    22    22    21   ar
    23    23    22   ar
    24    24     4   ar
    25    25     5   ar
    26    26    25   ar
    27    27    26   ar
    28    28    27   ar
    29    29     5   ar
    30    30     6   ar
    31    31    30   ar
    32    32    31   ar
    33    33    32   ar
    34    34     6   ar
    35    35     7   ar
    36    36    35   ar
    37    37    36   ar
    38    38    37   ar
    39    39     7   ar
    40    40    17    1
    41    41    40   ar
    42    42    41   ar
    43    43    42   ar
    44    44     8   ar
    45    45    32    1
    46    46    45   ar
    47    47     9   ar
    48    48    47   ar
    49    49    45   ar
    50    50    10    1
    51    51    11    1
    52    52    12    1
    53    53    13    1
    54    54    16    1
    55    55    18    1
    56    56    21    1
    57    57    22    1
    58    58    23    1
    59    59    24    1
    60    60    25    1
    61    61    26    1
    62    62    27    1
    63    63    28    1
    64    64    31    1
    65    65    33    1
    66    66    36    1
    67    67    37    1
    68    68    38    1
    69    69    39    1
    70    70    41    1
    71    71    42    1
    72    72    43    1
    73    73    44    1
    74    74    46    1
    75    75    47    1
    76    76    48    1
    77    77    49    1
    78    14    15    1
    79    18    19   ar
    80    19    20    1
    81    23    24   ar
    82    28    29   ar
    83    29    30    1
    84    33    34   ar
    85    34    35    1
    86    38    39   ar
    87    40    44   ar
    88    48    49   ar
    89    78    79    1
    90    80    78    1
    91    81    78    1
    92    82    78    1
    93    83    78    1
    94    84    78    1
    95    85    86    1
    96    87    85    1
    97    88    85    1
    98    89    85    1
    99    90    85    1
   100    91    85    1
   101    92    93    1
   102    94    92    1
   103    95    92    1
   104    96    92    1
   105    97    92    1
   106    98    92    1
@<TRIPOS>SUBSTRUCTURE
     1 RES1        1 GROUP             0 ****  ****    0  
     2 RES2       78 GROUP             0 ****  ****    0  
     3 RES3       85 GROUP             0 ****  ****    0  
     4 RES4       92 GROUP             0 ****  ****    0  
@<TRIPOS>CRYSIN
    9.3867   10.4130   21.3789   93.6804  100.2623  110.4597     2     1
