@<TRIPOS>MOLECULE
KITYOB01
   114   121     2     0     0
SMALL
USER_CHARGES
****
Generated from the CSD

@<TRIPOS>ATOM
     1 Fe1      3.2830   0.1332   2.1190   Fe        1 RES1   1.0000
     2 O1       1.9653   0.7043   0.8687   O.2       1 RES1   0.0000
     3 O2       2.0092   0.5155   3.4858   O.2       1 RES1   0.0000
     4 N1       4.6351  -0.0873   0.7796   N.2       1 RES1   0.0000
     5 N2       4.5747  -0.5803   3.3439   N.2       1 RES1   0.0000
     6 N3       3.8965   2.0564   2.3928   N.ar      1 RES1   0.0000
     7 N4       2.5456  -1.7451   1.8672   N.ar      1 RES1   0.0000
     8 C1       2.1049   0.7747  -0.4113   C.2       1 RES1   0.0000
     9 C2       3.2920   0.5578  -1.0897   C.2       1 RES1   0.0000
    10 C3       4.5255   0.1803  -0.5102   C.2       1 RES1   0.0000
    11 C4       5.9515  -0.3930   1.3690   C.3       1 RES1   0.0000
    12 C5       5.7097  -1.1930   2.6325   C.3       1 RES1   0.0000
    13 C6       4.4429  -0.7169   4.6525   C.2       1 RES1   0.0000
    14 C7       3.3333  -0.1521   5.3365   C.2       1 RES1   0.0000
    15 C8       2.2466   0.4676   4.7537   C.2       1 RES1   0.0000
    16 C9       0.8635   1.1522  -1.1678   C.3       1 RES1   0.0000
    17 C10      5.7114   0.0606  -1.4273   C.3       1 RES1   0.0000
    18 C11      5.4808  -1.4409   5.4728   C.3       1 RES1   0.0000
    19 C12      1.2252   1.1705   5.6169   C.3       1 RES1   0.0000
    20 C13      3.5242   3.0170   1.5340   C.ar      1 RES1   0.0000
    21 C14      3.7337   4.3734   1.7462   C.ar      1 RES1   0.0000
    22 C15      4.3548   4.7635   2.9415   C.ar      1 RES1   0.0000
    23 C16      4.7630   3.7663   3.8047   C.ar      1 RES1   0.0000
    24 C17      4.5162   2.4494   3.5111   C.ar      1 RES1   0.0000
    25 C18      3.2813   5.3650   0.7170   C.3       1 RES1   0.0000
    26 C19      4.5902   6.2157   3.2505   C.3       1 RES1   0.0000
    27 C20      1.8932  -2.3761   2.8557   C.ar      1 RES1   0.0000
    28 C21      1.2419  -3.5903   2.7117   C.ar      1 RES1   0.0000
    29 C22      1.2649  -4.2001   1.4438   C.ar      1 RES1   0.0000
    30 C23      1.9484  -3.5635   0.4267   C.ar      1 RES1   0.0000
    31 C24      2.5704  -2.3564   0.6554   C.ar      1 RES1   0.0000
    32 C25      0.5033  -4.1987   3.8674   C.3       1 RES1   0.0000
    33 C26      0.5573  -5.5086   1.2019   C.3       1 RES1   0.0000
    34 H1       3.2780   0.6902  -2.0013   H         1 RES1   0.0000
    35 H2       6.5253  -0.8733   0.7477   H         1 RES1   0.0000
    36 H3       6.3993   0.4366   1.5835   H         1 RES1   0.0000
    37 H4       6.5091  -1.2254   3.1669   H         1 RES1   0.0000
    38 H5       5.4423  -2.1268   2.4082   H         1 RES1   0.0000
    39 H6       3.4046  -0.1972   6.2898   H         1 RES1   0.0000
    40 H7       1.0888   1.5353  -1.9793   H         1 RES1   0.0000
    41 H8       0.4270   1.7888  -0.6268   H         1 RES1   0.0000
    42 H9       0.2729   0.3240  -1.2976   H         1 RES1   0.0000
    43 H10      6.4753   0.5352  -1.0776   H         1 RES1   0.0000
    44 H11      5.5285   0.4085  -2.3422   H         1 RES1   0.0000
    45 H12      5.9572  -0.8592  -1.5395   H         1 RES1   0.0000
    46 H13      5.2305  -1.4367   6.4438   H         1 RES1   0.0000
    47 H14      5.6136  -2.3522   5.1792   H         1 RES1   0.0000
    48 H15      6.3577  -1.0423   5.3991   H         1 RES1   0.0000
    49 H16      0.3481   1.1268   5.2452   H         1 RES1   0.0000
    50 H17      1.4221   2.1128   5.6081   H         1 RES1   0.0000
    51 H18      1.2116   0.8592   6.5207   H         1 RES1   0.0000
    52 H19      3.0914   2.7466   0.6488   H         1 RES1   0.0000
    53 H20      5.2072   3.9861   4.6734   H         1 RES1   0.0000
    54 H21      4.8018   1.7747   4.1126   H         1 RES1   0.0000
    55 H22      2.5833   6.0425   1.1656   H         1 RES1   0.0000
    56 H23      4.0107   5.9157   0.3739   H         1 RES1   0.0000
    57 H24      2.7430   4.8312   0.0000   H         1 RES1   0.0000
    58 H25      3.6830   6.7326   3.1669   H         1 RES1   0.0000
    59 H26      4.9405   6.3664   4.1016   H         1 RES1   0.0000
    60 H27      5.1080   6.5777   2.5071   H         1 RES1   0.0000
    61 H28      1.8722  -1.9860   3.7057   H         1 RES1   0.0000
    62 H29      1.9192  -3.9861  -0.4069   H         1 RES1   0.0000
    63 H30      3.0765  -1.8874  -0.0550   H         1 RES1   0.0000
    64 H31     -0.4273  -4.2255   3.6947   H         1 RES1   0.0000
    65 H32      0.5799  -3.6621   4.6844   H         1 RES1   0.0000
    66 H33      0.8132  -5.1692   4.0466   H         1 RES1   0.0000
    67 H34     -0.4144  -5.4509   1.4625   H         1 RES1   0.0000
    68 H35      0.9093  -6.1833   1.8034   H         1 RES1   0.0000
    69 H36      0.6323  -5.7749   0.2749   H         1 RES1   0.0000
    70 B1       9.8728   1.4508   3.4693   B         2 RES2  -1.0000
    71 C27      9.0828   1.8170   4.8614   C.ar      2 RES2   0.0000
    72 C28      9.6939   2.3592   5.9951   C.ar      2 RES2   0.0000
    73 C29      8.9992   2.5860   7.1772   C.ar      2 RES2   0.0000
    74 C30      7.6484   2.3001   7.2586   C.ar      2 RES2   0.0000
    75 C31      7.0032   1.7508   6.1656   C.ar      2 RES2   0.0000
    76 C32      7.7226   1.4986   5.0022   C.ar      2 RES2   0.0000
    77 C33      9.0123   1.9846   2.1805   C.ar      2 RES2   0.0000
    78 C34      9.3490   1.5803   0.8819   C.ar      2 RES2   0.0000
    79 C35      8.6989   2.0423  -0.2474   C.ar      2 RES2   0.0000
    80 C36      7.6605   2.9522  -0.1254   C.ar      2 RES2   0.0000
    81 C37      7.3135   3.4058   1.1337   C.ar      2 RES2   0.0000
    82 C38      7.9830   2.9283   2.2564   C.ar      2 RES2   0.0000
    83 C39     11.3213   2.2311   3.3483   C.ar      2 RES2   0.0000
    84 C40     11.3593   3.6410   3.3868   C.ar      2 RES2   0.0000
    85 C41     12.5267   4.3607   3.1834   C.ar      2 RES2   0.0000
    86 C42     13.7200   3.7114   2.9294   C.ar      2 RES2   0.0000
    87 C43     13.7233   2.3325   2.8986   C.ar      2 RES2   0.0000
    88 C44     12.5422   1.6113   3.0954   C.ar      2 RES2   0.0000
    89 C45     10.0326  -0.1859   3.5188   C.ar      2 RES2   0.0000
    90 C46     10.8150  -0.7719   4.5238   C.ar      2 RES2   0.0000
    91 C47     10.9172  -2.1480   4.6965   C.ar      2 RES2   0.0000
    92 C48     10.2287  -3.0015   3.8531   C.ar      2 RES2   0.0000
    93 C49      9.4517  -2.4649   2.8524   C.ar      2 RES2   0.0000
    94 C50      9.3577  -1.0789   2.6908   C.ar      2 RES2   0.0000
    95 H37     10.6423   2.6057   5.9489   H         2 RES2   0.0000
    96 H38      9.4150   2.9579   7.9283   H         2 RES2   0.0000
    97 H39      7.1958   2.4790   8.0712   H         2 RES2   0.0000
    98 H40      6.0661   1.5634   6.2019   H         2 RES2   0.0000
    99 H41      7.2651   1.0845   4.2555   H         2 RES2   0.0000
   100 H42     10.0716   0.9578   0.7587   H         2 RES2   0.0000
   101 H43      8.9974   1.7325  -1.1216   H         2 RES2   0.0000
   102 H44      7.1646   3.3241  -0.8907   H         2 RES2   0.0000
   103 H45      6.6002   4.0424   1.1986   H         2 RES2   0.0000
   104 H46      7.7011   3.2396   3.1339   H         2 RES2   0.0000
   105 H47     10.5202   4.0987   3.5188   H         2 RES2   0.0000
   106 H48     12.5205   5.2960   3.2219   H         2 RES2   0.0000
   107 H49     14.5517   4.2396   2.7490   H         2 RES2   0.0000
   108 H50     14.5519   1.8451   2.7381   H         2 RES2   0.0000
   109 H51     12.6070   0.6620   3.0349   H         2 RES2   0.0000
   110 H52     11.3500  -0.1831   5.1242   H         2 RES2   0.0000
   111 H53     11.4554  -2.4930   5.4211   H         2 RES2   0.0000
   112 H54     10.2902  -3.9438   3.9806   H         2 RES2   0.0000
   113 H55      8.9910  -3.0001   2.2872   H         2 RES2   0.0000
   114 H56      8.8028  -0.7606   1.9683   H         2 RES2   0.0000
@<TRIPOS>BOND
     1     1     2    1
     2     2     8    2
     3     3     1    1
     4     4     1    1
     5     5     1    1
     6     6     1    1
     7     7     1    1
     8     8     9    1
     9     9    10    2
    10    10     4    1
    11    11     4    1
    12    12     5    1
    13    13     5    1
    14    14    13    2
    15    15     3    2
    16    16     8    1
    17    17    10    1
    18    18    13    1
    19    19    15    1
    20    20     6   ar
    21    21    20   ar
    22    22    21   ar
    23    23    22   ar
    24    24     6   ar
    25    25    21    1
    26    26    22    1
    27    27     7   ar
    28    28    27   ar
    29    29    28   ar
    30    30    29   ar
    31    31     7   ar
    32    32    28    1
    33    33    29    1
    34    34     9    1
    35    35    11    1
    36    36    11    1
    37    37    12    1
    38    38    12    1
    39    39    14    1
    40    40    16    1
    41    41    16    1
    42    42    16    1
    43    43    17    1
    44    44    17    1
    45    45    17    1
    46    46    18    1
    47    47    18    1
    48    48    18    1
    49    49    19    1
    50    50    19    1
    51    51    19    1
    52    52    20    1
    53    53    23    1
    54    54    24    1
    55    55    25    1
    56    56    25    1
    57    57    25    1
    58    58    26    1
    59    59    26    1
    60    60    26    1
    61    61    27    1
    62    62    30    1
    63    63    31    1
    64    64    32    1
    65    65    32    1
    66    66    32    1
    67    67    33    1
    68    68    33    1
    69    69    33    1
    70    11    12    1
    71    14    15    1
    72    23    24   ar
    73    30    31   ar
    74    70    71    1
    75    71    72   ar
    76    72    73   ar
    77    73    74   ar
    78    74    75   ar
    79    75    76   ar
    80    76    71   ar
    81    77    70    1
    82    78    77   ar
    83    79    78   ar
    84    80    79   ar
    85    81    80   ar
    86    82    77   ar
    87    83    70    1
    88    84    83   ar
    89    85    84   ar
    90    86    85   ar
    91    87    86   ar
    92    88    83   ar
    93    89    70    1
    94    90    89   ar
    95    91    90   ar
    96    92    91   ar
    97    93    92   ar
    98    94    89   ar
    99    95    72    1
   100    96    73    1
   101    97    74    1
   102    98    75    1
   103    99    76    1
   104   100    78    1
   105   101    79    1
   106   102    80    1
   107   103    81    1
   108   104    82    1
   109   105    84    1
   110   106    85    1
   111   107    86    1
   112   108    87    1
   113   109    88    1
   114   110    90    1
   115   111    91    1
   116   112    92    1
   117   113    93    1
   118   114    94    1
   119    81    82   ar
   120    87    88   ar
   121    93    94   ar
@<TRIPOS>SUBSTRUCTURE
     1 RES1        1 GROUP             0 ****  ****    0  
     2 RES2       70 GROUP             0 ****  ****    0  
@<TRIPOS>CRYSIN
   27.7070   14.0850   10.9980   90.0000   91.0400   90.0000    14     2
