@<TRIPOS>MOLECULE
KITYOE
    75    82     1     0     0
SMALL
NO_CHARGES
****
Generated from the CSD

@<TRIPOS>ATOM
     1 Fe1      5.3572   8.4534   3.9672   Fe        1 RES1   0.0000
     2 Cl1      6.9474   9.0041   5.5795   Cl        1 RES1   0.0000
     3 Cl2      6.6474   8.7683   1.9119   Cl        1 RES1   0.0000
     4 P1       5.7188   5.8709   3.8363   P.3       1 RES1   0.0000
     5 P2       4.3796  10.7280   3.5666   P.3       1 RES1   0.0000
     6 N1       3.5314   7.8680   2.6511   N.3       1 RES1   0.0000
     7 N2       3.7860   7.8395   5.4247   N.ar      1 RES1   0.0000
     8 C1       4.2419   5.4615   2.7866   C.3       1 RES1   0.0000
     9 H1       4.4438   4.6696   2.2277   H         1 RES1   0.0000
    10 H2       3.4745   5.2368   3.3705   H         1 RES1   0.0000
    11 C2       3.8679   6.6395   1.8846   C.3       1 RES1   0.0000
    12 H3       4.6259   6.8354   1.2785   H         1 RES1   0.0000
    13 H4       3.0915   6.3852   1.3260   H         1 RES1   0.0000
    14 C3       3.2631   8.9674   1.6816   C.3       1 RES1   0.0000
    15 H5       2.4531   8.7410   1.1599   H         1 RES1   0.0000
    16 H6       4.0217   9.0247   1.0478   H         1 RES1   0.0000
    17 C4       3.0623  10.3343   2.3272   C.3       1 RES1   0.0000
    18 H7       2.1795  10.3548   2.7744   H         1 RES1   0.0000
    19 H8       3.0621  11.0291   1.6222   H         1 RES1   0.0000
    20 C5       2.3297   7.6124   3.4975   C.3       1 RES1   0.0000
    21 H9       1.8089   6.8694   3.1030   H         1 RES1   0.0000
    22 H10      1.7561   8.4196   3.4952   H         1 RES1   0.0000
    23 C6       2.6819   7.2669   4.9112   C.ar      1 RES1   0.0000
    24 C7       1.8602   6.4588   5.6762   C.ar      1 RES1   0.0000
    25 H11      1.1012   6.0438   5.2840   H         1 RES1   0.0000
    26 C8       2.1476   6.2574   7.0109   C.ar      1 RES1   0.0000
    27 H12      1.6025   5.6893   7.5432   H         1 RES1   0.0000
    28 C9       3.2363   6.8931   7.5539   C.ar      1 RES1   0.0000
    29 H13      3.4386   6.8019   8.4776   H         1 RES1   0.0000
    30 C10      4.0277   7.6625   6.7369   C.ar      1 RES1   0.0000
    31 H14      4.7845   8.0923   7.1176   H         1 RES1   0.0000
    32 C11      5.5041   4.9029   5.3593   C.ar      1 RES1   0.0000
    33 C12      4.7702   3.7228   5.4416   C.ar      1 RES1   0.0000
    34 H15      4.3387   3.3838   4.6660   H         1 RES1   0.0000
    35 C13      4.6601   3.0386   6.6373   C.ar      1 RES1   0.0000
    36 H16      4.1468   2.2403   6.6779   H         1 RES1   0.0000
    37 C14      5.2912   3.5081   7.7721   C.ar      1 RES1   0.0000
    38 H17      5.2089   3.0371   8.5930   H         1 RES1   0.0000
    39 C15      6.0426   4.6662   7.7088   C.ar      1 RES1   0.0000
    40 H18      6.4955   4.9827   8.4817   H         1 RES1   0.0000
    41 C16      6.1353   5.3634   6.5171   C.ar      1 RES1   0.0000
    42 H19      6.6366   6.1699   6.4859   H         1 RES1   0.0000
    43 C17      7.0403   4.9508   2.9696   C.ar      1 RES1   0.0000
    44 C18      7.3357   5.3073   1.6542   C.ar      1 RES1   0.0000
    45 H20      6.8646   6.0245   1.2465   H         1 RES1   0.0000
    46 C19      8.3023   4.6318   0.9359   C.ar      1 RES1   0.0000
    47 H21      8.4886   4.8850   0.0393   H         1 RES1   0.0000
    48 C20      9.0027   3.5857   1.5183   C.ar      1 RES1   0.0000
    49 H22      9.6549   3.1096   1.0184   H         1 RES1   0.0000
    50 C21      8.7451   3.2437   2.8265   C.ar      1 RES1   0.0000
    51 H23      9.2421   2.5459   3.2373   H         1 RES1   0.0000
    52 C22      7.7641   3.9094   3.5512   C.ar      1 RES1   0.0000
    53 H24      7.5848   3.6544   4.4485   H         1 RES1   0.0000
    54 C23      3.4580  11.6846   4.8281   C.ar      1 RES1   0.0000
    55 C24      2.3484  11.0939   5.4555   C.ar      1 RES1   0.0000
    56 H25      2.0911  10.2114   5.2181   H         1 RES1   0.0000
    57 C25      1.6304  11.7768   6.4087   C.ar      1 RES1   0.0000
    58 H26      0.8761  11.3665   6.8144   H         1 RES1   0.0000
    59 C26      1.9966  13.0536   6.7807   C.ar      1 RES1   0.0000
    60 H27      1.4910  13.5268   7.4313   H         1 RES1   0.0000
    61 C27      3.1063  13.6409   6.1981   C.ar      1 RES1   0.0000
    62 H28      3.3697  14.5149   6.4606   H         1 RES1   0.0000
    63 C28      3.8354  12.9633   5.2348   C.ar      1 RES1   0.0000
    64 H29      4.5999  13.3734   4.8480   H         1 RES1   0.0000
    65 C29      5.4966  11.9674   2.8275   C.ar      1 RES1   0.0000
    66 C30      6.7547  12.0942   3.4208   C.ar      1 RES1   0.0000
    67 H30      6.9916  11.5338   4.1500   H         1 RES1   0.0000
    68 C31      7.6603  13.0360   2.9508   C.ar      1 RES1   0.0000
    69 H31      8.5012  13.1382   3.3810   H         1 RES1   0.0000
    70 C32      7.3445  13.8225   1.8619   C.ar      1 RES1   0.0000
    71 H32      7.9743  14.4520   1.5294   H         1 RES1   0.0000
    72 C33      6.1091  13.6922   1.2572   C.ar      1 RES1   0.0000
    73 H33      5.8893  14.2276   0.5041   H         1 RES1   0.0000
    74 C34      5.1908  12.7793   1.7487   C.ar      1 RES1   0.0000
    75 H34      4.3364  12.7092   1.3388   H         1 RES1   0.0000
@<TRIPOS>BOND
     1     1     2    1
     2     3     1    1
     3     4     1    1
     4     5     1    1
     5     6     1    1
     6     7     1    1
     7     8     4    1
     8     9     8    1
     9    10     8    1
    10    11     6    1
    11    12    11    1
    12    13    11    1
    13    14     6    1
    14    15    14    1
    15    16    14    1
    16    17     5    1
    17    18    17    1
    18    19    17    1
    19    20     6    1
    20    21    20    1
    21    22    20    1
    22    23     7   ar
    23    24    23   ar
    24    25    24    1
    25    26    24   ar
    26    27    26    1
    27    28    26   ar
    28    29    28    1
    29    30     7   ar
    30    31    30    1
    31    32     4    1
    32    33    32   ar
    33    34    33    1
    34    35    33   ar
    35    36    35    1
    36    37    35   ar
    37    38    37    1
    38    39    37   ar
    39    40    39    1
    40    41    32   ar
    41    42    41    1
    42    43     4    1
    43    44    43   ar
    44    45    44    1
    45    46    44   ar
    46    47    46    1
    47    48    46   ar
    48    49    48    1
    49    50    48   ar
    50    51    50    1
    51    52    43   ar
    52    53    52    1
    53    54     5    1
    54    55    54   ar
    55    56    55    1
    56    57    55   ar
    57    58    57    1
    58    59    57   ar
    59    60    59    1
    60    61    59   ar
    61    62    61    1
    62    63    54   ar
    63    64    63    1
    64    65     5    1
    65    66    65   ar
    66    67    66    1
    67    68    66   ar
    68    69    68    1
    69    70    68   ar
    70    71    70    1
    71    72    70   ar
    72    73    72    1
    73    74    65   ar
    74    75    74    1
    75     8    11    1
    76    14    17    1
    77    20    23    1
    78    28    30   ar
    79    39    41   ar
    80    50    52   ar
    81    61    63   ar
    82    72    74   ar
@<TRIPOS>SUBSTRUCTURE
     1 RES1        1 GROUP             0 ****  ****    0  
@<TRIPOS>CRYSIN
    7.5780   12.4245   16.9432   77.9230   83.0390   81.7840     2     1
