@<TRIPOS>MOLECULE
KIWWOF
    89    93     3     0     0
SMALL
USER_CHARGES
****
Generated from the CSD

@<TRIPOS>ATOM
     1 C1       5.0453   3.9197  10.7534   C.2       1 RES1   0.0000
     2 C2       4.8019   4.9978  11.7683   C.ar      1 RES1   0.0000
     3 C3       5.4411   5.1684  12.9716   C.ar      1 RES1   0.0000
     4 H1       6.1542   4.5954  13.2285   H         1 RES1   0.0000
     5 C4       5.0198   6.2033  13.8104   C.ar      1 RES1   0.0000
     6 H2       5.4374   6.3369  14.6527   H         1 RES1   0.0000
     7 C5       3.9898   7.0345  13.4039   C.ar      1 RES1   0.0000
     8 H3       3.6970   7.7468  13.9596   H         1 RES1   0.0000
     9 C6       3.3937   6.8110  12.1711   C.ar      1 RES1   0.0000
    10 C7       2.2890   7.6517  11.5922   C.3       1 RES1   0.0000
    11 H4       1.7445   8.0319  12.3273   H         1 RES1   0.0000
    12 H5       2.6796   8.4024  11.0801   H         1 RES1   0.0000
    13 C8       0.4842   6.0401  11.5171   C.3       1 RES1   0.0000
    14 H6      -0.2887   6.5996  11.7800   H         1 RES1   0.0000
    15 H7       0.9409   5.7398  12.3423   H         1 RES1   0.0000
    16 C9      -0.0058   4.8335  10.7424   C.3       1 RES1   0.0000
    17 H8      -0.6625   4.3346  11.2907   H         1 RES1   0.0000
    18 H9      -0.4605   5.1335   9.9164   H         1 RES1   0.0000
    19 C10      0.7039   3.0575   9.2767   C.3       1 RES1   0.0000
    20 H10     -0.2175   2.7334   9.4407   H         1 RES1   0.0000
    21 H11      1.3028   2.2700   9.2351   H         1 RES1   0.0000
    22 C11      0.7516   3.7947   7.9662   C.ar      1 RES1   0.0000
    23 C12     -0.0054   3.4563   6.8528   C.ar      1 RES1   0.0000
    24 H12     -0.6522   2.7620   6.8997   H         1 RES1   0.0000
    25 C13      0.1982   4.1462   5.6791   C.ar      1 RES1   0.0000
    26 H13     -0.2988   3.9197   4.9016   H         1 RES1   0.0000
    27 C14      1.1382   5.1803   5.6298   C.ar      1 RES1   0.0000
    28 H14      1.2947   5.6609   4.8263   H         1 RES1   0.0000
    29 C15      1.8278   5.4793   6.7802   C.ar      1 RES1   0.0000
    30 C16      2.8872   6.5351   6.9797   C.2       1 RES1   0.0000
    31 C17      0.6883   7.7434   9.7829   C.3       1 RES1   0.0000
    32 H15      0.0945   7.2118   9.2124   H         1 RES1   0.0000
    33 H16      1.3283   8.2311   9.2242   H         1 RES1   0.0000
    34 H17      0.1563   8.3809  10.3035   H         1 RES1   0.0000
    35 C18      1.5386   3.1133  11.5417   C.3       1 RES1   0.0000
    36 H18      0.7913   2.5435  11.8216   H         1 RES1   0.0000
    37 H19      1.8003   3.6965  12.2839   H         1 RES1   0.0000
    38 H20      2.2986   2.5509  11.2838   H         1 RES1   0.0000
    39 C19      6.3812   2.0692   9.9258   C.3       1 RES1   0.0000
    40 H21      6.5056   2.4891   9.0379   H         1 RES1   0.0000
    41 H22      5.6160   1.4451   9.8638   H         1 RES1   0.0000
    42 C20      7.6344   1.2913  10.2916   C.3       1 RES1   0.0000
    43 H23      7.4943   0.8201  11.1508   H         1 RES1   0.0000
    44 H24      8.3938   1.9164  10.4028   H         1 RES1   0.0000
    45 C21      7.9618   0.2765   9.1966   C.3       1 RES1   0.0000
    46 H25      7.1790  -0.3171   9.0698   H         1 RES1   0.0000
    47 H26      8.1101   0.7620   8.3472   H         1 RES1   0.0000
    48 C22      9.1862  -0.5850   9.4885   C.3       1 RES1   0.0000
    49 H27      9.9675  -0.0088   9.6221   H         1 RES1   0.0000
    50 H28      9.3504  -1.1876   8.7329   H         1 RES1   0.0000
    51 H29      9.0288  -1.1141  10.2989   H         1 RES1   0.0000
    52 C23      4.3182   8.2853   6.0560   C.3       1 RES1   0.0000
    53 H30      4.8237   8.3242   5.2058   H         1 RES1   0.0000
    54 H31      4.9508   8.0372   6.7756   H         1 RES1   0.0000
    55 C24      3.7326   9.6568   6.3540   C.3       1 RES1   0.0000
    56 H32      3.0252   9.8572   5.6916   H         1 RES1   0.0000
    57 H33      3.3135   9.6413   7.2505   H         1 RES1   0.0000
    58 C25      4.7765  10.7593   6.3134   C.3       1 RES1   0.0000
    59 H34      5.2568  10.7211   5.4491   H         1 RES1   0.0000
    60 H35      5.4363  10.6093   7.0360   H         1 RES1   0.0000
    61 C26      4.1534  12.1381   6.4809   C.3       1 RES1   0.0000
    62 H36      3.4867  12.2838   5.7773   H         1 RES1   0.0000
    63 H37      4.8513  12.8226   6.4167   H         1 RES1   0.0000
    64 H38      3.7188  12.1965   7.3583   H         1 RES1   0.0000
    65 N1       3.7898   5.8043  11.3844   N.ar      1 RES1   0.0000
    66 N2       1.4203   6.8461  10.7028   N.3       1 RES1   0.0000
    67 N3       1.1224   3.9386  10.3887   N.3       1 RES1   0.0000
    68 N4       1.6412   4.7915   7.9164   N.ar      1 RES1   0.0000
    69 N5       6.0773   3.1099  10.9135   N.am      1 RES1   0.0000
    70 N6       3.2775   7.2569   5.9525   N.am      1 RES1   0.0000
    71 O1       4.2506   3.8036   9.7977   O.2       1 RES1   0.0000
    72 O2       3.3772   6.6696   8.1234   O.2       1 RES1   0.0000
    73 Fe1      2.7291   5.3399   9.6318   Fe        1 RES1   2.0000
    74 H39      6.5874   3.2556  11.5675   H         1 RES1   0.0000
    75 H40      2.9401   7.1832   5.2221   H         1 RES1   0.0000
    76 F1       7.3347   5.9358   7.0074   F         2 RES2   0.0000
    77 F2       9.3416   6.1317   8.0201   F         2 RES2   0.0000
    78 F3       8.2977   6.2855  10.0225   F         2 RES2   0.0000
    79 F4       7.9315   4.5277   8.6683   F         2 RES2   0.0000
    80 F5       6.3022   6.0557   9.0227   F         2 RES2   0.0000
    81 F6       7.7130   7.6789   8.3692   F         2 RES2   0.0000
    82 P1       7.8195   6.1029   8.5068   P.3       2 RES2  -1.0000
    83 F7       2.4297   9.7493   1.0781   F         3 RES3   0.0000
    84 F8       3.6016   7.8752   1.5177   F         3 RES3   0.0000
    85 F9       1.0469   9.2723   2.7672   F         3 RES3   0.0000
    86 F10      1.3844   7.7570   1.1027   F         3 RES3   0.0000
    87 F11      2.1805   7.3574   3.1971   F         3 RES3   0.0000
    88 F12      3.2463   9.3593   3.1659   F         3 RES3   0.0000
    89 P2       2.3139   8.5588   2.1389   P.3       3 RES3  -1.0000
@<TRIPOS>BOND
     1     1     2    1
     2     2     3   ar
     3     3     4    1
     4     5     3   ar
     5     6     5    1
     6     7     5   ar
     7     8     7    1
     8     9     7   ar
     9    10     9    1
    10    11    10    1
    11    12    10    1
    12    13    14    1
    13    15    13    1
    14    16    13    1
    15    17    16    1
    16    18    16    1
    17    19    20    1
    18    21    19    1
    19    22    19    1
    20    23    22   ar
    21    24    23    1
    22    25    23   ar
    23    26    25    1
    24    27    25   ar
    25    28    27    1
    26    29    27   ar
    27    30    29    1
    28    31    32    1
    29    33    31    1
    30    34    31    1
    31    35    36    1
    32    37    35    1
    33    38    35    1
    34    39    40    1
    35    41    39    1
    36    42    39    1
    37    43    42    1
    38    44    42    1
    39    45    42    1
    40    46    45    1
    41    47    45    1
    42    48    45    1
    43    49    48    1
    44    50    48    1
    45    51    48    1
    46    52    53    1
    47    54    52    1
    48    55    52    1
    49    56    55    1
    50    57    55    1
    51    58    55    1
    52    59    58    1
    53    60    58    1
    54    61    58    1
    55    62    61    1
    56    63    61    1
    57    64    61    1
    58    65     2   ar
    59    66    10    1
    60    67    16    1
    61    68    22   ar
    62    69     1   am
    63    70    30   am
    64    71     1    2
    65    72    30    2
    66    73    65    1
    67    74    69    1
    68    75    70    1
    69     9    65   ar
    70    13    66    1
    71    19    67    1
    72    29    68   ar
    73    31    66    1
    74    35    67    1
    75    39    69    1
    76    52    70    1
    77    66    73    1
    78    67    73    1
    79    68    73    1
    80    71    73    1
    81    72    73    1
    82    76    82    1
    83    77    82    1
    84    78    82    1
    85    79    82    1
    86    80    82    1
    87    81    82    1
    88    83    89    1
    89    84    89    1
    90    85    89    1
    91    86    89    1
    92    87    89    1
    93    88    89    1
@<TRIPOS>SUBSTRUCTURE
     1 RES1        1 GROUP             0 ****  ****    0  
     2 RES2       76 GROUP             0 ****  ****    0  
     3 RES3       83 GROUP             0 ****  ****    0  
@<TRIPOS>CRYSIN
   10.9740   12.6630   13.9020  107.5170  108.4300   96.5630     2     1
