@<TRIPOS>MOLECULE
KIWWIZ
    80    83     4     0     0
SMALL
USER_CHARGES
****
Generated from the CSD

@<TRIPOS>ATOM
     1 C1       3.2878   3.2714  14.9353   C.ar      1 RES1   0.0000
     2 C2       4.3991   2.9014  15.6667   C.ar      1 RES1   0.0000
     3 H1       4.9954   3.5536  16.0154   H         1 RES1   0.0000
     4 C3       4.6179   1.5445  15.8773   C.ar      1 RES1   0.0000
     5 H2       5.3745   1.2560  16.3742   H         1 RES1   0.0000
     6 C4       3.7307   0.6138  15.3612   C.ar      1 RES1   0.0000
     7 H3       3.8846  -0.3166  15.4758   H         1 RES1   0.0000
     8 C5       2.6128   1.0658  14.6739   C.ar      1 RES1   0.0000
     9 C6       1.5520   0.1841  14.0619   C.3       1 RES1   0.0000
    10 H4       1.8000  -0.0402  13.1302   H         1 RES1   0.0000
    11 H5       1.4814  -0.6595  14.5752   H         1 RES1   0.0000
    12 C7      -0.2861   0.9269  15.4668   C.3       1 RES1   0.0000
    13 H6       0.4556   1.0833  16.1037   H         1 RES1   0.0000
    14 H7      -0.6997   0.0543  15.6854   H         1 RES1   0.0000
    15 C8      -1.3178   2.0263  15.6122   C.3       1 RES1   0.0000
    16 H8      -2.0716   1.8517  14.9945   H         1 RES1   0.0000
    17 H9      -1.6731   2.0220  16.5362   H         1 RES1   0.0000
    18 C9      -0.6852   0.1967  13.1697   C.3       1 RES1   0.0000
    19 H10     -0.3268   0.2115  12.2577   H         1 RES1   0.0000
    20 H11     -1.5535   0.6508  13.1868   H         1 RES1   0.0000
    21 H12     -0.7965  -0.7320  13.4619   H         1 RES1   0.0000
    22 C10     -0.0067   3.8881  16.4863   C.3       1 RES1   0.0000
    23 H13     -0.6163   3.9492  17.2511   H         1 RES1   0.0000
    24 H14      0.3468   4.7782  16.2783   H         1 RES1   0.0000
    25 H15      0.7343   3.2857  16.7064   H         1 RES1   0.0000
    26 C11     -1.8214   4.3095  14.9517   C.3       1 RES1   0.0000
    27 H16     -1.5184   5.2377  15.1149   H         1 RES1   0.0000
    28 H17     -2.6135   4.1401  15.5210   H         1 RES1   0.0000
    29 C12     -2.1995   4.1503  13.5013   C.ar      1 RES1   0.0000
    30 C13     -3.4229   4.5537  12.9693   C.ar      1 RES1   0.0000
    31 H18     -4.1038   4.9084  13.5290   H         1 RES1   0.0000
    32 C14     -3.6215   4.4250  11.6067   C.ar      1 RES1   0.0000
    33 H19     -4.4454   4.7005  11.2222   H         1 RES1   0.0000
    34 C15     -2.6197   3.8930  10.7910   C.ar      1 RES1   0.0000
    35 H20     -2.7484   3.7917   9.8552   H         1 RES1   0.0000
    36 C16     -1.4328   3.5194  11.3963   C.ar      1 RES1   0.0000
    37 C17      2.8997   4.6628  14.5065   C.2       1 RES1   0.0000
    38 C18      3.5005   7.0093  14.2743   C.3       1 RES1   0.0000
    39 H21      3.8527   7.6797  14.9119   H         1 RES1   0.0000
    40 H22      2.5335   7.1810  14.1492   H         1 RES1   0.0000
    41 C19      4.2227   7.1447  12.9366   C.3       1 RES1   0.0000
    42 H23      5.1775   6.9147  13.0609   H         1 RES1   0.0000
    43 H24      3.8367   6.4972  12.2947   H         1 RES1   0.0000
    44 C20      4.1226   8.5444  12.3488   C.3       1 RES1   0.0000
    45 H25      4.5016   9.1950  12.9916   H         1 RES1   0.0000
    46 H26      3.1690   8.7724  12.2119   H         1 RES1   0.0000
    47 C21      4.8606   8.6627  11.0233   C.3       1 RES1   0.0000
    48 H27      5.8078   8.4500  11.1565   H         1 RES1   0.0000
    49 H28      4.7763   9.5782  10.6832   H         1 RES1   0.0000
    50 H29      4.4729   8.0372  10.3764   H         1 RES1   0.0000
    51 C22     -0.1838   2.9989  10.7256   C.2       1 RES1   0.0000
    52 C23      1.0050   2.4585   8.6496   C.3       1 RES1   0.0000
    53 H30      1.8058   2.7758   9.1376   H         1 RES1   0.0000
    54 H31      0.9747   2.9322   7.7809   H         1 RES1   0.0000
    55 C24      1.1468   0.9684   8.3911   C.3       1 RES1   0.0000
    56 H32      0.2894   0.6250   8.0348   H         1 RES1   0.0000
    57 H33      1.8370   0.8315   7.6946   H         1 RES1   0.0000
    58 C25      1.5221   0.1621   9.6084   C.3       1 RES1   0.0000
    59 H34      0.8150   0.2649  10.2936   H         1 RES1   0.0000
    60 H35      2.3638   0.5211   9.9860   H         1 RES1   0.0000
    61 C26      1.7064  -1.3168   9.3047   C.3       1 RES1   0.0000
    62 H36      0.8740  -1.6812   8.9378   H         1 RES1   0.0000
    63 H37      1.9360  -1.7935  10.1297   H         1 RES1   0.0000
    64 H38      2.4280  -1.4287   8.6512   H         1 RES1   0.0000
    65 N1       2.4104   2.3698  14.4683   N.ar      1 RES1   0.0000
    66 N2       0.2502   0.8895  14.0774   N.3       1 RES1   0.0000
    67 N3      -0.7375   3.3622  15.3147   N.3       1 RES1   0.0000
    68 N4      -1.2415   3.6448  12.7211   N.ar      1 RES1   0.0000
    69 N5       3.6948   5.6637  14.8179   N.am      1 RES1   0.0000
    70 N6      -0.1910   2.8108   9.4228   N.am      1 RES1   0.0000
    71 O1       1.8415   4.8061  13.8398   O.2       1 RES1   0.0000
    72 O2       0.8264   2.7981  11.4461   O.2       1 RES1   0.0000
    73 Fe1      0.6281   3.0764  13.5520   Fe        1 RES1   2.0000
    74 H39      4.4460   5.5286  15.2009   H         1 RES1   0.0000
    75 H40     -0.9207   2.9511   8.9542   H         1 RES1   0.0000
    76 O3       8.3371   3.3060  17.5444   O.3       2 RES2   0.0000
    77 H41      7.8023   3.7892  17.1725   H         2 RES2   0.0000
    78 H42      7.9276   2.5261  17.5223   H         2 RES2   0.0000
    79 Cl1      6.6343   5.6225  16.0156   Cl        3 RES3  -1.0000
    80 Cl2      9.7078   3.0188   7.3944   Cl        4 RES4  -1.0000
@<TRIPOS>BOND
     1     1     2   ar
     2     2     3    1
     3     4     2   ar
     4     5     4    1
     5     6     4   ar
     6     7     6    1
     7     8     6   ar
     8     9     8    1
     9    10     9    1
    10    11     9    1
    11    12    13    1
    12    14    12    1
    13    15    12    1
    14    16    15    1
    15    17    15    1
    16    18    19    1
    17    20    18    1
    18    21    18    1
    19    22    23    1
    20    24    22    1
    21    25    22    1
    22    26    27    1
    23    28    26    1
    24    29    26    1
    25    30    29   ar
    26    31    30    1
    27    32    30   ar
    28    33    32    1
    29    34    32   ar
    30    35    34    1
    31    36    34   ar
    32    37     1    1
    33    38    39    1
    34    40    38    1
    35    41    38    1
    36    42    41    1
    37    43    41    1
    38    44    41    1
    39    45    44    1
    40    46    44    1
    41    47    44    1
    42    48    47    1
    43    49    47    1
    44    50    47    1
    45    51    36    1
    46    52    53    1
    47    54    52    1
    48    55    52    1
    49    56    55    1
    50    57    55    1
    51    58    55    1
    52    59    58    1
    53    60    58    1
    54    61    58    1
    55    62    61    1
    56    63    61    1
    57    64    61    1
    58    65     1   ar
    59    66     9    1
    60    67    15    1
    61    68    29   ar
    62    69    37   am
    63    70    51   am
    64    71    37    2
    65    72    51    2
    66    73    65    1
    67    74    69    1
    68    75    70    1
    69     8    65   ar
    70    12    66    1
    71    18    66    1
    72    22    67    1
    73    26    67    1
    74    36    68   ar
    75    38    69    1
    76    52    70    1
    77    66    73    1
    78    67    73    1
    79    68    73    1
    80    71    73    1
    81    72    73    1
    82    76    77    1
    83    78    76    1
@<TRIPOS>SUBSTRUCTURE
     1 RES1        1 GROUP             0 ****  ****    0  
     2 RES2       76 GROUP             0 ****  ****    0  
     3 RES3       79 GROUP             0 ****  ****    0  
     4 RES4       80 GROUP             0 ****  ****    0  
@<TRIPOS>CRYSIN
   12.2396   10.7040   22.9106   90.0000   97.4930   90.0000   231     1
