@<TRIPOS>MOLECULE
KIZWUP
    91   101     1     0     0
SMALL
NO_CHARGES
****
Generated from the CSD

@<TRIPOS>ATOM
     1 Fe1      7.2615   8.1350   5.2057   Fe        1 RES1   0.0000
     2 S1       6.9231   4.2302   7.2399   S.3       1 RES1   0.0000
     3 S2       3.8065   6.0101   6.9713   S.3       1 RES1   0.0000
     4 S3       8.5366   7.2076   1.0114   S.3       1 RES1   0.0000
     5 O1       8.9011   5.9792   6.2795   O.3       1 RES1   0.0000
     6 O2       4.3801   8.3286   5.5014   O.3       1 RES1   0.0000
     7 O3       9.1553   6.3957   3.8812   O.3       1 RES1   0.0000
     8 O4      14.8396   6.7293   6.9918   O.2       1 RES1   0.0000
     9 N1       7.6638   6.5145   6.2014   N.2       1 RES1   0.0000
    10 N2       5.5260   7.5574   5.6436   N.2       1 RES1   0.0000
    11 N3       8.0850   7.2743   3.7432   N.2       1 RES1   0.0000
    12 C1       6.6428   5.8247   6.5958   C.2       1 RES1   0.0000
    13 C2       5.3793   6.4624   6.3510   C.2       1 RES1   0.0000
    14 C3       7.8264   7.6225   2.5461   C.2       1 RES1   0.0000
    15 C4       4.2523   4.5182   7.9695   C.3       1 RES1   0.0000
    16 H1       4.6501   4.8072   8.8322   H         1 RES1   0.0000
    17 H2       3.4316   4.0019   8.1748   H         1 RES1   0.0000
    18 C5       5.2152   3.6510   7.2465   C.3       1 RES1   0.0000
    19 H3       4.9105   3.5576   6.3133   H         1 RES1   0.0000
    20 H4       5.1932   2.7497   7.6608   H         1 RES1   0.0000
    21 C6      10.2866   7.0888   1.3639   C.3       1 RES1   0.0000
    22 H5      10.4413   6.3235   1.9688   H         1 RES1   0.0000
    23 H6      10.7706   6.9072   0.5170   H         1 RES1   0.0000
    24 C7      10.8705   8.3660   2.0047   C.3       1 RES1   0.0000
    25 H7      10.4311   8.5136   2.8815   H         1 RES1   0.0000
    26 H8      10.6618   9.1425   1.4293   H         1 RES1   0.0000
    27 C8      12.4317   8.2977   2.2265   C.3       1 RES1   0.0000
    28 H9      12.6551   7.4373   2.6642   H         1 RES1   0.0000
    29 H10     12.8787   8.3072   1.3413   H         1 RES1   0.0000
    30 C9      12.9807   9.4366   3.0728   C.3       1 RES1   0.0000
    31 H11     13.1657  10.2156   2.4969   H         1 RES1   0.0000
    32 H12     13.8077   9.1588   3.5129   H         1 RES1   0.0000
    33 H13     12.3186   9.6946   3.7507   H         1 RES1   0.0000
    34 C10     11.1174   5.6636   5.2007   C.ar      1 RES1   0.0000
    35 C11     12.3518   6.0915   5.7348   C.ar      1 RES1   0.0000
    36 H14     12.3940   6.9530   6.1311   H         1 RES1   0.0000
    37 C12     13.4948   5.3333   5.7101   C.ar      1 RES1   0.0000
    38 C13     13.4643   4.0317   5.2336   C.ar      1 RES1   0.0000
    39 H15     14.2448   3.4911   5.2538   H         1 RES1   0.0000
    40 C14     12.2763   3.5338   4.7324   C.ar      1 RES1   0.0000
    41 H16     12.2281   2.6468   4.3943   H         1 RES1   0.0000
    42 C15     11.1508   4.3555   4.7242   C.ar      1 RES1   0.0000
    43 H17     10.3460   3.9966   4.3695   H         1 RES1   0.0000
    44 B1       9.7987   6.4511   5.2336   B         1 RES1   0.0000
    45 C16     14.7844   5.7108   6.3838   C.2       1 RES1   0.0000
    46 H18     15.5518   5.1531   6.3187   H         1 RES1   0.0000
    47 S1A      7.5999  12.0398   7.2399   S.3       1 RES1   0.0000
    48 S2A     10.7165  10.2599   6.9713   S.3       1 RES1   0.0000
    49 S3A      5.9864   9.0624   1.0114   S.3       1 RES1   0.0000
    50 O1A      5.6219  10.2908   6.2795   O.3       1 RES1   0.0000
    51 O2A     10.1429   7.9414   5.5014   O.3       1 RES1   0.0000
    52 O3A      5.3677   9.8743   3.8812   O.3       1 RES1   0.0000
    53 O4A     -0.3166   9.5407   6.9918   O.2       1 RES1   0.0000
    54 N1A      6.8592   9.7555   6.2014   N.2       1 RES1   0.0000
    55 N2A      8.9970   8.7126   5.6436   N.2       1 RES1   0.0000
    56 N3A      6.4380   8.9957   3.7432   N.2       1 RES1   0.0000
    57 C1A      7.8802  10.4453   6.5958   C.2       1 RES1   0.0000
    58 C2A      9.1437   9.8076   6.3510   C.2       1 RES1   0.0000
    59 C3A      6.6966   8.6475   2.5461   C.2       1 RES1   0.0000
    60 C4A     10.2707  11.7518   7.9695   C.3       1 RES1   0.0000
    61 H1A      9.8729  11.4628   8.8322   H         1 RES1   0.0000
    62 H2A     11.0914  12.2681   8.1748   H         1 RES1   0.0000
    63 C5A      9.3078  12.6190   7.2465   C.3       1 RES1   0.0000
    64 H3A      9.6125  12.7124   6.3133   H         1 RES1   0.0000
    65 H4A      9.3298  13.5203   7.6608   H         1 RES1   0.0000
    66 C6A      4.2364   9.1812   1.3639   C.3       1 RES1   0.0000
    67 H5A      4.0817   9.9465   1.9688   H         1 RES1   0.0000
    68 H6A      3.7524   9.3628   0.5170   H         1 RES1   0.0000
    69 C7A      3.6525   7.9040   2.0047   C.3       1 RES1   0.0000
    70 H7A      4.0919   7.7564   2.8815   H         1 RES1   0.0000
    71 H8A      3.8612   7.1275   1.4293   H         1 RES1   0.0000
    72 C8A      2.0913   7.9723   2.2265   C.3       1 RES1   0.0000
    73 H9A      1.8679   8.8327   2.6642   H         1 RES1   0.0000
    74 H10A     1.6443   7.9628   1.3413   H         1 RES1   0.0000
    75 C9A      1.5423   6.8334   3.0728   C.3       1 RES1   0.0000
    76 H11A     1.3573   6.0544   2.4969   H         1 RES1   0.0000
    77 H12A     0.7153   7.1112   3.5129   H         1 RES1   0.0000
    78 H13A     2.2044   6.5754   3.7507   H         1 RES1   0.0000
    79 C10A     3.4056  10.6064   5.2007   C.ar      1 RES1   0.0000
    80 C11A     2.1712  10.1785   5.7348   C.ar      1 RES1   0.0000
    81 H14A     2.1290   9.3170   6.1311   H         1 RES1   0.0000
    82 C12A     1.0282  10.9367   5.7101   C.ar      1 RES1   0.0000
    83 C13A     1.0587  12.2383   5.2336   C.ar      1 RES1   0.0000
    84 H15A     0.2782  12.7789   5.2538   H         1 RES1   0.0000
    85 C14A     2.2467  12.7362   4.7324   C.ar      1 RES1   0.0000
    86 H16A     2.2949  13.6232   4.3943   H         1 RES1   0.0000
    87 C15A     3.3722  11.9145   4.7242   C.ar      1 RES1   0.0000
    88 H17A     4.1770  12.2734   4.3695   H         1 RES1   0.0000
    89 B1A      4.7243   9.8189   5.2336   B         1 RES1   0.0000
    90 C16A    -0.2614  10.5592   6.3838   C.2       1 RES1   0.0000
    91 H18A    -1.0288  11.1169   6.3187   H         1 RES1   0.0000
@<TRIPOS>BOND
     1     1     9    1
     2     2    12    1
     3     3    13    1
     4     4    14    1
     5     5     9    1
     6     6    10    1
     7     7    11    1
     8     8    45    2
     9     9    12    2
    10    10     1    1
    11    11     1    1
    12    12    13    1
    13    13    10    2
    14    14    11    2
    15    15     3    1
    16    16    15    1
    17    17    15    1
    18    18     2    1
    19    19    18    1
    20    20    18    1
    21    21     4    1
    22    22    21    1
    23    23    21    1
    24    24    21    1
    25    25    24    1
    26    26    24    1
    27    27    24    1
    28    28    27    1
    29    29    27    1
    30    30    27    1
    31    31    30    1
    32    32    30    1
    33    33    30    1
    34    34    35   ar
    35    35    36    1
    36    37    35   ar
    37    38    37   ar
    38    39    38    1
    39    40    38   ar
    40    41    40    1
    41    42    34   ar
    42    43    42    1
    43    44     5    1
    44    45    37    1
    45    46    45    1
    46    47    57    1
    47    48    58    1
    48    49    59    1
    49    50    54    1
    50    51    44    1
    51    52    56    1
    52    53    90    2
    53    54     1    1
    54    55     1    1
    55    56     1    1
    56    57    54    2
    57    58    55    2
    58    59    14    1
    59    60    48    1
    60    61    60    1
    61    62    60    1
    62    63    47    1
    63    64    63    1
    64    65    63    1
    65    66    49    1
    66    67    66    1
    67    68    66    1
    68    69    66    1
    69    70    69    1
    70    71    69    1
    71    72    69    1
    72    73    72    1
    73    74    72    1
    74    75    72    1
    75    76    75    1
    76    77    75    1
    77    78    75    1
    78    79    80   ar
    79    80    81    1
    80    82    80   ar
    81    83    82   ar
    82    84    83    1
    83    85    83   ar
    84    86    85    1
    85    87    79   ar
    86    88    87    1
    87    89     6    1
    88    90    82    1
    89    91    90    1
    90     7    44    1
    91    15    18    1
    92    34    44    1
    93    40    42   ar
    94    50    89    1
    95    51    55    1
    96    52    89    1
    97    56    59    2
    98    57    58    1
    99    60    63    1
   100    79    89    1
   101    85    87   ar
@<TRIPOS>SUBSTRUCTURE
     1 RES1        1 GROUP             0 ****  ****    0  
@<TRIPOS>CRYSIN
   14.5230   16.2700    8.2160   90.0000   90.0000   90.0000    18     1
