@<TRIPOS>MOLECULE
KODWIN
    87    88     5     0     0
SMALL
USER_CHARGES
****
Generated from the CSD

@<TRIPOS>ATOM
     1 Fe1      3.3603   2.4172  12.9637   Fe        1 RES1   2.0000
     2 O1       5.6124   0.6710  11.9880   O.3       1 RES1   0.0000
     3 O2       2.9692  -0.5727  12.8358   O.3       1 RES1   0.0000
     4 N1       2.2575   5.3658  13.7828   N.pl3     1 RES1   0.0000
     5 N2       4.0642   4.2047  12.7494   N.ar      1 RES1   0.0000
     6 N3       5.0731   1.9624  12.1769   N.2       1 RES1   0.0000
     7 N4       1.6868   3.0488  13.6889   N.ar      1 RES1   0.0000
     8 N5       2.4791   0.7006  13.1850   N.2       1 RES1   0.0000
     9 N6       2.6303   2.5423  11.1730   N.1       1 RES1   0.0000
    10 N7       4.0616   2.2651  14.7601   N.1       1 RES1   0.0000
    11 C1       1.8471   6.6498  14.3325   C.ar      1 RES1   0.0000
    12 C2       2.2818   6.9718  15.6069   C.ar      1 RES1   0.0000
    13 H1       2.8509   6.3786  16.0848   H         1 RES1   0.0000
    14 C3       5.1671   0.1280  10.7221   C.3       1 RES1   0.0000
    15 H2       5.4983  -0.7890  10.6254   H         1 RES1   0.0000
    16 H3       5.5136   0.6797   9.9900   H         1 RES1   0.0000
    17 H4       4.1873   0.1262  10.6941   H         1 RES1   0.0000
    18 C4       3.8381  -1.0480  13.8772   C.3       1 RES1   0.0000
    19 H5       4.1762  -1.9367  13.6402   H         1 RES1   0.0000
    20 H6       3.3395  -1.1019  14.7191   H         1 RES1   0.0000
    21 H7       4.5908  -0.4293  13.9823   H         1 RES1   0.0000
    22 C5       1.8796   8.1641  16.1770   C.ar      1 RES1   0.0000
    23 H8       2.1670   8.3889  17.0538   H         1 RES1   0.0000
    24 C6       1.0653   9.0267  15.4834   C.ar      1 RES1   0.0000
    25 H9       0.7917   9.8451  15.8808   H         1 RES1   0.0000
    26 C7       0.6461   8.7054  14.2057   C.ar      1 RES1   0.0000
    27 H10      0.0880   9.3086  13.7289   H         1 RES1   0.0000
    28 C8       1.0338   7.5038  13.6112   C.ar      1 RES1   0.0000
    29 H11      0.7461   7.2785  12.7343   H         1 RES1   0.0000
    30 C9       1.3540   4.3171  13.9885   C.ar      1 RES1   0.0000
    31 C10      0.0894   4.6128  14.5447   C.ar      1 RES1   0.0000
    32 H12     -0.1370   5.5081  14.7656   H         1 RES1   0.0000
    33 C11     -0.8099   3.6009  14.7645   C.ar      1 RES1   0.0000
    34 H13     -1.6642   3.7975  15.1313   H         1 RES1   0.0000
    35 C12     -0.4719   2.2845  14.4496   C.ar      1 RES1   0.0000
    36 H14     -1.0833   1.5728  14.5976   H         1 RES1   0.0000
    37 C13      0.7716   2.0519  13.9200   C.ar      1 RES1   0.0000
    38 C14      1.2465   0.7061  13.5700   C.2       1 RES1   0.0000
    39 C15      0.3528  -0.4797  13.6749   C.3       1 RES1   0.0000
    40 H15     -0.4185  -0.3602  13.0825   H         1 RES1   0.0000
    41 H16      0.0434  -0.5743  14.5997   H         1 RES1   0.0000
    42 H17      0.8461  -1.2843  13.4111   H         1 RES1   0.0000
    43 C16      3.4828   5.3612  13.0988   C.ar      1 RES1   0.0000
    44 C17      4.0925   6.5934  12.8038   C.ar      1 RES1   0.0000
    45 H18      3.6733   7.4067  13.0586   H         1 RES1   0.0000
    46 C18      5.2995   6.6140  12.1444   C.ar      1 RES1   0.0000
    47 H19      5.7143   7.4440  11.9391   H         1 RES1   0.0000
    48 C19      5.9100   5.4212  11.7790   C.ar      1 RES1   0.0000
    49 H20      6.7443   5.4172  11.3247   H         1 RES1   0.0000
    50 C20      5.2691   4.2492  12.0959   C.ar      1 RES1   0.0000
    51 C21      5.8376   2.9322  11.7901   C.2       1 RES1   0.0000
    52 C22      7.1603   2.7979  11.1186   C.3       1 RES1   0.0000
    53 H21      7.8299   3.3187  11.6098   H         1 RES1   0.0000
    54 H22      7.0956   3.1335  10.2000   H         1 RES1   0.0000
    55 H23      7.4257   1.8551  11.1044   H         1 RES1   0.0000
    56 C23      2.2400   2.6536  10.1128   C.1       1 RES1   0.0000
    57 C24      1.7369   2.7865   8.7560   C.3       1 RES1   0.0000
    58 H24      1.5941   3.7341   8.5521   H         1 RES1   0.0000
    59 H25      0.8885   2.3029   8.6740   H         1 RES1   0.0000
    60 H26      2.3888   2.4114   8.1278   H         1 RES1   0.0000
    61 C25      4.4015   2.0998  15.8377   C.1       1 RES1   0.0000
    62 C26      4.8609   1.8782  17.2061   C.3       1 RES1   0.0000
    63 H27      4.1076   1.5834  17.7591   H         1 RES1   0.0000
    64 H28      5.2240   2.7140  17.5675   H         1 RES1   0.0000
    65 H29      5.5581   1.1906  17.2088   H         1 RES1   0.0000
    66 Cl1      8.9418  -0.2880  17.5613   Cl        2 RES2   0.0000
    67 O3       7.6950   0.1271  17.0027   O.3       2 RES2  -1.0000
    68 O4       9.4743  -1.3944  16.8772   O.2       2 RES2   0.0000
    69 O5       8.7682  -0.6180  18.8993   O.2       2 RES2   0.0000
    70 O6       9.8173   0.7583  17.4964   O.2       2 RES2   0.0000
    71 Cl2      5.3927   2.8503   7.5063   Cl        3 RES3   0.0000
    72 O7       4.9391   3.2296   8.8025   O.2       3 RES3   0.0000
    73 O8       6.6934   2.2924   7.5486   O.2       3 RES3   0.0000
    74 O9       4.4900   1.8103   7.0210   O.3       3 RES3  -1.0000
    75 O10      5.3239   3.9277   6.5840   O.2       3 RES3   0.0000
    76 N8       0.5977  -0.3470  10.0946   N.1       4 RES4   0.0000
    77 C27      1.3429  -2.8327  10.4335   C.3       4 RES4   0.0000
    78 H30      1.0407  -3.3905   9.6875   H         4 RES4   0.0000
    79 H31      0.9456  -3.1589  11.2682   H         4 RES4   0.0000
    80 H32      2.3210  -2.8781  10.4996   H         4 RES4   0.0000
    81 C28      0.9245  -1.4152  10.2006   C.1       4 RES4   0.0000
    82 N9      -1.4655  -3.3332  13.0863   N.1       5 RES5   0.0000
    83 C29     -1.2616  -3.4632  15.6799   C.3       5 RES5   0.0000
    84 H33     -1.7992  -2.7540  16.0892   H         5 RES5   0.0000
    85 H34     -0.3213  -3.3466  15.9287   H         5 RES5   0.0000
    86 H35     -1.5773  -4.3361  15.9954   H         5 RES5   0.0000
    87 C30     -1.3902  -3.3964  14.2492   C.1       5 RES5   0.0000
@<TRIPOS>BOND
     1     1     5    1
     2     2     6    1
     3     3     8    1
     4     4    11    1
     5     5    43   ar
     6     6     1    1
     7     7     1    1
     8     8     1    1
     9     9     1    1
    10    10     1    1
    11    11    12   ar
    12    12    13    1
    13    14     2    1
    14    15    14    1
    15    16    14    1
    16    17    14    1
    17    18     3    1
    18    19    18    1
    19    20    18    1
    20    21    18    1
    21    22    12   ar
    22    23    22    1
    23    24    22   ar
    24    25    24    1
    25    26    24   ar
    26    27    26    1
    27    28    11   ar
    28    29    28    1
    29    30     4    1
    30    31    30   ar
    31    32    31    1
    32    33    31   ar
    33    34    33    1
    34    35    33   ar
    35    36    35    1
    36    37     7   ar
    37    38     8    2
    38    39    38    1
    39    40    39    1
    40    41    39    1
    41    42    39    1
    42    43     4    1
    43    44    43   ar
    44    45    44    1
    45    46    44   ar
    46    47    46    1
    47    48    46   ar
    48    49    48    1
    49    50     5   ar
    50    51     6    2
    51    52    51    1
    52    53    52    1
    53    54    52    1
    54    55    52    1
    55    56     9    3
    56    57    56    1
    57    58    57    1
    58    59    57    1
    59    60    57    1
    60    61    10    3
    61    62    61    1
    62    63    62    1
    63    64    62    1
    64    65    62    1
    65     7    30   ar
    66    26    28   ar
    67    35    37   ar
    68    37    38    1
    69    48    50   ar
    70    50    51    1
    71    66    67    1
    72    68    66    2
    73    69    66    2
    74    70    66    2
    75    71    72    2
    76    73    71    2
    77    74    71    1
    78    75    71    2
    79    76    81    3
    80    77    78    1
    81    79    77    1
    82    80    77    1
    83    81    77    1
    84    82    87    3
    85    83    84    1
    86    85    83    1
    87    86    83    1
    88    87    83    1
@<TRIPOS>SUBSTRUCTURE
     1 RES1        1 GROUP             0 ****  ****    0  
     2 RES2       66 GROUP             0 ****  ****    0  
     3 RES3       71 GROUP             0 ****  ****    0  
     4 RES4       76 GROUP             0 ****  ****    0  
     5 RES5       82 GROUP             0 ****  ****    0  
@<TRIPOS>CRYSIN
    8.1243   13.3350   17.7851  102.0800   90.3000   96.5610     2     1
