@<TRIPOS>MOLECULE
KOFMUP
    95   102     4     0     0
SMALL
USER_CHARGES
****
Generated from the CSD

@<TRIPOS>ATOM
     1 C1       1.0407   3.8123   1.9371   C.ar      1 RES1   0.0000
     2 C2      -0.1684   4.4622   1.6659   C.ar      1 RES1   0.0000
     3 H1      -0.9526   3.9619   1.6415   H         1 RES1   0.0000
     4 C3      -0.2362   5.8121   1.4344   C.ar      1 RES1   0.0000
     5 H2      -1.0538   6.2174   1.2519   H         1 RES1   0.0000
     6 C4       0.9135   6.5570   1.4741   C.ar      1 RES1   0.0000
     7 H3       0.8815   7.4695   1.2916   H         1 RES1   0.0000
     8 C5       2.1220   5.9589   1.7836   C.ar      1 RES1   0.0000
     9 H4       2.8919   6.4801   1.8237   H         1 RES1   0.0000
    10 C6       2.2105   4.5935   2.0369   C.ar      1 RES1   0.0000
    11 C7       0.9783   2.3310   2.1394   C.ar      1 RES1   0.0000
    12 C8       0.3402   1.8894   3.3001   C.ar      1 RES1   0.0000
    13 H5      -0.0540   2.5155   3.8638   H         1 RES1   0.0000
    14 C9       0.2767   0.5534   3.6369   C.ar      1 RES1   0.0000
    15 H6      -0.1555   0.2809   4.4140   H         1 RES1   0.0000
    16 C10      0.8642  -0.3717   2.8001   C.ar      1 RES1   0.0000
    17 H7       0.8710  -1.2717   3.0377   H         1 RES1   0.0000
    18 C11      1.4446   0.0307   1.6072   C.ar      1 RES1   0.0000
    19 H8       1.8101  -0.6079   1.0390   H         1 RES1   0.0000
    20 C12      1.4895   1.3737   1.2441   C.ar      1 RES1   0.0000
    21 C13      3.4932   3.0968   3.5292   C.3       1 RES1   0.0000
    22 H9       2.5739   2.9235   3.7899   H         1 RES1   0.0000
    23 H10      3.9289   3.5538   4.2661   H         1 RES1   0.0000
    24 C14      4.1948   1.7776   3.2835   C.ar      1 RES1   0.0000
    25 C15      4.3562   0.8525   4.3045   C.ar      1 RES1   0.0000
    26 H11      4.0438   1.0369   5.1608   H         1 RES1   0.0000
    27 C16      4.9855  -0.3410   4.0343   C.ar      1 RES1   0.0000
    28 H12      5.1034  -0.9726   4.7062   H         1 RES1   0.0000
    29 C17      5.4434  -0.5939   2.7478   C.ar      1 RES1   0.0000
    30 H13      5.8815  -1.3905   2.5506   H         1 RES1   0.0000
    31 C18      5.2389   0.3494   1.7725   C.ar      1 RES1   0.0000
    32 C19      5.6405   0.1859   0.3431   C.ar      1 RES1   0.0000
    33 C20      6.1769  -0.9782  -0.1688   C.ar      1 RES1   0.0000
    34 H14      6.3247  -1.7147   0.3806   H         1 RES1   0.0000
    35 C21      6.4904  -1.0271  -1.5179   C.ar      1 RES1   0.0000
    36 H15      6.8377  -1.8069  -1.8886   H         1 RES1   0.0000
    37 C22      6.2872   0.0783  -2.3075   C.ar      1 RES1   0.0000
    38 H16      6.5108   0.0657  -3.2108   H         1 RES1   0.0000
    39 C23      5.7445   1.2060  -1.7295   C.ar      1 RES1   0.0000
    40 H17      5.6138   1.9607  -2.2566   H         1 RES1   0.0000
    41 C24      1.2604   2.7041  -0.8341   C.3       1 RES1   0.0000
    42 H18      0.5650   3.0773  -0.2688   H         1 RES1   0.0000
    43 H19      0.8287   2.1982  -1.5405   H         1 RES1   0.0000
    44 C25      2.0502   3.8333  -1.4503   C.ar      1 RES1   0.0000
    45 C26      1.4631   4.7025  -2.3639   C.ar      1 RES1   0.0000
    46 H20      0.5724   4.5963  -2.6102   H         1 RES1   0.0000
    47 C27      2.2120   5.7157  -2.8948   C.ar      1 RES1   0.0000
    48 H21      1.8315   6.3082  -3.5031   H         1 RES1   0.0000
    49 C28      3.5409   5.8582  -2.5250   C.ar      1 RES1   0.0000
    50 H22      4.0610   6.5444  -2.8771   H         1 RES1   0.0000
    51 C29      4.0755   4.9611  -1.6267   C.ar      1 RES1   0.0000
    52 C30      5.4876   4.9652  -1.1754   C.ar      1 RES1   0.0000
    53 C31      6.4826   5.7353  -1.7593   C.ar      1 RES1   0.0000
    54 H23      6.2834   6.2887  -2.4803   H         1 RES1   0.0000
    55 C32      7.7679   5.6752  -1.2681   C.ar      1 RES1   0.0000
    56 H24      8.4423   6.1866  -1.6541   H         1 RES1   0.0000
    57 C33      8.0430   4.8534  -0.2064   C.ar      1 RES1   0.0000
    58 H25      8.8975   4.8101   0.1569   H         1 RES1   0.0000
    59 C34      7.0100   4.0904   0.3090   C.ar      1 RES1   0.0000
    60 H26      7.1934   3.5203   1.0210   H         1 RES1   0.0000
    61 C35      4.5915   4.9750   2.5382   C.3       1 RES1   0.0000
    62 H27      5.4105   4.5125   2.7274   H         1 RES1   0.0000
    63 H28      4.3687   5.5466   3.2758   H         1 RES1   0.0000
    64 H29      4.6971   5.5047   1.7443   H         1 RES1   0.0000
    65 C36      2.4495   0.6331  -0.9005   C.3       1 RES1   0.0000
    66 H30      2.8475   0.9615  -1.7100   H         1 RES1   0.0000
    67 H31      1.6526   0.1397  -1.1130   H         1 RES1   0.0000
    68 H32      3.0706   0.0573  -0.4492   H         1 RES1   0.0000
    69 N1       3.5007   3.9846   2.3309   N.3       1 RES1   0.0000
    70 N2       4.6319   1.5300   2.0504   N.ar      1 RES1   0.0000
    71 N3       5.3995   1.2526  -0.4382   N.ar      1 RES1   0.0000
    72 N4       2.1036   1.7759  -0.0184   N.3       1 RES1   0.0000
    73 N5       3.3154   3.9765  -1.0863   N.ar      1 RES1   0.0000
    74 N6       5.7687   4.1326  -0.1611   N.ar      1 RES1   0.0000
    75 Fe1      4.1477   2.8109   0.4508   Fe        1 RES1   2.0000
    76 C37      6.9610   3.2114  -5.0670   C.1       2 RES2   0.0000
    77 C38      6.3449   4.3238  -5.7741   C.3       2 RES2   0.0000
    78 H33      6.8264   5.1315  -5.5811   H         2 RES2   0.0000
    79 H34      5.4328   4.4188  -5.4873   H         2 RES2   0.0000
    80 H35      6.3677   4.1547  -6.7175   H         2 RES2   0.0000
    81 N7       7.4611   2.3492  -4.5258   N.1       2 RES2   0.0000
    82 F1       1.8154   2.0094  -3.8858   F         3 RES3   0.0000
    83 F2       3.8657   2.9014  -4.0006   F         3 RES3   0.0000
    84 F3       3.5617   0.7110  -4.4459   F         3 RES3   0.0000
    85 F4       4.0472   2.1214  -6.1246   F         3 RES3   0.0000
    86 F5       1.9992   1.2338  -5.9808   F         3 RES3   0.0000
    87 F6       2.3063   3.4293  -5.5324   F         3 RES3   0.0000
    88 P1       2.9383   2.0708  -4.9950   P.3       3 RES3  -1.0000
    89 F7       1.6656   9.9136   1.5890   F         4 RES4   0.0000
    90 F8       3.1601  11.2334   2.5645   F         4 RES4   0.0000
    91 F9       3.4736   9.0016   2.5034   F         4 RES4   0.0000
    92 F10      2.9411  11.2659   0.3355   F         4 RES4   0.0000
    93 F11      3.2489   9.0348   0.2708   F         4 RES4   0.0000
    94 F12      4.7734  10.3602   1.2791   F         4 RES4   0.0000
    95 P2       3.2232  10.1347   1.4084   P.3       4 RES4  -1.0000
@<TRIPOS>BOND
     1     1     2   ar
     2     2     3    1
     3     4     2   ar
     4     5     4    1
     5     6     4   ar
     6     7     6    1
     7     8     6   ar
     8     9     8    1
     9    10     1   ar
    10    11     1    1
    11    12    11   ar
    12    13    12    1
    13    14    12   ar
    14    15    14    1
    15    16    14   ar
    16    17    16    1
    17    18    16   ar
    18    19    18    1
    19    20    11   ar
    20    21    22    1
    21    23    21    1
    22    24    21    1
    23    25    24   ar
    24    26    25    1
    25    27    25   ar
    26    28    27    1
    27    29    27   ar
    28    30    29    1
    29    31    29   ar
    30    32    31    1
    31    33    32   ar
    32    34    33    1
    33    35    33   ar
    34    36    35    1
    35    37    35   ar
    36    38    37    1
    37    39    37   ar
    38    40    39    1
    39    41    42    1
    40    43    41    1
    41    44    41    1
    42    45    44   ar
    43    46    45    1
    44    47    45   ar
    45    48    47    1
    46    49    47   ar
    47    50    49    1
    48    51    49   ar
    49    52    51    1
    50    53    52   ar
    51    54    53    1
    52    55    53   ar
    53    56    55    1
    54    57    55   ar
    55    58    57    1
    56    59    57   ar
    57    60    59    1
    58    61    62    1
    59    63    61    1
    60    64    61    1
    61    65    66    1
    62    67    65    1
    63    68    65    1
    64    69    10    1
    65    70    24   ar
    66    71    32   ar
    67    72    20    1
    68    73    44   ar
    69    74    52   ar
    70    75    69    1
    71     8    10   ar
    72    18    20   ar
    73    21    69    1
    74    31    70   ar
    75    39    71   ar
    76    41    72    1
    77    51    73   ar
    78    59    74   ar
    79    61    69    1
    80    65    72    1
    81    70    75    1
    82    71    75    1
    83    72    75    1
    84    73    75    1
    85    74    75    1
    86    76    77    1
    87    77    78    1
    88    79    77    1
    89    80    77    1
    90    81    76    3
    91    82    88    1
    92    83    88    1
    93    84    88    1
    94    85    88    1
    95    86    88    1
    96    87    88    1
    97    89    95    1
    98    90    95    1
    99    91    95    1
   100    92    95    1
   101    93    95    1
   102    94    95    1
@<TRIPOS>SUBSTRUCTURE
     1 RES1        1 GROUP             0 ****  ****    0  
     2 RES2       76 GROUP             0 ****  ****    0  
     3 RES3       82 GROUP             0 ****  ****    0  
     4 RES4       89 GROUP             0 ****  ****    0  
@<TRIPOS>CRYSIN
   15.3730   13.9748   18.5405   90.0000  103.3640   90.0000   231     1
