@<TRIPOS>MOLECULE
KOGQED
   106   115     4     0     0
SMALL
NO_CHARGES
****
Generated from the CSD

@<TRIPOS>ATOM
     1 Fe1      3.6757   1.2942   4.2091   Fe        1 RES1   0.0000
     2 F1       3.6855  -1.6220   0.9747   F         1 RES1   0.0000
     3 F2       3.6742   4.2048   7.4304   F         1 RES1   0.0000
     4 B1       3.6712  -0.7332   1.9852   B         1 RES1   0.0000
     5 B2       3.6539   3.3096   6.4202   B         1 RES1   0.0000
     6 N1       5.1571   0.7193   3.1082   N.2       1 RES1   0.0000
     7 N2       5.1553   1.8711   5.3005   N.2       1 RES1   0.0000
     8 N3       3.1777  -0.5433   4.2801   N.2       1 RES1   0.0000
     9 N4       2.6271   1.2545   5.7888   N.2       1 RES1   0.0000
    10 N5       2.6217   1.3300   2.6216   N.2       1 RES1   0.0000
    11 N6       3.1723   3.1239   4.1319   N.2       1 RES1   0.0000
    12 N7       7.5050   0.2832   3.1099   N.pl3     1 RES1   0.0000
    13 N8       9.5873  -0.5159   3.1335   N.2       1 RES1   0.0000
    14 N9       7.5097   2.2940   5.3156   N.pl3     1 RES1   0.0000
    15 N10      9.5760   3.1085   5.2685   N.2       1 RES1   0.0000
    16 O1       5.0345  -0.1127   2.0308   O.3       1 RES1   0.0000
    17 O2       5.0374   2.6906   6.3724   O.3       1 RES1   0.0000
    18 O3       3.3653  -1.4242   3.2498   O.3       1 RES1   0.0000
    19 O4       2.6503   2.2624   6.7143   O.3       1 RES1   0.0000
    20 O5       2.6425   0.3060   1.6999   O.3       1 RES1   0.0000
    21 O6       3.3485   3.9946   5.1744   O.3       1 RES1   0.0000
    22 C1       6.3536   0.8903   3.6369   C.2       1 RES1   0.0000
    23 C2       6.3483   1.6958   4.8139   C.2       1 RES1   0.0000
    24 C3       2.2854  -0.9114   5.1995   C.2       1 RES1   0.0000
    25 C4       2.0818   0.1186   6.1794   C.2       1 RES1   0.0000
    26 C5       2.0740   2.4655   2.2579   C.2       1 RES1   0.0000
    27 C6       2.2865   3.5044   3.2143   C.2       1 RES1   0.0000
    28 C7       1.5318  -2.1873   5.1621   C.ar      1 RES1   0.0000
    29 C8       2.1800  -3.3998   4.9568   C.ar      1 RES1   0.0000
    30 H1       3.1057  -3.4217   4.8610   H         1 RES1   0.0000
    31 C9       1.4467  -4.5782   4.8938   C.ar      1 RES1   0.0000
    32 H2       1.8806  -5.3891   4.7566   H         1 RES1   0.0000
    33 C10      0.0650  -4.5442   5.0361   C.ar      1 RES1   0.0000
    34 H3      -0.4267  -5.3334   4.9940   H         1 RES1   0.0000
    35 C11     -0.5839  -3.3327   5.2415   C.ar      1 RES1   0.0000
    36 H4      -1.5090  -3.3097   5.3375   H         1 RES1   0.0000
    37 C12      0.1501  -2.1532   5.3045   C.ar      1 RES1   0.0000
    38 H5      -0.2839  -1.3423   5.4419   H         1 RES1   0.0000
    39 C13      1.3424  -0.0537   7.4389   C.ar      1 RES1   0.0000
    40 C14      1.6919  -1.0972   8.2875   C.ar      1 RES1   0.0000
    41 H6       2.3860  -1.6708   8.0585   H         1 RES1   0.0000
    42 C15      1.0025  -1.2835   9.4802   C.ar      1 RES1   0.0000
    43 H7       1.2359  -1.9820  10.0487   H         1 RES1   0.0000
    44 C16     -0.0357  -0.4252   9.8241   C.ar      1 RES1   0.0000
    45 H8      -0.4964  -0.5498  10.6228   H         1 RES1   0.0000
    46 C17     -0.3851   0.6185   8.9761   C.ar      1 RES1   0.0000
    47 H9      -1.0793   1.1921   9.2051   H         1 RES1   0.0000
    48 C18      0.3042   0.8046   7.7827   C.ar      1 RES1   0.0000
    49 H10      0.0708   1.5033   7.2149   H         1 RES1   0.0000
    50 C19      1.3400   2.6471   0.9835   C.ar      1 RES1   0.0000
    51 C20      1.6930   3.6774   0.1195   C.ar      1 RES1   0.0000
    52 H11      2.3901   4.2521   0.3418   H         1 RES1   0.0000
    53 C21      1.0042   3.8491  -1.0752   C.ar      1 RES1   0.0000
    54 H12      1.2399   4.5381  -1.6535   H         1 RES1   0.0000
    55 C22     -0.0375   2.9903  -1.4066   C.ar      1 RES1   0.0000
    56 H13     -0.4983   3.1061  -2.2057   H         1 RES1   0.0000
    57 C23     -0.3905   1.9597  -0.5439   C.ar      1 RES1   0.0000
    58 H14     -1.0870   1.3866  -0.7644   H         1 RES1   0.0000
    59 C24      0.2982   1.7884   0.6521   C.ar      1 RES1   0.0000
    60 H15      0.0625   1.0990   1.2291   H         1 RES1   0.0000
    61 C25      1.5311   4.7769   3.2512   C.ar      1 RES1   0.0000
    62 C26      2.1835   5.9869   3.4588   C.ar      1 RES1   0.0000
    63 H16      3.1080   6.0060   3.5527   H         1 RES1   0.0000
    64 C27      1.4525   7.1667   3.5265   C.ar      1 RES1   0.0000
    65 H17      1.8888   7.9761   3.6655   H         1 RES1   0.0000
    66 C28      0.0696   7.1377   3.3864   C.ar      1 RES1   0.0000
    67 H18     -0.4186   7.9278   3.4315   H         1 RES1   0.0000
    68 C29     -0.5817   5.9277   3.1788   C.ar      1 RES1   0.0000
    69 H19     -1.5074   5.9085   3.0846   H         1 RES1   0.0000
    70 C30      0.1488   4.7468   3.1111   C.ar      1 RES1   0.0000
    71 H20     -0.2876   3.9374   2.9718   H         1 RES1   0.0000
    72 C31      8.5831  -0.1455   3.8878   C.2       1 RES1   0.0000
    73 H21      8.5872  -0.1643   4.8172   H         1 RES1   0.0000
    74 C32      9.1527  -0.3371   1.8606   C.2       1 RES1   0.0000
    75 H22      9.6653  -0.5322   1.1096   H         1 RES1   0.0000
    76 C33      7.8895   0.1556   1.7983   C.2       1 RES1   0.0000
    77 H23      7.3960   0.3616   1.0372   H         1 RES1   0.0000
    78 C34      8.5669   2.7394   4.5394   C.2       1 RES1   0.0000
    79 H24      8.5556   2.7711   3.6100   H         1 RES1   0.0000
    80 C35      9.1492   2.9139   6.5566   C.2       1 RES1   0.0000
    81 H25      9.6665   3.1005   7.3075   H         1 RES1   0.0000
    82 C36      7.8615   2.4100   6.6138   C.2       1 RES1   0.0000
    83 H26      7.3591   2.2003   7.3665   H         1 RES1   0.0000
    84 O7      -5.6303  -1.0539   5.9992   O.2       2 RES2   0.0000
    85 C37     -5.4696  -1.1449   7.2082   C.2       2 RES2   0.0000
    86 C38     -6.4512  -0.5723   8.1376   C.3       2 RES2   0.0000
    87 H27     -7.1489  -0.1405   7.6392   H         2 RES2   0.0000
    88 H28     -6.0173   0.0697   8.7050   H         2 RES2   0.0000
    89 H29     -6.8274  -1.2718   8.6747   H         2 RES2   0.0000
    90 C39     -4.3409  -1.8439   7.7958   C.3       2 RES2   0.0000
    91 H30     -3.7700  -2.1752   7.0987   H         2 RES2   0.0000
    92 H31     -4.6588  -2.5777   8.3262   H         2 RES2   0.0000
    93 H32     -3.8444  -1.2378   8.3548   H         2 RES2   0.0000
    94 O8      -6.3054  -3.6235  -2.3943   O.2       3 RES3   0.0000
    95 C40     -6.4232  -3.7312  -1.2190   C.2       3 RES3   0.0000
    96 C41     -7.5811  -4.4247  -0.6449   C.3       3 RES3   0.0000
    97 H33     -8.1389  -4.7570  -1.3521   H         3 RES3   0.0000
    98 H34     -8.0829  -3.8136  -0.1010   H         3 RES3   0.0000
    99 H35     -7.2781  -5.1587  -0.1044   H         3 RES3   0.0000
   100 C42     -5.4499  -3.1448  -0.2374   C.3       3 RES3   0.0000
   101 H36     -4.7380  -2.7127  -0.7139   H         3 RES3   0.0000
   102 H37     -5.0892  -3.8450   0.3115   H         3 RES3   0.0000
   103 H38     -5.9012  -2.5037   0.3165   H         3 RES3   0.0000
   104 O9      11.7631   1.3008   4.1858   O.3       4 RES4   0.0000
   105 H39     11.7304   1.8482   4.6623   H         4 RES4   0.0000
   106 H40     11.6828   0.3892   4.1690   H         4 RES4   0.0000
@<TRIPOS>BOND
     1     1     6    1
     2     2     4    1
     3     3     5    1
     4     4    16    1
     5     5    17    1
     6     6    16    1
     7     7     1    1
     8     8     1    1
     9     9     1    1
    10    10     1    1
    11    11     1    1
    12    12    22    1
    13    13    72    2
    14    14    23    1
    15    15    78    2
    16    17     7    1
    17    18     4    1
    18    19     5    1
    19    20     4    1
    20    21     5    1
    21    22     6    2
    22    23     7    2
    23    24     8    2
    24    25     9    2
    25    26    10    2
    26    27    11    2
    27    28    24    1
    28    29    28   ar
    29    30    29    1
    30    31    29   ar
    31    32    31    1
    32    33    31   ar
    33    34    33    1
    34    35    33   ar
    35    36    35    1
    36    37    28   ar
    37    38    37    1
    38    39    25    1
    39    40    39   ar
    40    41    40    1
    41    42    40   ar
    42    43    42    1
    43    44    42   ar
    44    45    44    1
    45    46    44   ar
    46    47    46    1
    47    48    39   ar
    48    49    48    1
    49    50    26    1
    50    51    50   ar
    51    52    51    1
    52    53    51   ar
    53    54    53    1
    54    55    53   ar
    55    56    55    1
    56    57    55   ar
    57    58    57    1
    58    59    50   ar
    59    60    59    1
    60    61    27    1
    61    62    61   ar
    62    63    62    1
    63    64    62   ar
    64    65    64    1
    65    66    64   ar
    66    67    66    1
    67    68    66   ar
    68    69    68    1
    69    70    61   ar
    70    71    70    1
    71    72    12    1
    72    73    72    1
    73    74    13    1
    74    75    74    1
    75    76    12    1
    76    77    76    1
    77    78    14    1
    78    79    78    1
    79    80    15    1
    80    81    80    1
    81    82    14    1
    82    83    82    1
    83     8    18    1
    84     9    19    1
    85    10    20    1
    86    11    21    1
    87    22    23    1
    88    24    25    1
    89    26    27    1
    90    35    37   ar
    91    46    48   ar
    92    57    59   ar
    93    68    70   ar
    94    74    76    2
    95    80    82    2
    96    84    85    2
    97    85    86    1
    98    86    87    1
    99    88    86    1
   100    89    86    1
   101    90    85    1
   102    91    90    1
   103    92    90    1
   104    93    90    1
   105    94    95    2
   106    95    96    1
   107    96    97    1
   108    98    96    1
   109    99    96    1
   110   100    95    1
   111   101   100    1
   112   102   100    1
   113   103   100    1
   114   104   105    1
   115   106   104    1
@<TRIPOS>SUBSTRUCTURE
     1 RES1        1 GROUP             0 ****  ****    0  
     2 RES2       84 GROUP             0 ****  ****    0  
     3 RES3       94 GROUP             0 ****  ****    0  
     4 RES4      104 GROUP             0 ****  ****    0  
@<TRIPOS>CRYSIN
   11.9060   12.2900   17.6140   75.1150   90.0000   61.0290     2     1
