@<TRIPOS>MOLECULE
KOGVOS
    88    95     1     0     0
SMALL
NO_CHARGES
****
Generated from the CSD

@<TRIPOS>ATOM
     1 Fe1      8.3750  11.6868   4.5995   Fe        1 RES1   0.0000
     2 P1       7.8419   9.7359   5.4461   P.3       1 RES1   0.0000
     3 O1       9.0840  14.4971   4.7512   O.2       1 RES1   0.0000
     4 C1       7.6946   8.4627   4.1169   C.3       1 RES1   0.0000
     5 H1       8.5827   8.0480   3.9752   H         1 RES1   0.0000
     6 H2       7.0790   7.7529   4.4261   H         1 RES1   0.0000
     7 P2       6.5025  11.7040   3.4451   P.3       1 RES1   0.0000
     8 C2       8.3239   9.6649   1.9374   C.3       1 RES1   0.0000
     9 H3       7.9205  10.1863   1.1980   H         1 RES1   0.0000
    10 H4       8.8719   8.9461   1.5320   H         1 RES1   0.0000
    11 P3       9.4374  10.7791   2.9062   P.3       1 RES1   0.0000
    12 C3       6.0087   9.9944   2.9677   C.3       1 RES1   0.0000
    13 H5       5.4136   9.6305   3.6715   H         1 RES1   0.0000
    14 H6       5.4838  10.0415   2.1301   H         1 RES1   0.0000
    15 C4       7.1810   9.0076   2.7583   C.3       1 RES1   0.0000
    16 C5       6.6548   7.8181   1.9414   C.3       1 RES1   0.0000
    17 H7       7.3555   7.1373   1.8697   H         1 RES1   0.0000
    18 H8       6.4005   8.1223   1.0471   H         1 RES1   0.0000
    19 H9       5.8724   7.4342   2.3904   H         1 RES1   0.0000
    20 C6       8.9424   8.9533   6.6954   C.ar      1 RES1   0.0000
    21 C7       9.6620   9.7554   7.5788   C.ar      1 RES1   0.0000
    22 H10      9.5883  10.7005   7.5184   H         1 RES1   0.0000
    23 C8      10.4753   9.1977   8.5353   C.ar      1 RES1   0.0000
    24 H11     10.9609   9.7608   9.1258   H         1 RES1   0.0000
    25 C9      10.5938   7.8217   8.6504   C.ar      1 RES1   0.0000
    26 H12     11.1625   7.4397   9.3089   H         1 RES1   0.0000
    27 C10      9.8708   7.0088   7.7882   C.ar      1 RES1   0.0000
    28 H13      9.9371   6.0636   7.8599   H         1 RES1   0.0000
    29 C11      9.0482   7.5773   6.8241   C.ar      1 RES1   0.0000
    30 H14      8.5500   7.0124   6.2449   H         1 RES1   0.0000
    31 C12      6.2488   9.5436   6.3628   C.ar      1 RES1   0.0000
    32 C13      5.5940  10.6444   6.8652   C.ar      1 RES1   0.0000
    33 H15      5.9538  11.5117   6.7147   H         1 RES1   0.0000
    34 C14      4.4118  10.5086   7.5920   C.ar      1 RES1   0.0000
    35 H16      3.9642  11.2781   7.9221   H         1 RES1   0.0000
    36 C15      3.8911   9.2503   7.8297   C.ar      1 RES1   0.0000
    37 H17      3.0854   9.1525   8.3221   H         1 RES1   0.0000
    38 C16      4.5476   8.1367   7.3486   C.ar      1 RES1   0.0000
    39 H18      4.1964   7.2695   7.5127   H         1 RES1   0.0000
    40 C17      5.7140   8.2834   6.6260   C.ar      1 RES1   0.0000
    41 H19      6.1617   7.5103   6.3034   H         1 RES1   0.0000
    42 C18      4.9828  12.4097   4.1946   C.ar      1 RES1   0.0000
    43 C19      5.0747  13.7097   4.6865   C.ar      1 RES1   0.0000
    44 H20      5.9061  14.1660   4.6412   H         1 RES1   0.0000
    45 C20      3.9792  14.3488   5.2431   C.ar      1 RES1   0.0000
    46 H21      4.0472  15.2541   5.5242   H         1 RES1   0.0000
    47 C21      2.7881  13.6663   5.3846   C.ar      1 RES1   0.0000
    48 H22      2.0400  14.0863   5.7921   H         1 RES1   0.0000
    49 C22      2.6944  12.3807   4.9355   C.ar      1 RES1   0.0000
    50 H23      1.8798  11.9046   5.0487   H         1 RES1   0.0000
    51 C23      3.7699  11.7579   4.3129   C.ar      1 RES1   0.0000
    52 H24      3.6714  10.8780   3.9677   H         1 RES1   0.0000
    53 C24      6.4421  12.5962   1.8206   C.ar      1 RES1   0.0000
    54 C25      5.4151  12.3753   0.8962   C.ar      1 RES1   0.0000
    55 H25      4.7058  11.7833   1.1150   H         1 RES1   0.0000
    56 C26      5.4200  13.0126  -0.3396   C.ar      1 RES1   0.0000
    57 H26      4.7193  12.8479  -0.9584   H         1 RES1   0.0000
    58 C27      6.4363  13.8799  -0.6660   C.ar      1 RES1   0.0000
    59 H27      6.4603  14.2891  -1.5225   H         1 RES1   0.0000
    60 C28      7.4174  14.1479   0.2585   C.ar      1 RES1   0.0000
    61 H28      8.1001  14.7743   0.0491   H         1 RES1   0.0000
    62 C29      7.4233  13.5178   1.4886   C.ar      1 RES1   0.0000
    63 H29      8.1089  13.7206   2.1150   H         1 RES1   0.0000
    64 C30     10.1919  11.8665   1.6471   C.ar      1 RES1   0.0000
    65 C31     10.1011  11.6927   0.2755   C.ar      1 RES1   0.0000
    66 H30      9.5634  10.9920  -0.0736   H         1 RES1   0.0000
    67 C32     10.7869  12.5310  -0.5981   C.ar      1 RES1   0.0000
    68 H31     10.7099  12.4007  -1.5358   H         1 RES1   0.0000
    69 C33     11.5694  13.5413  -0.1151   C.ar      1 RES1   0.0000
    70 H32     12.0566  14.0936  -0.7132   H         1 RES1   0.0000
    71 C34     11.6501  13.7532   1.2282   C.ar      1 RES1   0.0000
    72 H33     12.1727  14.4720   1.5659   H         1 RES1   0.0000
    73 C35     10.9657  12.9167   2.1074   C.ar      1 RES1   0.0000
    74 H34     11.0306  13.0706   3.0432   H         1 RES1   0.0000
    75 C36     10.8931   9.6594   3.1583   C.ar      1 RES1   0.0000
    76 C37     11.5948   9.1326   2.0640   C.ar      1 RES1   0.0000
    77 H35     11.3371   9.3824   1.1829   H         1 RES1   0.0000
    78 C38     12.6544   8.2562   2.2357   C.ar      1 RES1   0.0000
    79 H36     13.1179   7.9159   1.4792   H         1 RES1   0.0000
    80 C39      8.8015  13.3440   4.6167   C.1       1 RES1   0.0000
    81 C40     13.0351   7.8796   3.5073   C.ar      1 RES1   0.0000
    82 H37     13.7494   7.2659   3.6300   H         1 RES1   0.0000
    83 C41     12.3770   8.3957   4.5941   C.ar      1 RES1   0.0000
    84 H38     12.6436   8.1458   5.4695   H         1 RES1   0.0000
    85 C42     11.3187   9.2883   4.4205   C.ar      1 RES1   0.0000
    86 H39     10.8819   9.6468   5.1846   H         1 RES1   0.0000
    87 H40      7.8031  12.4912   5.8261   H         1 RES1   0.0000
    88 H41      9.7159  11.5877   5.3299   H         1 RES1   0.0000
@<TRIPOS>BOND
     1     1     2    1
     2     2     4    1
     3     3    80    3
     4     4     5    1
     5     6     4    1
     6     7     1    1
     7     8     9    1
     8    10     8    1
     9    11     1    1
    10    12     7    1
    11    13    12    1
    12    14    12    1
    13    15     4    1
    14    16    15    1
    15    17    16    1
    16    18    16    1
    17    19    16    1
    18    20     2    1
    19    21    20   ar
    20    22    21    1
    21    23    21   ar
    22    24    23    1
    23    25    23   ar
    24    26    25    1
    25    27    25   ar
    26    28    27    1
    27    29    20   ar
    28    30    29    1
    29    31     2    1
    30    32    31   ar
    31    33    32    1
    32    34    32   ar
    33    35    34    1
    34    36    34   ar
    35    37    36    1
    36    38    36   ar
    37    39    38    1
    38    40    31   ar
    39    41    40    1
    40    42     7    1
    41    43    42   ar
    42    44    43    1
    43    45    43   ar
    44    46    45    1
    45    47    45   ar
    46    48    47    1
    47    49    47   ar
    48    50    49    1
    49    51    42   ar
    50    52    51    1
    51    53     7    1
    52    54    53   ar
    53    55    54    1
    54    56    54   ar
    55    57    56    1
    56    58    56   ar
    57    59    58    1
    58    60    58   ar
    59    61    60    1
    60    62    53   ar
    61    63    62    1
    62    64    11    1
    63    65    64   ar
    64    66    65    1
    65    67    65   ar
    66    68    67    1
    67    69    67   ar
    68    70    69    1
    69    71    69   ar
    70    72    71    1
    71    73    64   ar
    72    74    73    1
    73    75    11    1
    74    76    75   ar
    75    77    76    1
    76    78    76   ar
    77    79    78    1
    78    80     1    1
    79    81    78   ar
    80    82    81    1
    81    83    81   ar
    82    84    83    1
    83    85    75   ar
    84    86    85    1
    85    87     1    1
    86    88     1    1
    87     8    11    1
    88     8    15    1
    89    12    15    1
    90    27    29   ar
    91    38    40   ar
    92    49    51   ar
    93    60    62   ar
    94    71    73   ar
    95    83    85   ar
@<TRIPOS>SUBSTRUCTURE
     1 RES1        1 GROUP             0 ****  ****    0  
@<TRIPOS>CRYSIN
   10.1997   18.1058   18.9884   90.0000   96.4890   90.0000   231     1
