@<TRIPOS>MOLECULE
KOKKUR02
    86    93     4     0     0
SMALL
USER_CHARGES
****
Generated from the CSD

@<TRIPOS>ATOM
     1 C1      -7.9395  -0.6615  18.2346   C.3       1 RES1   0.0000
     2 H1      -8.8253  -0.3999  18.5585   H         1 RES1   0.0000
     3 H2      -8.0299  -1.4053  17.6004   H         1 RES1   0.0000
     4 H3      -7.5157   0.0990  17.7855   H         1 RES1   0.0000
     5 C2      -7.0920  -1.0932  19.3901   C.ar      1 RES1   0.0000
     6 C3      -7.5733  -1.1642  20.6680   C.ar      1 RES1   0.0000
     7 H4      -8.4643  -0.8895  20.8518   H         1 RES1   0.0000
     8 C4      -6.7696  -1.6370  21.7038   C.ar      1 RES1   0.0000
     9 H5      -7.1087  -1.6762  22.5911   H         1 RES1   0.0000
    10 C5      -5.5106  -2.0388  21.4424   C.ar      1 RES1   0.0000
    11 H6      -4.9609  -2.3714  22.1420   H         1 RES1   0.0000
    12 C6      -5.0354  -1.9621  20.1890   C.ar      1 RES1   0.0000
    13 H7      -4.1446  -2.2387  20.0066   H         1 RES1   0.0000
    14 C7      -5.8125  -1.4968  19.1791   C.ar      1 RES1   0.0000
    15 H8      -5.4514  -1.4520  18.3013   H         1 RES1   0.0000
    16 O1      -3.3780   2.3957  15.3357   O.3       2 RES2  -1.0000
    17 O2      -2.9429   0.3438  16.2666   O.2       2 RES2   0.0000
    18 O3      -4.9416   1.2857  16.5919   O.2       2 RES2   0.0000
    19 O4      -4.4991   0.5438  14.5068   O.2       2 RES2   0.0000
    20 Cl1     -3.8747   1.1197  15.6411   Cl        2 RES2   0.0000
    21 O5      -6.6137   4.0738  12.0121   O.3       3 RES3  -1.0000
    22 O6      -8.3039   2.5061  12.2136   O.2       3 RES3   0.0000
    23 O7      -8.2199   3.8918  10.3463   O.2       3 RES3   0.0000
    24 O8      -6.6441   2.2125  10.6117   O.2       3 RES3   0.0000
    25 Cl2     -7.4388   3.1680  11.2916   Cl        3 RES3   0.0000
    26 Fe1     -1.9667   4.7994   9.6523   Fe        4 RES4   2.0000
    27 N1      -3.6069   5.8414   9.2493   N.ar      4 RES4   0.0000
    28 N2      -1.2243   6.3035   8.8002   N.2       4 RES4   0.0000
    29 N3       0.0358   6.6726   8.5702   N.pl3     4 RES4   0.0000
    30 N4      -0.1183   4.0556  10.0237   N.ar      4 RES4   0.0000
    31 N5      -2.1359   3.6832   8.0162   N.ar      4 RES4   0.0000
    32 N6      -2.8951   3.3244  10.3340   N.2       4 RES4   0.0000
    33 N7      -3.3285   3.0217  11.5630   N.pl3     4 RES4   0.0000
    34 N8      -1.7871   5.5611  11.5331   N.ar      4 RES4   0.0000
    35 C8      -4.8799   5.4473   9.3650   C.ar      4 RES4   0.0000
    36 H9      -5.0570   4.5764   9.6998   H         4 RES4   0.0000
    37 C9      -5.9420   6.2452   9.0207   C.ar      4 RES4   0.0000
    38 H10     -6.8312   5.9313   9.1323   H         4 RES4   0.0000
    39 C10     -5.7108   7.4785   8.5239   C.ar      4 RES4   0.0000
    40 H11     -6.4347   8.0373   8.2667   H         4 RES4   0.0000
    41 C11     -4.4125   7.9139   8.3946   C.ar      4 RES4   0.0000
    42 H12     -4.2286   8.7810   8.0503   H         4 RES4   0.0000
    43 C12     -3.3927   7.0880   8.7662   C.ar      4 RES4   0.0000
    44 C13     -1.9929   7.3851   8.6178   C.2       4 RES4   0.0000
    45 C14     -1.1930   8.4540   8.2599   C.2       4 RES4   0.0000
    46 H13     -1.4693   9.3435   8.0734   H         4 RES4   0.0000
    47 C15      0.0842   7.9607   8.2326   C.2       4 RES4   0.0000
    48 H14      0.8676   8.4503   8.0122   H         4 RES4   0.0000
    49 C16      1.0154   5.6192   8.4708   C.3       4 RES4   0.0000
    50 H15      1.9132   6.0322   8.4055   H         4 RES4   0.0000
    51 H16      0.8547   5.1202   7.6311   H         4 RES4   0.0000
    52 C17      1.0268   4.6437   9.6032   C.ar      4 RES4   0.0000
    53 C18      2.2448   4.2905  10.1299   C.ar      4 RES4   0.0000
    54 H17      3.0312   4.7297   9.8291   H         4 RES4   0.0000
    55 C19      2.3401   3.3132  11.0839   C.ar      4 RES4   0.0000
    56 H18      3.1808   3.0777  11.4596   H         4 RES4   0.0000
    57 C20      1.1957   2.6853  11.4800   C.ar      4 RES4   0.0000
    58 H19      1.2231   1.9864  12.1224   H         4 RES4   0.0000
    59 C21      0.0145   3.0815  10.9356   C.ar      4 RES4   0.0000
    60 H20     -0.7753   2.6349  11.2214   H         4 RES4   0.0000
    61 C22     -1.7817   4.0009   6.7641   C.ar      4 RES4   0.0000
    62 H21     -1.4621   4.8792   6.5899   H         4 RES4   0.0000
    63 C23     -1.8629   3.1151   5.7284   C.ar      4 RES4   0.0000
    64 H22     -1.6050   3.3786   4.8519   H         4 RES4   0.0000
    65 C24     -2.3168   1.8463   5.9598   C.ar      4 RES4   0.0000
    66 H23     -2.3667   1.2147   5.2521   H         4 RES4   0.0000
    67 C25     -2.6983   1.4987   7.2310   C.ar      4 RES4   0.0000
    68 H24     -3.0267   0.6260   7.4188   H         4 RES4   0.0000
    69 C26     -2.5962   2.4387   8.2245   C.ar      4 RES4   0.0000
    70 C27     -3.0160   2.2294   9.5936   C.2       4 RES4   0.0000
    71 C28     -3.5395   1.1997  10.3544   C.2       4 RES4   0.0000
    72 H25     -3.7277   0.3102  10.0782   H         4 RES4   0.0000
    73 C29     -3.7277   1.7510  11.5984   C.2       4 RES4   0.0000
    74 H26     -4.0818   1.3006  12.3565   H         4 RES4   0.0000
    75 C30     -3.5393   4.1111  12.4858   C.3       4 RES4   0.0000
    76 H27     -3.7563   3.7337  13.3745   H         4 RES4   0.0000
    77 H28     -4.3242   4.6325  12.1836   H         4 RES4   0.0000
    78 C31     -2.3850   5.0343  12.6314   C.ar      4 RES4   0.0000
    79 C32     -2.0206   5.4080  13.9025   C.ar      4 RES4   0.0000
    80 H29     -2.4651   5.0212  14.6484   H         4 RES4   0.0000
    81 C33     -1.0319   6.3255  14.1121   C.ar      4 RES4   0.0000
    82 H30     -0.7790   6.5853  14.9900   H         4 RES4   0.0000
    83 C34     -0.4168   6.8544  13.0084   C.ar      4 RES4   0.0000
    84 H31      0.2812   7.4916  13.1064   H         4 RES4   0.0000
    85 C35     -0.8199   6.4564  11.7685   C.ar      4 RES4   0.0000
    86 H32     -0.3845   6.8432  11.0186   H         4 RES4   0.0000
@<TRIPOS>BOND
     1     1     2    1
     2     3     1    1
     3     4     1    1
     4     5     1    1
     5     6     5   ar
     6     7     6    1
     7     8     6   ar
     8     9     8    1
     9    10     8   ar
    10    11    10    1
    11    12    10   ar
    12    13    12    1
    13    14     5   ar
    14    15    14    1
    15    12    14   ar
    16    16    20    1
    17    17    20    2
    18    18    20    2
    19    19    20    2
    20    21    25    1
    21    22    25    2
    22    23    25    2
    23    24    25    2
    24    26    27    1
    25    27    35   ar
    26    28    26    1
    27    29    28    1
    28    30    26    1
    29    31    26    1
    30    32    26    1
    31    33    32    1
    32    34    26    1
    33    35    36    1
    34    37    35   ar
    35    38    37    1
    36    39    37   ar
    37    40    39    1
    38    41    39   ar
    39    42    41    1
    40    43    27   ar
    41    44    28    2
    42    45    44    1
    43    46    45    1
    44    47    29    1
    45    48    47    1
    46    49    29    1
    47    50    49    1
    48    51    49    1
    49    52    30   ar
    50    53    52   ar
    51    54    53    1
    52    55    53   ar
    53    56    55    1
    54    57    55   ar
    55    58    57    1
    56    59    30   ar
    57    60    59    1
    58    61    31   ar
    59    62    61    1
    60    63    61   ar
    61    64    63    1
    62    65    63   ar
    63    66    65    1
    64    67    65   ar
    65    68    67    1
    66    69    31   ar
    67    70    32    2
    68    71    70    1
    69    72    71    1
    70    73    33    1
    71    74    73    1
    72    75    33    1
    73    76    75    1
    74    77    75    1
    75    78    34   ar
    76    79    78   ar
    77    80    79    1
    78    81    79   ar
    79    82    81    1
    80    83    81   ar
    81    84    83    1
    82    85    34   ar
    83    86    85    1
    84    41    43   ar
    85    43    44    1
    86    45    47    2
    87    49    52    1
    88    57    59   ar
    89    67    69   ar
    90    69    70    1
    91    71    73    2
    92    75    78    1
    93    83    85   ar
@<TRIPOS>SUBSTRUCTURE
     1 RES1        1 GROUP             0 ****  ****    0  
     2 RES2       16 GROUP             0 ****  ****    0  
     3 RES3       21 GROUP             0 ****  ****    0  
     4 RES4       26 GROUP             0 ****  ****    0  
@<TRIPOS>CRYSIN
   13.7370   18.6870   13.7410   90.0000   97.9200   90.0000   231     1
