@<TRIPOS>MOLECULE
KOLYUJ
   119   128     2     0     0
SMALL
NO_CHARGES
****
Generated from the CSD

@<TRIPOS>ATOM
     1 Fe1      8.1519   8.1710   4.3902   Fe        1 RES1   0.0000
     2 H1       7.1332   9.0072   3.7623   H         1 RES1   0.0000
     3 H2       8.4000   9.3188   5.3667   H         1 RES1   0.0000
     4 P1       9.2966   9.4163   3.0383   P.3       1 RES1   0.0000
     5 P2       7.7925   6.7701   2.7323   P.3       1 RES1   0.0000
     6 P3       6.6267   7.8892   5.8940   P.3       1 RES1   0.0000
     7 P4       9.5375   7.0115   5.6614   P.3       1 RES1   0.0000
     8 C1       8.8286  11.2088   2.8788   C.ar      1 RES1   0.0000
     9 C2       8.1595  11.8489   3.9297   C.ar      1 RES1   0.0000
    10 H3       7.9443  11.3700   4.6973   H         1 RES1   0.0000
    11 C3       7.8089  13.2090   3.8369   C.ar      1 RES1   0.0000
    12 H4       7.3712  13.6230   4.5455   H         1 RES1   0.0000
    13 C4       8.1167  13.9454   2.6801   C.ar      1 RES1   0.0000
    14 H5       7.8940  14.8466   2.6258   H         1 RES1   0.0000
    15 C5       8.7578  13.3157   1.6152   C.ar      1 RES1   0.0000
    16 H6       8.9422  13.7906   0.8371   H         1 RES1   0.0000
    17 C6       9.1256  11.9625   1.7165   C.ar      1 RES1   0.0000
    18 H7       9.5714  11.5555   1.0091   H         1 RES1   0.0000
    19 C7      11.1383   9.6072   3.2108   C.ar      1 RES1   0.0000
    20 C8      11.6516  10.3436   4.3043   C.ar      1 RES1   0.0000
    21 H8      11.0624  10.7845   4.8731   H         1 RES1   0.0000
    22 C9      13.0350  10.4231   4.5494   C.ar      1 RES1   0.0000
    23 H9      13.3546  10.9076   5.2760   H         1 RES1   0.0000
    24 C10     13.9239   9.7699   3.6949   C.ar      1 RES1   0.0000
    25 H10     14.8395   9.8172   3.8511   H         1 RES1   0.0000
    26 C11     13.4378   9.0461   2.6060   C.ar      1 RES1   0.0000
    27 H11     14.0332   8.6152   2.0362   H         1 RES1   0.0000
    28 C12     12.0501   8.9620   2.3612   C.ar      1 RES1   0.0000
    29 H12     11.7381   8.4757   1.6324   H         1 RES1   0.0000
    30 C13      9.0650   8.7970   1.2798   C.3       1 RES1   0.0000
    31 H13      8.2564   9.1711   0.8960   H         1 RES1   0.0000
    32 H14      9.8183   9.0616   0.7288   H         1 RES1   0.0000
    33 C14      8.9636   7.2558   1.3426   C.3       1 RES1   0.0000
    34 H15      9.8409   6.8744   1.5029   H         1 RES1   0.0000
    35 H16      8.6325   6.9128   0.4979   H         1 RES1   0.0000
    36 C15      6.1696   6.8216   1.7788   C.ar      1 RES1   0.0000
    37 C16      5.5987   8.0772   1.4604   C.ar      1 RES1   0.0000
    38 H17      6.0055   8.8546   1.7688   H         1 RES1   0.0000
    39 C17      4.4244   8.1720   0.6842   C.ar      1 RES1   0.0000
    40 H18      4.0822   9.0078   0.4624   H         1 RES1   0.0000
    41 C18      3.7710   7.0109   0.2458   C.ar      1 RES1   0.0000
    42 H19      2.9896   7.0714  -0.2550   H         1 RES1   0.0000
    43 C19      4.3079   5.7616   0.5704   C.ar      1 RES1   0.0000
    44 H20      3.8752   4.9874   0.2907   H         1 RES1   0.0000
    45 C20      5.4994   5.6649   1.3177   C.ar      1 RES1   0.0000
    46 H21      5.8508   4.8258   1.5107   H         1 RES1   0.0000
    47 C21      8.0073   4.9343   2.8449   C.ar      1 RES1   0.0000
    48 C22      8.8836   4.2134   2.0137   C.ar      1 RES1   0.0000
    49 H22      9.4272   4.6644   1.4087   H         1 RES1   0.0000
    50 C23      8.9375   2.8114   2.0978   C.ar      1 RES1   0.0000
    51 H23      9.5270   2.3416   1.5532   H         1 RES1   0.0000
    52 C24      8.1176   2.1142   2.9887   C.ar      1 RES1   0.0000
    53 H24      8.1416   1.1849   3.0148   H         1 RES1   0.0000
    54 C25      7.2604   2.8175   3.8410   C.ar      1 RES1   0.0000
    55 H25      6.7265   2.3605   4.4500   H         1 RES1   0.0000
    56 C26      7.2117   4.2214   3.7698   C.ar      1 RES1   0.0000
    57 H26      6.6460   4.6886   4.3414   H         1 RES1   0.0000
    58 C27      5.6571   9.3790   6.3994   C.ar      1 RES1   0.0000
    59 C28      5.2399   9.5778   7.7379   C.ar      1 RES1   0.0000
    60 H27      5.4843   8.9690   8.3972   H         1 RES1   0.0000
    61 C29      4.4578  10.6938   8.0677   C.ar      1 RES1   0.0000
    62 H28      4.1818  10.8248   8.9461   H         1 RES1   0.0000
    63 C30      4.0908  11.6150   7.0713   C.ar      1 RES1   0.0000
    64 H29      3.5729  12.3545   7.2943   H         1 RES1   0.0000
    65 C31      4.4980  11.4272   5.7499   C.ar      1 RES1   0.0000
    66 H30      4.2499  12.0372   5.0933   H         1 RES1   0.0000
    67 C32      5.2785  10.3209   5.4193   C.ar      1 RES1   0.0000
    68 H31      5.5540  10.2016   4.5392   H         1 RES1   0.0000
    69 C33      5.1991   6.7038   5.7191   C.ar      1 RES1   0.0000
    70 C34      4.2192   6.9722   4.7224   C.ar      1 RES1   0.0000
    71 H32      4.3054   7.7255   4.1839   H         1 RES1   0.0000
    72 C35      3.1208   6.1101   4.5426   C.ar      1 RES1   0.0000
    73 H33      2.4742   6.3072   3.9039   H         1 RES1   0.0000
    74 C36      3.0020   4.9481   5.3312   C.ar      1 RES1   0.0000
    75 H34      2.2751   4.3795   5.2169   H         1 RES1   0.0000
    76 C37      3.9801   4.6523   6.2861   C.ar      1 RES1   0.0000
    77 H35      3.9139   3.8733   6.7898   H         1 RES1   0.0000
    78 C38      5.0679   5.5302   6.4899   C.ar      1 RES1   0.0000
    79 H36      5.7039   5.3321   7.1388   H         1 RES1   0.0000
    80 C39      7.4461   7.3229   7.4910   C.3       1 RES1   0.0000
    81 H37      7.8358   8.0796   7.9561   H         1 RES1   0.0000
    82 H38      6.7936   6.9047   8.0742   H         1 RES1   0.0000
    83 C40      8.5396   6.3137   7.1038   C.3       1 RES1   0.0000
    84 H39      8.1345   5.4706   6.8471   H         1 RES1   0.0000
    85 H40      9.1234   6.1530   7.8615   H         1 RES1   0.0000
    86 C41     10.9256   7.8706   6.5968   C.ar      1 RES1   0.0000
    87 C42     12.2600   7.4178   6.6520   C.ar      1 RES1   0.0000
    88 H41     12.4969   6.6419   6.1973   H         1 RES1   0.0000
    89 C43     13.2442   8.1180   7.3833   C.ar      1 RES1   0.0000
    90 H42     14.1249   7.8193   7.3766   H         1 RES1   0.0000
    91 C44     12.9037   9.2541   8.1150   C.ar      1 RES1   0.0000
    92 H43     13.5442   9.6980   8.6225   H         1 RES1   0.0000
    93 C45     11.5787   9.7190   8.0748   C.ar      1 RES1   0.0000
    94 H44     11.3382  10.4726   8.5637   H         1 RES1   0.0000
    95 C46     10.6122   9.0500   7.2981   C.ar      1 RES1   0.0000
    96 H45      9.7499   9.3948   7.2477   H         1 RES1   0.0000
    97 C47     10.4482   5.5310   5.0471   C.ar      1 RES1   0.0000
    98 C48     10.2598   4.2211   5.5422   C.ar      1 RES1   0.0000
    99 H46      9.6630   4.0706   6.2394   H         1 RES1   0.0000
   100 C49     10.9674   3.1499   4.9873   C.ar      1 RES1   0.0000
   101 H47     10.8292   2.2891   5.3110   H         1 RES1   0.0000
   102 C50     11.8788   3.3616   3.9522   C.ar      1 RES1   0.0000
   103 H48     12.3511   2.6452   3.5933   H         1 RES1   0.0000
   104 C51     12.0820   4.6618   3.4523   C.ar      1 RES1   0.0000
   105 H49     12.6912   4.8068   2.7648   H         1 RES1   0.0000
   106 C52     11.3654   5.7352   3.9919   C.ar      1 RES1   0.0000
   107 H50     11.4941   6.5917   3.6528   H         1 RES1   0.0000
   108 C53      5.2023  11.8773   1.0453   C.ar      2 RES2   0.0000
   109 H51      5.8201  11.9786   1.7330   H         2 RES2   0.0000
   110 C54      3.8328  11.8458   1.3282   C.ar      2 RES2   0.0000
   111 H52      3.5364  11.9313   2.2055   H         2 RES2   0.0000
   112 C55      2.9030  11.6841   0.2817   C.ar      2 RES2   0.0000
   113 H53      1.9933  11.6581   0.4731   H         2 RES2   0.0000
   114 C53A     3.3379  11.5623  -1.0453   C.ar      2 RES2   0.0000
   115 H51A     2.7200  11.4611  -1.7330   H         2 RES2   0.0000
   116 C54A     4.7074  11.5939  -1.3282   C.ar      2 RES2   0.0000
   117 H52A     5.0038  11.5083  -2.2055   H         2 RES2   0.0000
   118 C55A     5.6372  11.7556  -0.2817   C.ar      2 RES2   0.0000
   119 H53A     6.5469  11.7816  -0.4731   H         2 RES2   0.0000
@<TRIPOS>BOND
     1     1     2    1
     2     3     1    1
     3     4     1    1
     4     5     1    1
     5     6     1    1
     6     7     1    1
     7     8     4    1
     8     9     8   ar
     9    10     9    1
    10    11     9   ar
    11    12    11    1
    12    13    11   ar
    13    14    13    1
    14    15    13   ar
    15    16    15    1
    16    17     8   ar
    17    18    17    1
    18    19     4    1
    19    20    19   ar
    20    21    20    1
    21    22    20   ar
    22    23    22    1
    23    24    22   ar
    24    25    24    1
    25    26    24   ar
    26    27    26    1
    27    28    19   ar
    28    29    28    1
    29    30     4    1
    30    31    30    1
    31    32    30    1
    32    33     5    1
    33    34    33    1
    34    35    33    1
    35    36     5    1
    36    37    36   ar
    37    38    37    1
    38    39    37   ar
    39    40    39    1
    40    41    39   ar
    41    42    41    1
    42    43    41   ar
    43    44    43    1
    44    45    36   ar
    45    46    45    1
    46    47     5    1
    47    48    47   ar
    48    49    48    1
    49    50    48   ar
    50    51    50    1
    51    52    50   ar
    52    53    52    1
    53    54    52   ar
    54    55    54    1
    55    56    47   ar
    56    57    56    1
    57    58     6    1
    58    59    58   ar
    59    60    59    1
    60    61    59   ar
    61    62    61    1
    62    63    61   ar
    63    64    63    1
    64    65    63   ar
    65    66    65    1
    66    67    58   ar
    67    68    67    1
    68    69     6    1
    69    70    69   ar
    70    71    70    1
    71    72    70   ar
    72    73    72    1
    73    74    72   ar
    74    75    74    1
    75    76    74   ar
    76    77    76    1
    77    78    69   ar
    78    79    78    1
    79    80     6    1
    80    81    80    1
    81    82    80    1
    82    83     7    1
    83    84    83    1
    84    85    83    1
    85    86     7    1
    86    87    86   ar
    87    88    87    1
    88    89    87   ar
    89    90    89    1
    90    91    89   ar
    91    92    91    1
    92    93    91   ar
    93    94    93    1
    94    95    86   ar
    95    96    95    1
    96    97     7    1
    97    98    97   ar
    98    99    98    1
    99   100    98   ar
   100   101   100    1
   101   102   100   ar
   102   103   102    1
   103   104   102   ar
   104   105   104    1
   105   106    97   ar
   106   107   106    1
   107    15    17   ar
   108    26    28   ar
   109    30    33    1
   110    43    45   ar
   111    54    56   ar
   112    65    67   ar
   113    76    78   ar
   114    80    83    1
   115    93    95   ar
   116   104   106   ar
   117   108   109    1
   118   110   108   ar
   119   111   110    1
   120   112   110   ar
   121   113   112    1
   122   114   112   ar
   123   115   114    1
   124   116   114   ar
   125   117   116    1
   126   118   108   ar
   127   119   118    1
   128   116   118   ar
@<TRIPOS>SUBSTRUCTURE
     1 RES1        1 GROUP             0 ****  ****    0  
     2 RES2      108 GROUP             0 ****  ****    0  
@<TRIPOS>CRYSIN
   12.1653   12.4735   16.5663   87.4360   77.1290   69.9810     2     1
