@<TRIPOS>MOLECULE
KOLYOD
   116   125     2     0     0
SMALL
NO_CHARGES
****
Generated from the CSD

@<TRIPOS>ATOM
     1 Fe1      9.5747   5.5808   4.2373   Fe        1 RES1   0.0000
     2 H1       9.5278   4.3655   5.0910   H         1 RES1   0.0000
     3 P1      10.0516   6.9000   2.5191   P.3       1 RES1   0.0000
     4 P2       8.8564   4.1798   2.7451   P.3       1 RES1   0.0000
     5 P3       7.7026   6.3418   5.0682   P.3       1 RES1   0.0000
     6 P4      10.5522   6.6100   5.8687   P.3       1 RES1   0.0000
     7 C1      11.4401   5.2144   3.5971   C.ar      1 RES1   0.0000
     8 C2      11.6812   6.1323   2.5482   C.ar      1 RES1   0.0000
     9 C3      12.8590   6.1742   1.8039   C.ar      1 RES1   0.0000
    10 H2      12.9709   6.7937   1.0925   H         1 RES1   0.0000
    11 C4      13.8657   5.2731   2.1430   C.ar      1 RES1   0.0000
    12 H3      14.6844   5.2723   1.6612   H         1 RES1   0.0000
    13 C5      13.6724   4.3746   3.1874   C.ar      1 RES1   0.0000
    14 H4      14.3734   3.7764   3.4181   H         1 RES1   0.0000
    15 C6      12.4775   4.3282   3.9047   C.ar      1 RES1   0.0000
    16 H5      12.3679   3.6937   4.6031   H         1 RES1   0.0000
    17 C7      10.2001   8.6621   2.0989   C.ar      1 RES1   0.0000
    18 C8      11.4337   9.3101   2.1260   C.ar      1 RES1   0.0000
    19 H6      12.2168   8.8282   2.3646   H         1 RES1   0.0000
    20 C9      11.5211  10.6621   1.8041   C.ar      1 RES1   0.0000
    21 H7      12.3656  11.0973   1.8116   H         1 RES1   0.0000
    22 C10     10.3822  11.3732   1.4731   C.ar      1 RES1   0.0000
    23 H8      10.4452  12.2957   1.2547   H         1 RES1   0.0000
    24 C11      9.1481  10.7409   1.4600   C.ar      1 RES1   0.0000
    25 H9       8.3658  11.2333   1.2408   H         1 RES1   0.0000
    26 C12      9.0526   9.3882   1.7668   C.ar      1 RES1   0.0000
    27 H10      8.2064   8.9568   1.7507   H         1 RES1   0.0000
    28 C13      9.2295   6.2336   1.0242   C.2       1 RES1   0.0000
    29 H11      9.2106   6.7203   0.2085   H         1 RES1   0.0000
    30 C14      8.6563   5.0286   1.1344   C.2       1 RES1   0.0000
    31 H12      8.1727   4.6358   0.4172   H         1 RES1   0.0000
    32 C15      7.3040   3.2273   2.9439   C.ar      1 RES1   0.0000
    33 C16      7.0803   2.5762   4.1598   C.ar      1 RES1   0.0000
    34 H13      7.7152   2.6583   4.8617   H         1 RES1   0.0000
    35 C17      5.9376   1.8099   4.3514   C.ar      1 RES1   0.0000
    36 H14      5.8023   1.3607   5.1776   H         1 RES1   0.0000
    37 C18      4.9936   1.6977   3.3419   C.ar      1 RES1   0.0000
    38 H15      4.2109   1.1764   3.4772   H         1 RES1   0.0000
    39 C19      5.1952   2.3485   2.1348   C.ar      1 RES1   0.0000
    40 H16      4.5462   2.2802   1.4446   H         1 RES1   0.0000
    41 C20      6.3474   3.1012   1.9335   C.ar      1 RES1   0.0000
    42 H17      6.4854   3.5344   1.0994   H         1 RES1   0.0000
    43 C21     10.0023   2.8322   2.1931   C.ar      1 RES1   0.0000
    44 C22      9.9794   1.5600   2.7608   C.ar      1 RES1   0.0000
    45 H18      9.3235   1.3486   3.4147   H         1 RES1   0.0000
    46 C23     10.9098   0.5934   2.3786   C.ar      1 RES1   0.0000
    47 H19     10.8782  -0.2716   2.7698   H         1 RES1   0.0000
    48 C24     11.8797   0.8849   1.4331   C.ar      1 RES1   0.0000
    49 H20     12.5131   0.2248   1.1770   H         1 RES1   0.0000
    50 C25     11.9176   2.1442   0.8661   C.ar      1 RES1   0.0000
    51 H21     12.5798   2.3520   0.2173   H         1 RES1   0.0000
    52 C26     10.9888   3.1083   1.2423   C.ar      1 RES1   0.0000
    53 H22     11.0256   3.9709   0.8459   H         1 RES1   0.0000
    54 C27      6.4597   5.2562   5.8947   C.ar      1 RES1   0.0000
    55 C28      6.9582   4.4176   6.8978   C.ar      1 RES1   0.0000
    56 H23      7.8915   4.4012   7.0744   H         1 RES1   0.0000
    57 C29      6.1054   3.6081   7.6395   C.ar      1 RES1   0.0000
    58 H24      6.4562   3.0531   8.3260   H         1 RES1   0.0000
    59 C30      4.7377   3.6096   7.3779   C.ar      1 RES1   0.0000
    60 H25      4.1540   3.0523   7.8791   H         1 RES1   0.0000
    61 C31      4.2349   4.4295   6.3814   C.ar      1 RES1   0.0000
    62 H26      3.3026   4.4311   6.1990   H         1 RES1   0.0000
    63 C32      5.0853   5.2531   5.6430   C.ar      1 RES1   0.0000
    64 H27      4.7279   5.8149   4.9654   H         1 RES1   0.0000
    65 C33      6.6797   7.4888   4.0695   C.ar      1 RES1   0.0000
    66 C34      6.7023   8.8682   4.2974   C.ar      1 RES1   0.0000
    67 H28      7.1876   9.2129   5.0379   H         1 RES1   0.0000
    68 C35      6.0234   9.7437   3.4538   C.ar      1 RES1   0.0000
    69 H29      6.0551  10.6789   3.6177   H         1 RES1   0.0000
    70 C36      5.3015   9.2557   2.3755   C.ar      1 RES1   0.0000
    71 H30      4.8401   9.8531   1.7988   H         1 RES1   0.0000
    72 C37      5.2578   7.8853   2.1447   C.ar      1 RES1   0.0000
    73 H31      4.7493   7.5446   1.4182   H         1 RES1   0.0000
    74 C38      5.9541   7.0115   2.9713   C.ar      1 RES1   0.0000
    75 H32      5.9377   6.0793   2.7888   H         1 RES1   0.0000
    76 C39      8.0614   7.3697   6.5442   C.2       1 RES1   0.0000
    77 H33      7.3697   7.8192   7.0154   H         1 RES1   0.0000
    78 C40      9.3302   7.4581   6.9250   C.2       1 RES1   0.0000
    79 H34      9.5875   7.9365   7.7044   H         1 RES1   0.0000
    80 C41     11.5082   5.6876   7.1437   C.ar      1 RES1   0.0000
    81 C42     11.3734   4.3047   7.2556   C.ar      1 RES1   0.0000
    82 H35     10.8179   3.8355   6.6444   H         1 RES1   0.0000
    83 C43     12.0457   3.6028   8.2558   C.ar      1 RES1   0.0000
    84 H36     11.9454   2.6606   8.3246   H         1 RES1   0.0000
    85 C44     12.8605   4.2804   9.1496   C.ar      1 RES1   0.0000
    86 H37     13.3202   3.8026   9.8300   H         1 RES1   0.0000
    87 C45     13.0041   5.6573   9.0498   C.ar      1 RES1   0.0000
    88 H38     13.5637   6.1210   9.6615   H         1 RES1   0.0000
    89 C46     12.3309   6.3594   8.0563   C.ar      1 RES1   0.0000
    90 H39     12.4298   7.3024   7.9962   H         1 RES1   0.0000
    91 C47     11.7069   7.9863   5.5132   C.ar      1 RES1   0.0000
    92 C48     11.2649   9.3113   5.5171   C.ar      1 RES1   0.0000
    93 H40     10.3546   9.5041   5.7084   H         1 RES1   0.0000
    94 C49     12.1487  10.3515   5.2426   C.ar      1 RES1   0.0000
    95 H41     11.8399  11.2500   5.2491   H         1 RES1   0.0000
    96 C50     13.4765  10.0797   4.9598   C.ar      1 RES1   0.0000
    97 H42     14.0828  10.7927   4.7971   H         1 RES1   0.0000
    98 C51     13.9227   8.7645   4.9142   C.ar      1 RES1   0.0000
    99 H43     14.8282   8.5770   4.6969   H         1 RES1   0.0000
   100 C52     13.0435   7.7239   5.1864   C.ar      1 RES1   0.0000
   101 H44     13.3516   6.8260   5.1505   H         1 RES1   0.0000
   102 O1      10.3752   0.9181   9.3125   O.3       2 RES2   0.0000
   103 C53     10.7179   1.3208  10.6284   C.3       2 RES2   0.0000
   104 H45      9.9913   1.0815  11.2568   H         2 RES2   0.0000
   105 H46     10.8484   2.3016  10.6603   H         2 RES2   0.0000
   106 C54     11.9894   0.6177  11.0179   C.3       2 RES2   0.0000
   107 H47     12.7138   0.8969  10.4194   H         2 RES2   0.0000
   108 H48     11.8624  -0.3514  10.9467   H         2 RES2   0.0000
   109 H49     12.2216   0.8497  11.9414   H         2 RES2   0.0000
   110 C55      9.1602   1.5015   8.8723   C.3       2 RES2   0.0000
   111 H50      9.2170   2.4882   8.9293   H         2 RES2   0.0000
   112 H51      8.4112   1.1980   9.4443   H         2 RES2   0.0000
   113 C56      8.9249   1.0795   7.4474   C.3       2 RES2   0.0000
   114 H52      9.6218   1.4619   6.8742   H         2 RES2   0.0000
   115 H53      8.0471   1.4000   7.1524   H         2 RES2   0.0000
   116 H54      8.9528   0.1017   7.3874   H         2 RES2   0.0000
@<TRIPOS>BOND
     1     1     2    1
     2     3     1    1
     3     4     1    1
     4     5     1    1
     5     6     1    1
     6     7     1    1
     7     8     3    1
     8     9     8   ar
     9    10     9    1
    10    11     9   ar
    11    12    11    1
    12    13    11   ar
    13    14    13    1
    14    15     7   ar
    15    16    15    1
    16    17     3    1
    17    18    17   ar
    18    19    18    1
    19    20    18   ar
    20    21    20    1
    21    22    20   ar
    22    23    22    1
    23    24    22   ar
    24    25    24    1
    25    26    17   ar
    26    27    26    1
    27    28     3    1
    28    29    28    1
    29    30     4    1
    30    31    30    1
    31    32     4    1
    32    33    32   ar
    33    34    33    1
    34    35    33   ar
    35    36    35    1
    36    37    35   ar
    37    38    37    1
    38    39    37   ar
    39    40    39    1
    40    41    32   ar
    41    42    41    1
    42    43     4    1
    43    44    43   ar
    44    45    44    1
    45    46    44   ar
    46    47    46    1
    47    48    46   ar
    48    49    48    1
    49    50    48   ar
    50    51    50    1
    51    52    43   ar
    52    53    52    1
    53    54     5    1
    54    55    54   ar
    55    56    55    1
    56    57    55   ar
    57    58    57    1
    58    59    57   ar
    59    60    59    1
    60    61    59   ar
    61    62    61    1
    62    63    54   ar
    63    64    63    1
    64    65     5    1
    65    66    65   ar
    66    67    66    1
    67    68    66   ar
    68    69    68    1
    69    70    68   ar
    70    71    70    1
    71    72    70   ar
    72    73    72    1
    73    74    65   ar
    74    75    74    1
    75    76     5    1
    76    77    76    1
    77    78     6    1
    78    79    78    1
    79    80     6    1
    80    81    80   ar
    81    82    81    1
    82    83    81   ar
    83    84    83    1
    84    85    83   ar
    85    86    85    1
    86    87    85   ar
    87    88    87    1
    88    89    80   ar
    89    90    89    1
    90    91     6    1
    91    92    91   ar
    92    93    92    1
    93    94    92   ar
    94    95    94    1
    95    96    94   ar
    96    97    96    1
    97    98    96   ar
    98    99    98    1
    99   100    91   ar
   100   101   100    1
   101     7     8   ar
   102    13    15   ar
   103    24    26   ar
   104    28    30    2
   105    39    41   ar
   106    50    52   ar
   107    61    63   ar
   108    72    74   ar
   109    76    78    2
   110    87    89   ar
   111    98   100   ar
   112   102   103    1
   113   103   104    1
   114   105   103    1
   115   106   103    1
   116   107   106    1
   117   108   106    1
   118   109   106    1
   119   110   102    1
   120   111   110    1
   121   112   110    1
   122   113   110    1
   123   114   113    1
   124   115   113    1
   125   116   113    1
@<TRIPOS>SUBSTRUCTURE
     1 RES1        1 GROUP             0 ****  ****    0  
     2 RES2      102 GROUP             0 ****  ****    0  
@<TRIPOS>CRYSIN
   11.1310   12.7790   17.2820   83.1370   81.3400   72.3570     2     1
