@<TRIPOS>MOLECULE
KORLUB
    83    85     2     0     0
SMALL
USER_CHARGES
****
Generated from the CSD

@<TRIPOS>ATOM
     1 Fe1      1.5423   6.3948   3.1233   Fe        1 RES1   1.0000
     2 S1      -0.3611   7.6864   2.9681   S.3       1 RES1   0.0000
     3 P1       2.6289   8.2606   2.3802   P.3       1 RES1   0.0000
     4 P2       2.1178   6.8361   5.2370   P.3       1 RES1   0.0000
     5 P3       0.4947   4.4405   3.6423   P.3       1 RES1   0.0000
     6 C1      -1.9152   7.3705   3.8073   C.3       1 RES1   0.0000
     7 H1      -2.5590   8.0679   3.5717   H         1 RES1   0.0000
     8 H2      -1.7657   7.3746   4.7764   H         1 RES1   0.0000
     9 H3      -2.2598   6.4962   3.5332   H         1 RES1   0.0000
    10 C2      -0.8560   7.2895   1.2857   C.ar      1 RES1   0.0000
    11 C3      -1.9800   7.8470   0.7279   C.ar      1 RES1   0.0000
    12 H4      -2.5270   8.4334   1.2401   H         1 RES1   0.0000
    13 C4      -2.3179   7.5554  -0.5761   C.ar      1 RES1   0.0000
    14 H5      -3.1205   7.8989  -0.9529   H         1 RES1   0.0000
    15 C5      -1.5054   6.7796  -1.3092   C.ar      1 RES1   0.0000
    16 H6      -1.7064   6.6216  -2.2233   H         1 RES1   0.0000
    17 C6      -0.3796   6.2067  -0.7567   C.ar      1 RES1   0.0000
    18 H7       0.1523   5.6156  -1.2811   H         1 RES1   0.0000
    19 C7       0.0042   6.4829   0.5630   C.ar      1 RES1   0.0000
    20 C8       2.0409   5.3410   0.5761   C.2       1 RES1   0.0000
    21 H8       1.9455   5.1306  -0.3450   H         1 RES1   0.0000
    22 C9       3.2019   4.9338   1.3577   C.ar      1 RES1   0.0000
    23 C10      4.2654   4.1952   0.8222   C.ar      1 RES1   0.0000
    24 H9       4.2589   3.9548  -0.0972   H         1 RES1   0.0000
    25 C11      5.3230   3.8137   1.6366   C.ar      1 RES1   0.0000
    26 H10      6.0305   3.2867   1.2976   H         1 RES1   0.0000
    27 C12      5.3117   4.2209   2.9720   C.ar      1 RES1   0.0000
    28 H11      6.0417   3.9880   3.5358   H         1 RES1   0.0000
    29 C13      4.2732   4.9479   3.4944   C.ar      1 RES1   0.0000
    30 H12      4.3060   5.1940   4.4115   H         1 RES1   0.0000
    31 C14      3.1546   5.3487   2.7088   C.ar      1 RES1   0.0000
    32 C15      2.1718   8.7834   0.7044   C.3       1 RES1   0.0000
    33 H13      1.1994   8.8444   0.6349   H         1 RES1   0.0000
    34 H14      2.5083   8.1274   0.0573   H         1 RES1   0.0000
    35 H15      2.5718   9.6590   0.5170   H         1 RES1   0.0000
    36 C16      4.4544   8.1925   2.2021   C.3       1 RES1   0.0000
    37 H16      4.7931   9.0768   1.9479   H         1 RES1   0.0000
    38 H17      4.6927   7.5409   1.5097   H         1 RES1   0.0000
    39 H18      4.8576   7.9230   3.0550   H         1 RES1   0.0000
    40 C17      2.3336   9.8290   3.1946   C.3       1 RES1   0.0000
    41 H19      2.4274   9.7168   4.1633   H         1 RES1   0.0000
    42 H20      1.4240  10.1361   2.9893   H         1 RES1   0.0000
    43 H21      2.9806  10.4899   2.8759   H         1 RES1   0.0000
    44 C18      3.7292   7.6723   5.6153   C.3       1 RES1   0.0000
    45 H22      3.8754   7.6777   6.5846   H         1 RES1   0.0000
    46 H23      3.7066   8.5935   5.2830   H         1 RES1   0.0000
    47 H24      4.4608   7.1859   5.1786   H         1 RES1   0.0000
    48 C19      0.9546   7.9369   6.1456   C.3       1 RES1   0.0000
    49 H25      0.1852   7.4162   6.4511   H         1 RES1   0.0000
    50 H26      0.6525   8.6532   5.5497   H         1 RES1   0.0000
    51 H27      1.4148   8.3275   6.9186   H         1 RES1   0.0000
    52 C20      2.2676   5.4720   6.4480   C.3       1 RES1   0.0000
    53 H28      2.4908   5.8413   7.3291   H         1 RES1   0.0000
    54 H29      2.9837   4.8617   6.1636   H         1 RES1   0.0000
    55 H30      1.4239   4.9841   6.4996   H         1 RES1   0.0000
    56 C21     -0.7445   4.3519   4.9843   C.3       1 RES1   0.0000
    57 H31     -1.6386   4.4644   4.6091   H         1 RES1   0.0000
    58 H32     -0.5667   5.0642   5.6349   H         1 RES1   0.0000
    59 H33     -0.6779   3.4812   5.4284   H         1 RES1   0.0000
    60 C22      1.5561   2.9955   4.0063   C.3       1 RES1   0.0000
    61 H34      0.9914   2.2359   4.2670   H         1 RES1   0.0000
    62 H35      2.1652   3.2153   4.7403   H         1 RES1   0.0000
    63 H36      2.0716   2.7601   3.2089   H         1 RES1   0.0000
    64 C23     -0.5209   3.7289   2.3252   C.3       1 RES1   0.0000
    65 H37      0.0522   3.5085   1.5593   H         1 RES1   0.0000
    66 H38     -1.1982   4.3779   2.0506   H         1 RES1   0.0000
    67 H39     -0.9542   2.9157   2.6533   H         1 RES1   0.0000
    68 N1       1.1699   6.0050   1.2307   N.2       1 RES1   0.0000
    69 S2      -0.6560   5.0275   9.4593   S.o2      2 RES2   0.0000
    70 S3      -2.6929   6.5265   8.2718   S.o2      2 RES2   0.0000
    71 C24      0.2491   6.3069  10.3181   C.3       2 RES2   0.0000
    72 C25     -3.7590   5.2151   7.6460   C.3       2 RES2   0.0000
    73 N2      -1.2586   5.8650   8.2587   N.2       2 RES2  -1.0000
    74 O1       0.3457   4.2093   8.9002   O.2       2 RES2   0.0000
    75 O2      -1.5275   4.5317  10.3941   O.2       2 RES2   0.0000
    76 O3      -2.6863   7.5182   7.2650   O.2       2 RES2   0.0000
    77 O4      -3.1921   6.8657   9.5457   O.2       2 RES2   0.0000
    78 F1       1.1528   6.9016   9.6125   F         2 RES2   0.0000
    79 F2       1.0003   5.6659  11.3407   F         2 RES2   0.0000
    80 F3      -0.4765   7.1303  10.9767   F         2 RES2   0.0000
    81 F4      -3.6249   5.0224   6.3721   F         2 RES2   0.0000
    82 F5      -3.6173   4.1245   8.3058   F         2 RES2   0.0000
    83 F6      -5.0517   5.5555   7.8227   F         2 RES2   0.0000
@<TRIPOS>BOND
     1     1     2    1
     2     2     6    1
     3     3     1    1
     4     4     1    1
     5     5     1    1
     6     6     7    1
     7     8     6    1
     8     9     6    1
     9    10     2    1
    10    11    10   ar
    11    12    11    1
    12    13    11   ar
    13    14    13    1
    14    15    13   ar
    15    16    15    1
    16    17    15   ar
    17    18    17    1
    18    19    10   ar
    19    20    21    1
    20    22    20    1
    21    23    22   ar
    22    24    23    1
    23    25    23   ar
    24    26    25    1
    25    27    25   ar
    26    28    27    1
    27    29    27   ar
    28    30    29    1
    29    31     1    1
    30    32     3    1
    31    33    32    1
    32    34    32    1
    33    35    32    1
    34    36     3    1
    35    37    36    1
    36    38    36    1
    37    39    36    1
    38    40     3    1
    39    41    40    1
    40    42    40    1
    41    43    40    1
    42    44     4    1
    43    45    44    1
    44    46    44    1
    45    47    44    1
    46    48     4    1
    47    49    48    1
    48    50    48    1
    49    51    48    1
    50    52     4    1
    51    53    52    1
    52    54    52    1
    53    55    52    1
    54    56     5    1
    55    57    56    1
    56    58    56    1
    57    59    56    1
    58    60     5    1
    59    61    60    1
    60    62    60    1
    61    63    60    1
    62    64     5    1
    63    65    64    1
    64    66    64    1
    65    67    64    1
    66    68     1    1
    67    17    19   ar
    68    19    68    1
    69    20    68    2
    70    22    31   ar
    71    29    31   ar
    72    69    71    1
    73    70    72    1
    74    71    78    1
    75    72    81    1
    76    73    69    1
    77    74    69    2
    78    75    69    2
    79    76    70    2
    80    77    70    2
    81    79    71    1
    82    80    71    1
    83    82    72    1
    84    83    72    1
    85    70    73    1
@<TRIPOS>SUBSTRUCTURE
     1 RES1        1 GROUP             0 ****  ****    0  
     2 RES2       69 GROUP             0 ****  ****    0  
@<TRIPOS>CRYSIN
   10.2570   12.8450   13.8230   90.0000  108.7110   90.0000     4     1
