@<TRIPOS>MOLECULE
KORZAU01
    77    83     4     0     0
SMALL
USER_CHARGES
****
Generated from the CSD

@<TRIPOS>ATOM
     1 Fe1      4.5654   5.0394   2.3802   Fe        1 RES1   1.0000
     2 O1       3.6147   6.6540   2.3853   O.3       1 RES1   0.0000
     3 N1       5.6883   3.4144   2.4018   N.ar      1 RES1   0.0000
     4 N2       3.7829   4.6727   0.6399   N.2       1 RES1   0.0000
     5 C1       2.7128   3.9889   0.4247   C.2       1 RES1   0.0000
     6 H1       2.3967   3.9357  -0.4703   H         1 RES1   0.0000
     7 C2       8.1630   2.2575   4.8902   C.ar      1 RES1   0.0000
     8 H2       8.7639   1.5416   5.0575   H         1 RES1   0.0000
     9 C3       4.4889   5.2495  -0.4469   C.ar      1 RES1   0.0000
    10 C4       7.0243   6.5964   1.6952   C.ar      1 RES1   0.0000
    11 H3       7.2376   6.5939   2.6206   H         1 RES1   0.0000
    12 C5       7.3702   2.2591   3.7203   C.ar      1 RES1   0.0000
    13 C6       7.2056   4.3707   5.5594   C.ar      1 RES1   0.0000
    14 H4       7.1710   5.0877   6.1818   H         1 RES1   0.0000
    15 C7       8.0611   3.2887   5.7770   C.ar      1 RES1   0.0000
    16 H5       8.5887   3.2706   6.5667   H         1 RES1   0.0000
    17 C8       4.1662   5.1905  -1.7747   C.ar      1 RES1   0.0000
    18 H6       3.3979   4.7088  -2.0555   H         1 RES1   0.0000
    19 C9       2.2649   3.3932   2.8218   C.ar      1 RES1   0.0000
    20 C10      6.4995   3.3433   3.5109   C.ar      1 RES1   0.0000
    21 C11      5.6489   5.9552  -0.0456   C.ar      1 RES1   0.0000
    22 C12      6.4121   4.3889   4.4339   C.ar      1 RES1   0.0000
    23 C13      6.4477   6.6156  -0.9991   C.ar      1 RES1   0.0000
    24 C14      6.5541   1.3211   1.6613   C.ar      1 RES1   0.0000
    25 H7       6.5525   0.6362   1.0026   H         1 RES1   0.0000
    26 C15      5.7184   2.4317   1.5267   C.ar      1 RES1   0.0000
    27 H8       5.1457   2.4801   0.7710   H         1 RES1   0.0000
    28 C16      4.9709   5.8418  -2.7224   C.ar      1 RES1   0.0000
    29 H9       4.7359   5.7922  -3.6419   H         1 RES1   0.0000
    30 Br1      3.7303  11.1617   6.3727   Br        1 RES1   0.0000
    31 C17      5.2770   6.4234   4.8235   C.2       1 RES1   0.0000
    32 H10      5.7333   6.4490   5.6565   H         1 RES1   0.0000
    33 C18      0.8772   2.5356   0.9851   C.ar      1 RES1   0.0000
    34 H11      0.6819   2.4906   0.0573   H         1 RES1   0.0000
    35 C19      1.4307   2.6770   3.6981   C.ar      1 RES1   0.0000
    36 H12      1.6002   2.7117   4.6316   H         1 RES1   0.0000
    37 C20      6.0864   6.5489  -2.3574   C.ar      1 RES1   0.0000
    38 H13      6.6115   6.9901  -3.0148   H         1 RES1   0.0000
    39 C21      4.4392   7.5167   4.4983   C.ar      1 RES1   0.0000
    40 C22      3.6704   7.5954   3.3061   C.ar      1 RES1   0.0000
    41 C23      1.9628   3.3053   1.4320   C.ar      1 RES1   0.0000
    42 C24      7.5835   7.3022  -0.5124   C.ar      1 RES1   0.0000
    43 H14      8.1475   7.7735  -1.1137   H         1 RES1   0.0000
    44 C25      7.8645   7.2878   0.8096   C.ar      1 RES1   0.0000
    45 H15      8.6296   7.7452   1.1383   H         1 RES1   0.0000
    46 C26      0.3712   1.9233   3.2336   C.ar      1 RES1   0.0000
    47 H16     -0.1785   1.4497   3.8466   H         1 RES1   0.0000
    48 C27      4.4340   8.5998   5.4061   C.ar      1 RES1   0.0000
    49 H17      4.9578   8.5533   6.1958   H         1 RES1   0.0000
    50 C28      3.6812   9.7092   5.1581   C.ar      1 RES1   0.0000
    51 C29      2.8915   8.7541   3.1166   C.ar      1 RES1   0.0000
    52 H18      2.3454   8.8230   2.3433   H         1 RES1   0.0000
    53 C30      2.9028   9.7774   4.0116   C.ar      1 RES1   0.0000
    54 H19      2.3718  10.5486   3.8513   H         1 RES1   0.0000
    55 C31      7.3750   1.2320   2.7540   C.ar      1 RES1   0.0000
    56 H20      7.9462   0.4805   2.8604   H         1 RES1   0.0000
    57 Br2     -1.3659   0.8395   1.2476   Br        1 RES1   0.0000
    58 N3       5.9459   5.9462   1.2904   N.ar      1 RES1   0.0000
    59 O2       3.2480   4.0939   3.3294   O.3       1 RES1   0.0000
    60 N4       5.4661   5.3886   4.0654   N.2       1 RES1   0.0000
    61 C32      0.1056   1.8555   1.8718   C.ar      1 RES1   0.0000
    62 O3       4.1109   1.7884  -1.2448   O.2       2 RES2   0.0000
    63 O4       6.2521   1.8951  -1.4998   O.3       2 RES2  -1.0000
    64 O5       4.9534   2.0721  -3.2278   O.2       2 RES2   0.0000
    65 N5       5.0871   1.9273  -2.0017   N.pl3     2 RES2   0.0000
    66 O6       8.0524   9.5491   3.1856   O.3       3 RES3   0.0000
    67 H21      8.7482   9.5980   2.7177   H         3 RES3   0.0000
    68 C33      7.0855  10.4539   2.6884   C.3       3 RES3   0.0000
    69 H22      6.2847  10.4188   3.2523   H         3 RES3   0.0000
    70 H23      6.8506  10.2085   1.7701   H         3 RES3   0.0000
    71 H24      7.4533  11.3627   2.7001   H         3 RES3   0.0000
    72 O7       7.9662   7.4519   4.8574   O.3       4 RES4   0.0000
    73 H25      7.8559   8.1993   4.4889   H         4 RES4   0.0000
    74 C34      9.3291   7.2867   5.1897   C.3       4 RES4   0.0000
    75 H26      9.5249   7.7730   6.0180   H         4 RES4   0.0000
    76 H27      9.8874   7.6404   4.4655   H         4 RES4   0.0000
    77 H28      9.5217   6.3347   5.3160   H         4 RES4   0.0000
@<TRIPOS>BOND
     1     1     2    1
     2     2    40    1
     3     3     1    1
     4     4     1    1
     5     5     4    2
     6     6     5    1
     7     7     8    1
     8     9     4    1
     9    10    11    1
    10    12     7   ar
    11    13    14    1
    12    15     7   ar
    13    16    15    1
    14    17     9   ar
    15    18    17    1
    16    19    35   ar
    17    20     3   ar
    18    21     9   ar
    19    22    13   ar
    20    23    21   ar
    21    24    25    1
    22    26     3   ar
    23    27    26    1
    24    28    17   ar
    25    29    28    1
    26    30    50    1
    27    31    32    1
    28    33    34    1
    29    35    36    1
    30    37    23   ar
    31    38    37    1
    32    39    31    1
    33    40    39   ar
    34    41     5    1
    35    42    23   ar
    36    43    42    1
    37    44    10   ar
    38    45    44    1
    39    46    35   ar
    40    47    46    1
    41    48    39   ar
    42    49    48    1
    43    50    48   ar
    44    51    40   ar
    45    52    51    1
    46    53    50   ar
    47    54    53    1
    48    55    12   ar
    49    56    55    1
    50    57    61    1
    51    58     1    1
    52    59     1    1
    53    60     1    1
    54    61    33   ar
    55    10    58   ar
    56    12    20   ar
    57    13    15   ar
    58    19    41   ar
    59    19    59    1
    60    20    22   ar
    61    21    58   ar
    62    22    60    1
    63    24    26   ar
    64    24    55   ar
    65    28    37   ar
    66    31    60    2
    67    33    41   ar
    68    42    44   ar
    69    46    61   ar
    70    51    53   ar
    71    62    65    2
    72    63    65    1
    73    64    65    2
    74    66    67    1
    75    68    66    1
    76    69    68    1
    77    70    68    1
    78    71    68    1
    79    72    73    1
    80    74    72    1
    81    75    74    1
    82    76    74    1
    83    77    74    1
@<TRIPOS>SUBSTRUCTURE
     1 RES1        1 GROUP             0 ****  ****    0  
     2 RES2       62 GROUP             0 ****  ****    0  
     3 RES3       66 GROUP             0 ****  ****    0  
     4 RES4       72 GROUP             0 ****  ****    0  
@<TRIPOS>CRYSIN
   12.0359   12.1457   12.4988   83.1750   69.4000   68.7330     2     1
