@<TRIPOS>MOLECULE
KORZAU07
    77    83     4     0     0
SMALL
USER_CHARGES
****
Generated from the CSD

@<TRIPOS>ATOM
     1 Fe1      4.4111   5.2296   2.4844   Fe        1 RES1   1.0000
     2 O1       3.5904   6.9365   2.6851   O.3       1 RES1   0.0000
     3 N1       5.6899   3.5244   2.5935   N.ar      1 RES1   0.0000
     4 N2       3.6628   4.7331   0.5836   N.2       1 RES1   0.0000
     5 C1       2.6370   3.9564   0.3724   C.2       1 RES1   0.0000
     6 H1       2.3972   3.8161  -0.5144   H         1 RES1   0.0000
     7 C2       8.1844   2.4290   5.0916   C.ar      1 RES1   0.0000
     8 H2       8.7598   1.7218   5.2718   H         1 RES1   0.0000
     9 C3       4.3887   5.2712  -0.5168   C.ar      1 RES1   0.0000
    10 C4       6.9078   6.8256   1.5277   C.ar      1 RES1   0.0000
    11 H3       7.1113   6.9020   2.4312   H         1 RES1   0.0000
    12 C5       7.3874   2.4076   3.9255   C.ar      1 RES1   0.0000
    13 C6       7.2707   4.5661   5.7062   C.ar      1 RES1   0.0000
    14 H4       7.2519   5.2817   6.3006   H         1 RES1   0.0000
    15 C7       8.1125   3.4860   5.9545   C.ar      1 RES1   0.0000
    16 H5       8.6360   3.4827   6.7231   H         1 RES1   0.0000
    17 C8       4.0628   5.1474  -1.8380   C.ar      1 RES1   0.0000
    18 H6       3.3083   4.6619  -2.0839   H         1 RES1   0.0000
    19 C9       2.0552   3.4417   2.7559   C.ar      1 RES1   0.0000
    20 C10      6.5230   3.4905   3.6916   C.ar      1 RES1   0.0000
    21 C11      5.5435   6.0115  -0.1635   C.ar      1 RES1   0.0000
    22 C12      6.4615   4.5876   4.5843   C.ar      1 RES1   0.0000
    23 C13      6.3400   6.6293  -1.1625   C.ar      1 RES1   0.0000
    24 C14      6.5630   1.4145   1.9013   C.ar      1 RES1   0.0000
    25 H7       6.5654   0.7265   1.2759   H         1 RES1   0.0000
    26 C15      5.7343   2.5183   1.7342   C.ar      1 RES1   0.0000
    27 H8       5.1848   2.5498   0.9835   H         1 RES1   0.0000
    28 C16      4.8579   5.7461  -2.8239   C.ar      1 RES1   0.0000
    29 H9       4.6177   5.6482  -3.7166   H         1 RES1   0.0000
    30 Br1      4.1953  11.5169   6.5330   Br        1 RES1   0.0000
    31 C17      5.4471   6.6887   4.9352   C.2       1 RES1   0.0000
    32 H10      5.9508   6.7169   5.7158   H         1 RES1   0.0000
    33 C18      0.7951   2.4867   0.8928   C.ar      1 RES1   0.0000
    34 H11      0.6469   2.3984  -0.0215   H         1 RES1   0.0000
    35 C19      1.2173   2.7316   3.6212   C.ar      1 RES1   0.0000
    36 H12      1.3485   2.7970   4.5390   H         1 RES1   0.0000
    37 C20      5.9653   6.4640  -2.5183   C.ar      1 RES1   0.0000
    38 H13      6.4762   6.8459  -3.1951   H         1 RES1   0.0000
    39 C21      4.6458   7.8317   4.6464   C.ar      1 RES1   0.0000
    40 C22      3.7576   7.9273   3.5340   C.ar      1 RES1   0.0000
    41 C23      1.8480   3.3035   1.3558   C.ar      1 RES1   0.0000
    42 C24      7.4473   7.3665  -0.7376   C.ar      1 RES1   0.0000
    43 H14      7.9861   7.7928  -1.3642   H         1 RES1   0.0000
    44 C25      7.7426   7.4640   0.5896   C.ar      1 RES1   0.0000
    45 H15      8.4864   7.9462   0.8725   H         1 RES1   0.0000
    46 C26      0.2033   1.9394   3.1402   C.ar      1 RES1   0.0000
    47 H16     -0.3446   1.4785   3.7345   H         1 RES1   0.0000
    48 C27      4.7414   8.9289   5.5380   C.ar      1 RES1   0.0000
    49 H17      5.3021   8.8715   6.2768   H         1 RES1   0.0000
    50 C28      4.0251  10.0599   5.3303   C.ar      1 RES1   0.0000
    51 C29      3.0329   9.1027   3.3729   C.ar      1 RES1   0.0000
    52 H18      2.4534   9.1813   2.6496   H         1 RES1   0.0000
    53 C30      3.1474  10.1485   4.2478   C.ar      1 RES1   0.0000
    54 H19      2.6411  10.9188   4.1224   H         1 RES1   0.0000
    55 C31      7.3759   1.3552   2.9969   C.ar      1 RES1   0.0000
    56 H20      7.9235   0.6151   3.1282   H         1 RES1   0.0000
    57 Br2     -1.4407   0.7480   1.1481   Br        1 RES1   0.0000
    58 N3       5.8480   6.1232   1.1744   N.ar      1 RES1   0.0000
    59 O2       2.9811   4.2370   3.2594   O.3       1 RES1   0.0000
    60 N4       5.5444   5.6116   4.2167   N.2       1 RES1   0.0000
    61 C32     -0.0099   1.8232   1.7736   C.ar      1 RES1   0.0000
    62 O3       4.0097   1.7874  -1.1589   O.2       2 RES2   0.0000
    63 O4       6.1380   1.9495  -1.3881   O.3       2 RES2  -1.0000
    64 O5       4.8756   1.9618  -3.1175   O.2       2 RES2   0.0000
    65 N5       5.0021   1.9163  -1.8905   N.pl3     2 RES2   0.0000
    66 O6       8.1578   9.8961   3.1569   O.3       3 RES3   0.0000
    67 H21      8.8041   9.7930   2.6628   H         3 RES3   0.0000
    68 C33      7.2139  10.6940   2.5243   C.3       3 RES3   0.0000
    69 H22      6.6538  11.1104   3.1831   H         3 RES3   0.0000
    70 H23      6.6757  10.1526   1.9419   H         3 RES3   0.0000
    71 H24      7.6596  11.3707   2.0087   H         3 RES3   0.0000
    72 O7       8.0333   7.9111   4.9937   O.3       4 RES4   0.0000
    73 H25      7.9438   8.6158   4.5843   H         4 RES4   0.0000
    74 C34      9.3587   7.7106   5.2754   C.3       4 RES4   0.0000
    75 H26      9.6073   8.2412   6.0357   H         4 RES4   0.0000
    76 H27      9.8893   7.9687   4.5175   H         4 RES4   0.0000
    77 H28      9.5080   6.7828   5.4699   H         4 RES4   0.0000
@<TRIPOS>BOND
     1     1     2    1
     2     2    40    1
     3     3     1    1
     4     4     1    1
     5     5     4    2
     6     6     5    1
     7     7     8    1
     8     9     4    1
     9    10    11    1
    10    12     7   ar
    11    13    14    1
    12    15     7   ar
    13    16    15    1
    14    17     9   ar
    15    18    17    1
    16    19    35   ar
    17    20     3   ar
    18    21     9   ar
    19    22    13   ar
    20    23    21   ar
    21    24    25    1
    22    26     3   ar
    23    27    26    1
    24    28    17   ar
    25    29    28    1
    26    30    50    1
    27    31    32    1
    28    33    34    1
    29    35    36    1
    30    37    23   ar
    31    38    37    1
    32    39    31    1
    33    40    39   ar
    34    41     5    1
    35    42    23   ar
    36    43    42    1
    37    44    10   ar
    38    45    44    1
    39    46    35   ar
    40    47    46    1
    41    48    39   ar
    42    49    48    1
    43    50    48   ar
    44    51    40   ar
    45    52    51    1
    46    53    50   ar
    47    54    53    1
    48    55    12   ar
    49    56    55    1
    50    57    61    1
    51    58     1    1
    52    59     1    1
    53    60     1    1
    54    61    33   ar
    55    10    58   ar
    56    12    20   ar
    57    13    15   ar
    58    19    41   ar
    59    19    59    1
    60    20    22   ar
    61    21    58   ar
    62    22    60    1
    63    24    26   ar
    64    24    55   ar
    65    28    37   ar
    66    31    60    2
    67    33    41   ar
    68    42    44   ar
    69    46    61   ar
    70    51    53   ar
    71    62    65    2
    72    63    65    1
    73    64    65    2
    74    66    67    1
    75    68    66    1
    76    69    68    1
    77    70    68    1
    78    71    68    1
    79    72    73    1
    80    74    72    1
    81    75    74    1
    82    76    74    1
    83    77    74    1
@<TRIPOS>SUBSTRUCTURE
     1 RES1        1 GROUP             0 ****  ****    0  
     2 RES2       62 GROUP             0 ****  ****    0  
     3 RES3       66 GROUP             0 ****  ****    0  
     4 RES4       72 GROUP             0 ****  ****    0  
@<TRIPOS>CRYSIN
   12.0223   12.3163   12.7577   80.9910   69.4140   69.1820     2     1
