@<TRIPOS>MOLECULE
KORZAU03
    77    83     4     0     0
SMALL
USER_CHARGES
****
Generated from the CSD

@<TRIPOS>ATOM
     1 Fe1      4.5887   5.0220   2.3721   Fe        1 RES1   1.0000
     2 O1       3.6308   6.6301   2.3765   O.3       1 RES1   0.0000
     3 N1       5.7105   3.4008   2.3888   N.ar      1 RES1   0.0000
     4 N2       3.7967   4.6586   0.6344   N.2       1 RES1   0.0000
     5 C1       2.7303   3.9748   0.4226   C.2       1 RES1   0.0000
     6 H1       2.4163   3.9200  -0.4728   H         1 RES1   0.0000
     7 C2       8.1980   2.2492   4.8727   C.ar      1 RES1   0.0000
     8 H2       8.8020   1.5353   5.0408   H         1 RES1   0.0000
     9 C3       4.5136   5.2356  -0.4483   C.ar      1 RES1   0.0000
    10 C4       7.0501   6.5749   1.6997   C.ar      1 RES1   0.0000
    11 H3       7.2580   6.5707   2.6278   H         1 RES1   0.0000
    12 C5       7.4097   2.2424   3.7088   C.ar      1 RES1   0.0000
    13 C6       7.2334   4.3592   5.5498   C.ar      1 RES1   0.0000
    14 H4       7.1936   5.0737   6.1755   H         1 RES1   0.0000
    15 C7       8.0992   3.2825   5.7657   C.ar      1 RES1   0.0000
    16 H5       8.6312   3.2662   6.5526   H         1 RES1   0.0000
    17 C8       4.1796   5.1787  -1.7814   C.ar      1 RES1   0.0000
    18 H6       3.4057   4.7032  -2.0604   H         1 RES1   0.0000
    19 C9       2.2765   3.3783   2.8134   C.ar      1 RES1   0.0000
    20 C10      6.5293   3.3247   3.4963   C.ar      1 RES1   0.0000
    21 C11      5.6676   5.9323  -0.0560   C.ar      1 RES1   0.0000
    22 C12      6.4371   4.3791   4.4197   C.ar      1 RES1   0.0000
    23 C13      6.4708   6.5969  -1.0028   C.ar      1 RES1   0.0000
    24 C14      6.5844   1.3108   1.6472   C.ar      1 RES1   0.0000
    25 H7       6.5834   0.6237   0.9911   H         1 RES1   0.0000
    26 C15      5.7399   2.4250   1.5083   C.ar      1 RES1   0.0000
    27 H8       5.1694   2.4748   0.7506   H         1 RES1   0.0000
    28 C16      4.9876   5.8276  -2.7282   C.ar      1 RES1   0.0000
    29 H9       4.7559   5.7787  -3.6481   H         1 RES1   0.0000
    30 Br1      3.7266  11.1370   6.3675   Br        1 RES1   0.0000
    31 C17      5.2973   6.4063   4.8155   C.2       1 RES1   0.0000
    32 H10      5.7492   6.4347   5.6502   H         1 RES1   0.0000
    33 C18      0.8895   2.5333   0.9783   C.ar      1 RES1   0.0000
    34 H11      0.6858   2.4947   0.0514   H         1 RES1   0.0000
    35 C19      1.4436   2.6625   3.6878   C.ar      1 RES1   0.0000
    36 H12      1.6177   2.6988   4.6217   H         1 RES1   0.0000
    37 C20      6.1036   6.5301  -2.3558   C.ar      1 RES1   0.0000
    38 H13      6.6285   6.9716  -3.0130   H         1 RES1   0.0000
    39 C21      4.4523   7.5000   4.4851   C.ar      1 RES1   0.0000
    40 C22      3.6777   7.5702   3.3002   C.ar      1 RES1   0.0000
    41 C23      1.9835   3.2949   1.4219   C.ar      1 RES1   0.0000
    42 C24      7.6052   7.2801  -0.5125   C.ar      1 RES1   0.0000
    43 H14      8.1668   7.7526  -1.1149   H         1 RES1   0.0000
    44 C25      7.8976   7.2682   0.8172   C.ar      1 RES1   0.0000
    45 H15      8.6656   7.7218   1.1440   H         1 RES1   0.0000
    46 C26      0.3931   1.9168   3.2372   C.ar      1 RES1   0.0000
    47 H16     -0.1529   1.4430   3.8536   H         1 RES1   0.0000
    48 C27      4.4408   8.5759   5.4015   C.ar      1 RES1   0.0000
    49 H17      4.9631   8.5291   6.1942   H         1 RES1   0.0000
    50 C28      3.6862   9.6767   5.1517   C.ar      1 RES1   0.0000
    51 C29      2.8957   8.7256   3.1123   C.ar      1 RES1   0.0000
    52 H18      2.3516   8.7914   2.3348   H         1 RES1   0.0000
    53 C30      2.8931   9.7543   4.0088   C.ar      1 RES1   0.0000
    54 H19      2.3534  10.5200   3.8547   H         1 RES1   0.0000
    55 C31      7.4117   1.2246   2.7399   C.ar      1 RES1   0.0000
    56 H20      7.9868   0.4753   2.8403   H         1 RES1   0.0000
    57 Br2     -1.3624   0.8411   1.2443   Br        1 RES1   0.0000
    58 N3       5.9709   5.9285   1.2812   N.ar      1 RES1   0.0000
    59 O2       3.2733   4.0783   3.3264   O.3       1 RES1   0.0000
    60 N4       5.4926   5.3739   4.0568   N.2       1 RES1   0.0000
    61 C32      0.1192   1.8512   1.8713   C.ar      1 RES1   0.0000
    62 O3       4.1325   1.7838  -1.2513   O.2       2 RES2   0.0000
    63 O4       6.2788   1.8951  -1.5021   O.3       2 RES2  -1.0000
    64 O5       4.9796   2.0669  -3.2291   O.2       2 RES2   0.0000
    65 N5       5.1138   1.9218  -1.9997   N.pl3     2 RES2   0.0000
    66 O6       8.0772   9.5159   3.1849   O.3       3 RES3   0.0000
    67 H21      8.7698   9.5604   2.7118   H         3 RES3   0.0000
    68 C33      7.1195  10.4194   2.6978   C.3       3 RES3   0.0000
    69 H22      6.3090  10.3617   3.2453   H         3 RES3   0.0000
    70 H23      6.9028  10.1957   1.7686   H         3 RES3   0.0000
    71 H24      7.4787  11.3297   2.7399   H         3 RES3   0.0000
    72 O7       7.9964   7.4132   4.8448   O.3       4 RES4   0.0000
    73 H25      7.8943   8.1393   4.4349   H         4 RES4   0.0000
    74 C34      9.3615   7.2444   5.1739   C.3       4 RES4   0.0000
    75 H26      9.5663   7.7503   5.9887   H         4 RES4   0.0000
    76 H27      9.9180   7.5727   4.4373   H         4 RES4   0.0000
    77 H28      9.5472   6.2937   5.3245   H         4 RES4   0.0000
@<TRIPOS>BOND
     1     1     2    1
     2     2    40    1
     3     3     1    1
     4     4     1    1
     5     5     4    2
     6     6     5    1
     7     7     8    1
     8     9     4    1
     9    10    11    1
    10    12     7   ar
    11    13    14    1
    12    15     7   ar
    13    16    15    1
    14    17     9   ar
    15    18    17    1
    16    19    35   ar
    17    20     3   ar
    18    21     9   ar
    19    22    13   ar
    20    23    21   ar
    21    24    25    1
    22    26     3   ar
    23    27    26    1
    24    28    17   ar
    25    29    28    1
    26    30    50    1
    27    31    32    1
    28    33    34    1
    29    35    36    1
    30    37    23   ar
    31    38    37    1
    32    39    31    1
    33    40    39   ar
    34    41     5    1
    35    42    23   ar
    36    43    42    1
    37    44    10   ar
    38    45    44    1
    39    46    35   ar
    40    47    46    1
    41    48    39   ar
    42    49    48    1
    43    50    48   ar
    44    51    40   ar
    45    52    51    1
    46    53    50   ar
    47    54    53    1
    48    55    12   ar
    49    56    55    1
    50    57    61    1
    51    58     1    1
    52    59     1    1
    53    60     1    1
    54    61    33   ar
    55    10    58   ar
    56    12    20   ar
    57    13    15   ar
    58    19    41   ar
    59    19    59    1
    60    20    22   ar
    61    21    58   ar
    62    22    60    1
    63    24    26   ar
    64    24    55   ar
    65    28    37   ar
    66    31    60    2
    67    33    41   ar
    68    42    44   ar
    69    46    61   ar
    70    51    53   ar
    71    62    65    2
    72    63    65    1
    73    64    65    2
    74    66    67    1
    75    68    66    1
    76    69    68    1
    77    70    68    1
    78    71    68    1
    79    72    73    1
    80    74    72    1
    81    75    74    1
    82    76    74    1
    83    77    74    1
@<TRIPOS>SUBSTRUCTURE
     1 RES1        1 GROUP             0 ****  ****    0  
     2 RES2       62 GROUP             0 ****  ****    0  
     3 RES3       66 GROUP             0 ****  ****    0  
     4 RES4       72 GROUP             0 ****  ****    0  
@<TRIPOS>CRYSIN
   12.0805   12.1194   12.4856   83.1100   69.2350   68.6220     2     1
