@<TRIPOS>MOLECULE
KORZAU
    77    83     4     0     0
SMALL
USER_CHARGES
****
Generated from the CSD

@<TRIPOS>ATOM
     1 Fe1      4.6056   5.0501   2.3813   Fe        1 RES1   1.0000
     2 O1       3.6499   6.6696   2.3851   O.3       1 RES1   0.0000
     3 N1       5.7339   3.4203   2.4061   N.ar      1 RES1   0.0000
     4 N2       3.8191   4.6802   0.6346   N.2       1 RES1   0.0000
     5 C1       2.7503   3.9942   0.4180   C.2       1 RES1   0.0000
     6 H1       2.4473   3.9282  -0.4801   H         1 RES1   0.0000
     7 C2       8.2351   2.2795   4.8954   C.ar      1 RES1   0.0000
     8 H2       8.8423   1.5680   5.0640   H         1 RES1   0.0000
     9 C3       4.5345   5.2533  -0.4531   C.ar      1 RES1   0.0000
    10 C4       7.0709   6.6038   1.6931   C.ar      1 RES1   0.0000
    11 H3       7.2786   6.6086   2.6204   H         1 RES1   0.0000
    12 C5       7.4354   2.2701   3.7269   C.ar      1 RES1   0.0000
    13 C6       7.2666   4.3893   5.5581   C.ar      1 RES1   0.0000
    14 H4       7.2301   5.1063   6.1798   H         1 RES1   0.0000
    15 C7       8.1320   3.3155   5.7782   C.ar      1 RES1   0.0000
    16 H5       8.6653   3.3062   6.5651   H         1 RES1   0.0000
    17 C8       4.2178   5.1847  -1.7832   C.ar      1 RES1   0.0000
    18 H6       3.4505   4.6993  -2.0619   H         1 RES1   0.0000
    19 C9       2.2919   3.4071   2.8183   C.ar      1 RES1   0.0000
    20 C10      6.5587   3.3519   3.5138   C.ar      1 RES1   0.0000
    21 C11      5.6944   5.9531  -0.0492   C.ar      1 RES1   0.0000
    22 C12      6.4666   4.4058   4.4388   C.ar      1 RES1   0.0000
    23 C13      6.5060   6.6038  -1.0151   C.ar      1 RES1   0.0000
    24 C14      6.6180   1.3312   1.6661   C.ar      1 RES1   0.0000
    25 H7       6.6302   0.6518   1.0023   H         1 RES1   0.0000
    26 C15      5.7621   2.4318   1.5327   C.ar      1 RES1   0.0000
    27 H8       5.1789   2.4681   0.7845   H         1 RES1   0.0000
    28 C16      5.0206   5.8285  -2.7363   C.ar      1 RES1   0.0000
    29 H9       4.7853   5.7761  -3.6554   H         1 RES1   0.0000
    30 Br1      3.7578  11.1875   6.3792   Br        1 RES1   0.0000
    31 C17      5.3262   6.4389   4.8275   C.2       1 RES1   0.0000
    32 H10      5.7881   6.4656   5.6576   H         1 RES1   0.0000
    33 C18      0.8946   2.5498   0.9859   C.ar      1 RES1   0.0000
    34 H11      0.6983   2.4997   0.0585   H         1 RES1   0.0000
    35 C19      1.4437   2.6935   3.6988   C.ar      1 RES1   0.0000
    36 H12      1.6101   2.7379   4.6331   H         1 RES1   0.0000
    37 C20      6.1449   6.5353  -2.3663   C.ar      1 RES1   0.0000
    38 H13      6.6708   6.9729  -3.0244   H         1 RES1   0.0000
    39 C21      4.4803   7.5404   4.5090   C.ar      1 RES1   0.0000
    40 C22      3.6945   7.6092   3.3124   C.ar      1 RES1   0.0000
    41 C23      1.9860   3.3253   1.4249   C.ar      1 RES1   0.0000
    42 C24      7.6496   7.2964  -0.5222   C.ar      1 RES1   0.0000
    43 H14      8.2181   7.7643  -1.1217   H         1 RES1   0.0000
    44 C25      7.9233   7.2835   0.8044   C.ar      1 RES1   0.0000
    45 H15      8.6918   7.7347   1.1346   H         1 RES1   0.0000
    46 C26      0.3891   1.9396   3.2480   C.ar      1 RES1   0.0000
    47 H16     -0.1565   1.4648   3.8639   H         1 RES1   0.0000
    48 C27      4.4666   8.6182   5.4082   C.ar      1 RES1   0.0000
    49 H17      4.9911   8.5727   6.1997   H         1 RES1   0.0000
    50 C28      3.7155   9.7295   5.1694   C.ar      1 RES1   0.0000
    51 C29      2.9119   8.7633   3.1250   C.ar      1 RES1   0.0000
    52 H18      2.3625   8.8280   2.3534   H         1 RES1   0.0000
    53 C30      2.9217   9.7981   4.0219   C.ar      1 RES1   0.0000
    54 H19      2.3868  10.5662   3.8639   H         1 RES1   0.0000
    55 C31      7.4384   1.2390   2.7609   C.ar      1 RES1   0.0000
    56 H20      8.0073   0.4848   2.8698   H         1 RES1   0.0000
    57 Br2     -1.3661   0.8581   1.2506   Br        1 RES1   0.0000
    58 N3       5.9961   5.9606   1.2856   N.ar      1 RES1   0.0000
    59 O2       3.2795   4.1030   3.3346   O.3       1 RES1   0.0000
    60 N4       5.5127   5.4023   4.0723   N.2       1 RES1   0.0000
    61 C32      0.1217   1.8746   1.8746   C.ar      1 RES1   0.0000
    62 O3       4.1454   1.7837  -1.2493   O.2       2 RES2   0.0000
    63 O4       6.2979   1.9082  -1.4952   O.3       2 RES2  -1.0000
    64 O5       4.9934   2.0621  -3.2316   O.2       2 RES2   0.0000
    65 N5       5.1286   1.9263  -1.9952   N.pl3     2 RES2   0.0000
    66 O6       8.1353   9.5745   3.1789   O.3       3 RES3   0.0000
    67 H21      8.8376   9.6242   2.7188   H         3 RES3   0.0000
    68 C33      7.1727  10.4890   2.6731   C.3       3 RES3   0.0000
    69 H22      6.3956  10.5067   3.2691   H         3 RES3   0.0000
    70 H23      6.8924  10.2068   1.7774   H         3 RES3   0.0000
    71 H24      7.5675  11.3844   2.6239   H         3 RES3   0.0000
    72 O7       8.0324   7.4754   4.8568   O.3       4 RES4   0.0000
    73 H25      7.9143   8.2195   4.4856   H         4 RES4   0.0000
    74 C34      9.3916   7.3256   5.1881   C.3       4 RES4   0.0000
    75 H26      9.5793   7.8016   6.0229   H         4 RES4   0.0000
    76 H27      9.9455   7.6956   4.4692   H         4 RES4   0.0000
    77 H28      9.5975   6.3744   5.3017   H         4 RES4   0.0000
@<TRIPOS>BOND
     1     1     2    1
     2     2    40    1
     3     3     1    1
     4     4     1    1
     5     5     4    2
     6     6     5    1
     7     7     8    1
     8     9     4    1
     9    10    11    1
    10    12     7   ar
    11    13    14    1
    12    15     7   ar
    13    16    15    1
    14    17     9   ar
    15    18    17    1
    16    19    35   ar
    17    20     3   ar
    18    21     9   ar
    19    22    13   ar
    20    23    21   ar
    21    24    25    1
    22    26     3   ar
    23    27    26    1
    24    28    17   ar
    25    29    28    1
    26    30    50    1
    27    31    32    1
    28    33    34    1
    29    35    36    1
    30    37    23   ar
    31    38    37    1
    32    39    31    1
    33    40    39   ar
    34    41     5    1
    35    42    23   ar
    36    43    42    1
    37    44    10   ar
    38    45    44    1
    39    46    35   ar
    40    47    46    1
    41    48    39   ar
    42    49    48    1
    43    50    48   ar
    44    51    40   ar
    45    52    51    1
    46    53    50   ar
    47    54    53    1
    48    55    12   ar
    49    56    55    1
    50    57    61    1
    51    58     1    1
    52    59     1    1
    53    60     1    1
    54    61    33   ar
    55    10    58   ar
    56    12    20   ar
    57    13    15   ar
    58    19    41   ar
    59    19    59    1
    60    20    22   ar
    61    21    58   ar
    62    22    60    1
    63    24    26   ar
    64    24    55   ar
    65    28    37   ar
    66    31    60    2
    67    33    41   ar
    68    42    44   ar
    69    46    61   ar
    70    51    53   ar
    71    62    65    2
    72    63    65    1
    73    64    65    2
    74    66    67    1
    75    68    66    1
    76    69    68    1
    77    70    68    1
    78    71    68    1
    79    72    73    1
    80    74    72    1
    81    75    74    1
    82    76    74    1
    83    77    74    1
@<TRIPOS>SUBSTRUCTURE
     1 RES1        1 GROUP             0 ****  ****    0  
     2 RES2       62 GROUP             0 ****  ****    0  
     3 RES3       66 GROUP             0 ****  ****    0  
     4 RES4       72 GROUP             0 ****  ****    0  
@<TRIPOS>CRYSIN
   12.1319   12.1588   12.5189   82.7980   69.2750   68.5580     2     1
