@<TRIPOS>MOLECULE
KUCTEH01
    48    53     1     0     0
SMALL
NO_CHARGES
****
Generated from the CSD

@<TRIPOS>ATOM
     1 Fe1      6.4137   6.0481   2.4919   Fe        1 RES1   0.0000
     2 S1       5.8378   6.3195   4.7281   S.3       1 RES1   0.0000
     3 P1       6.0720   3.7624   2.8691   P.3       1 RES1   0.0000
     4 O1       9.2896   6.1464   3.1430   O.2       1 RES1   0.0000
     5 O2       3.5898   6.5291   1.7921   O.2       1 RES1   0.0000
     6 O3       6.8955   8.7020   1.5395   O.2       1 RES1   0.0000
     7 O4       7.1230   6.0276  -0.3377   O.2       1 RES1   0.0000
     8 C1       8.1634   6.1098   2.9330   C.1       1 RES1   0.0000
     9 C2       4.6438   6.2928   2.0750   C.1       1 RES1   0.0000
    10 C3       6.4836   8.0626   2.4827   C.2       1 RES1   0.0000
    11 C4       6.8433   5.9781   0.7698   C.1       1 RES1   0.0000
    12 C5       5.0589   7.8952   4.5152   C.2       1 RES1   0.0000
    13 C6       3.8222   8.1733   4.9746   C.2       1 RES1   0.0000
    14 C7       5.8795   8.8741   3.6876   C.3       1 RES1   0.0000
    15 C8       6.5902   3.0663   4.4786   C.ar      1 RES1   0.0000
    16 C9       5.9367   2.0063   5.0415   C.ar      1 RES1   0.0000
    17 C10      6.4062   1.4472   6.2525   C.ar      1 RES1   0.0000
    18 C11      7.5225   1.9670   6.8762   C.ar      1 RES1   0.0000
    19 C12      8.1908   3.0193   6.2981   C.ar      1 RES1   0.0000
    20 C13      7.7525   3.6110   5.0993   C.ar      1 RES1   0.0000
    21 C14      6.8032   2.5228   1.7343   C.ar      1 RES1   0.0000
    22 C15      7.8907   2.8832   0.9280   C.ar      1 RES1   0.0000
    23 C16      8.4860   1.8628   0.1217   C.ar      1 RES1   0.0000
    24 C17      8.0163   0.5899   0.1217   C.ar      1 RES1   0.0000
    25 C18      6.9148   0.1935   0.9280   C.ar      1 RES1   0.0000
    26 C19      6.3261   1.2096   1.7495   C.ar      1 RES1   0.0000
    27 C20      4.2725   3.4117   2.7931   C.ar      1 RES1   0.0000
    28 C21      3.4769   3.7087   3.9066   C.ar      1 RES1   0.0000
    29 C22      2.0640   3.5561   3.8093   C.ar      1 RES1   0.0000
    30 C23      1.5131   3.1036   2.6090   C.ar      1 RES1   0.0000
    31 C24      2.2973   2.8636   1.5061   C.ar      1 RES1   0.0000
    32 C25      3.7316   3.0175   1.5563   C.ar      1 RES1   0.0000
    33 C26      3.0691   7.2244   5.8660   C.ar      1 RES1   0.0000
    34 C27      1.7362   6.9195   5.5435   C.ar      1 RES1   0.0000
    35 C28      1.0345   6.0173   6.3970   C.ar      1 RES1   0.0000
    36 C29      1.6196   5.4823   7.5227   C.ar      1 RES1   0.0000
    37 C30      2.9508   5.8296   7.8650   C.ar      1 RES1   0.0000
    38 C31      3.6730   6.7039   7.0253   C.ar      1 RES1   0.0000
    39 C32      3.0521   9.3999   4.6292   C.ar      1 RES1   0.0000
    40 C33      2.5289  10.1520   5.7048   C.ar      1 RES1   0.0000
    41 C34      1.6895  11.3059   5.4462   C.ar      1 RES1   0.0000
    42 C35      1.4285  11.5977   4.0770   C.ar      1 RES1   0.0000
    43 C36      1.9038  10.8494   3.0730   C.ar      1 RES1   0.0000
    44 C37      2.7466   9.6843   3.2860   C.ar      1 RES1   0.0000
    45 C38      6.9808   9.6878   4.5030   C.3       1 RES1   0.0000
    46 C39      6.3645  10.1578   5.8113   C.3       1 RES1   0.0000
    47 C40      7.3511  10.9052   3.6815   C.3       1 RES1   0.0000
    48 C41      8.2373   8.8692   4.8072   C.3       1 RES1   0.0000
@<TRIPOS>BOND
     1     1     2    1
     2     2    12    1
     3     3     1    1
     4     4     8    3
     5     5     9    3
     6     6    10    2
     7     7    11    3
     8     8     1    1
     9     9     1    1
    10    10     1    1
    11    11     1    1
    12    12    13    2
    13    13    33    1
    14    14    10    1
    15    15     3    1
    16    16    15   ar
    17    17    16   ar
    18    18    17   ar
    19    19    18   ar
    20    20    15   ar
    21    21     3    1
    22    22    21   ar
    23    23    22   ar
    24    24    23   ar
    25    25    24   ar
    26    26    21   ar
    27    27     3    1
    28    28    27   ar
    29    29    28   ar
    30    30    29   ar
    31    31    30   ar
    32    32    27   ar
    33    33    34   ar
    34    34    35   ar
    35    35    36   ar
    36    36    37   ar
    37    37    38   ar
    38    38    33   ar
    39    39    13    1
    40    40    39   ar
    41    41    40   ar
    42    42    41   ar
    43    43    42   ar
    44    44    39   ar
    45    45    14    1
    46    46    45    1
    47    47    45    1
    48    48    45    1
    49    12    14    1
    50    19    20   ar
    51    25    26   ar
    52    31    32   ar
    53    43    44   ar
@<TRIPOS>SUBSTRUCTURE
     1 RES1        1 GROUP             0 ****  ****    0  
@<TRIPOS>CRYSIN
    9.8050   12.1510   16.1210  103.5500  101.2500   98.8000     2     1
