@<TRIPOS>MOLECULE
KULPUF
    76    77     1     0     0
SMALL
NO_CHARGES
****
Generated from the CSD

@<TRIPOS>ATOM
     1 Fe1      1.2187  12.1220  11.6917   Fe        1 RES1   0.0000
     2 H1       1.9731  12.6698  12.8161   H         1 RES1   0.0000
     3 P1       2.4385  10.4368  12.5201   P.3       1 RES1   0.0000
     4 P2       0.0988  13.9751  12.2031   P.3       1 RES1   0.0000
     5 P3      -0.0876  11.4128  10.0360   P.3       1 RES1   0.0000
     6 P4       2.7392  13.0406  10.4437   P.3       1 RES1   0.0000
     7 O1      -0.1462  11.5056  13.0487   O.3       1 RES1   0.0000
     8 C1       0.2370  10.7362  14.0345   C.ar      1 RES1   0.0000
     9 C2       1.4732  10.0641  14.0111   C.ar      1 RES1   0.0000
    10 C3       1.8175   9.1794  15.0423   C.ar      1 RES1   0.0000
    11 H2       2.6401   8.7068  14.9919   H         1 RES1   0.0000
    12 C4       0.9862   8.9744  16.1381   C.ar      1 RES1   0.0000
    13 C5      -0.2168   9.6889  16.1756   C.ar      1 RES1   0.0000
    14 H3      -0.7912   9.5801  16.9235   H         1 RES1   0.0000
    15 C6      -0.5977  10.5440  15.1666   C.ar      1 RES1   0.0000
    16 H4      -1.4237  11.0088  15.2275   H         1 RES1   0.0000
    17 C7       1.3631   8.0324  17.2637   C.3       1 RES1   0.0000
    18 H5       0.8379   7.2082  17.1905   H         1 RES1   0.0000
    19 H6       1.1780   8.4623  18.1257   H         1 RES1   0.0000
    20 H7       2.3173   7.8178  17.2044   H         1 RES1   0.0000
    21 C8       4.1690  10.8633  13.1549   C.3       1 RES1   0.0000
    22 H8       4.6146  11.3843  12.4270   H         1 RES1   0.0000
    23 C9       4.1105  11.7897  14.3753   C.3       1 RES1   0.0000
    24 H9       5.0048  12.1493  14.5557   H         1 RES1   0.0000
    25 H10      3.7996  11.2848  15.1542   H         1 RES1   0.0000
    26 H11      3.4918  12.5284  14.1963   H         1 RES1   0.0000
    27 C10      5.1001   9.6924  13.4756   C.3       1 RES1   0.0000
    28 H12      4.7450   9.1924  14.2399   H         1 RES1   0.0000
    29 H13      5.9914  10.0342  13.6955   H         1 RES1   0.0000
    30 H14      5.1597   9.0998  12.6974   H         1 RES1   0.0000
    31 C11      2.6908   8.6989  11.8510   C.3       1 RES1   0.0000
    32 H15      3.1707   8.1776  12.5561   H         1 RES1   0.0000
    33 C12      1.3444   8.0144  11.6236   C.3       1 RES1   0.0000
    34 H16      0.8202   8.0431  12.4514   H         1 RES1   0.0000
    35 H17      1.4920   7.0825  11.3608   H         1 RES1   0.0000
    36 H18      0.8568   8.4797  10.9124   H         1 RES1   0.0000
    37 C13      3.5472   8.6378  10.5844   C.3       1 RES1   0.0000
    38 H19      3.0810   9.0928   9.8533   H         1 RES1   0.0000
    39 H20      3.7024   7.7008  10.3401   H         1 RES1   0.0000
    40 H21      4.4064   9.0788  10.7501   H         1 RES1   0.0000
    41 C14      0.5105  14.5710  13.8813   C.3       1 RES1   0.0000
    42 H22      0.4203  13.8348  14.5208   H         1 RES1   0.0000
    43 H23     -0.1007  15.2950  14.1300   H         1 RES1   0.0000
    44 H24      1.4325  14.9037  13.8927   H         1 RES1   0.0000
    45 C15      0.1539  15.5570  11.2804   C.3       1 RES1   0.0000
    46 H25      1.0838  15.8539  11.1951   H         1 RES1   0.0000
    47 H26     -0.3624  16.2346  11.7639   H         1 RES1   0.0000
    48 H27     -0.2311  15.4277  10.3890   H         1 RES1   0.0000
    49 C16     -1.7266  13.8135  12.3619   C.3       1 RES1   0.0000
    50 H28     -2.1096  13.5711  11.4935   H         1 RES1   0.0000
    51 H29     -2.1054  14.6679  12.6590   H         1 RES1   0.0000
    52 H30     -1.9373  13.1170  13.0185   H         1 RES1   0.0000
    53 C17     -1.5303  10.4190  10.5793   C.3       1 RES1   0.0000
    54 H31     -1.2175   9.6168  11.0485   H         1 RES1   0.0000
    55 H32     -2.0588  10.1547   9.7974   H         1 RES1   0.0000
    56 H33     -2.0869  10.9547  11.1829   H         1 RES1   0.0000
    57 C18      0.5681  10.3745   8.6687   C.3       1 RES1   0.0000
    58 H34      1.2717  10.8656   8.1939   H         1 RES1   0.0000
    59 H35     -0.1564  10.1582   8.0456   H         1 RES1   0.0000
    60 H36      0.9398   9.5452   9.0367   H         1 RES1   0.0000
    61 C19     -0.9784  12.6330   8.9655   C.3       1 RES1   0.0000
    62 H37     -1.5247  13.2218   9.5270   H         1 RES1   0.0000
    63 H38     -1.5559  12.1546   8.3352   H         1 RES1   0.0000
    64 H39     -0.3256  13.1694   8.4679   H         1 RES1   0.0000
    65 C20      3.8003  14.2612  11.3254   C.3       1 RES1   0.0000
    66 H40      3.2413  14.9858  11.6767   H         1 RES1   0.0000
    67 H41      4.4604  14.6313  10.7030   H         1 RES1   0.0000
    68 H42      4.2632  13.8174  12.0658   H         1 RES1   0.0000
    69 C21      4.0426  12.0253   9.6195   C.3       1 RES1   0.0000
    70 H43      4.5435  11.5241  10.2965   H         1 RES1   0.0000
    71 H44      4.6550  12.6139   9.1309   H         1 RES1   0.0000
    72 H45      3.6219  11.3983   8.9948   H         1 RES1   0.0000
    73 C22      2.2924  14.0140   8.9559   C.3       1 RES1   0.0000
    74 H46      1.9351  13.4139   8.2689   H         1 RES1   0.0000
    75 H47      3.0896  14.4688   8.6109   H         1 RES1   0.0000
    76 H48      1.6134  14.6802   9.1937   H         1 RES1   0.0000
@<TRIPOS>BOND
     1     1     2    1
     2     3     1    1
     3     4     1    1
     4     5     1    1
     5     6     1    1
     6     7     1    1
     7     8     7    1
     8     9     3    1
     9    10     9   ar
    10    11    10    1
    11    12    10   ar
    12    13    12   ar
    13    14    13    1
    14    15     8   ar
    15    16    15    1
    16    17    12    1
    17    18    17    1
    18    19    17    1
    19    20    17    1
    20    21     3    1
    21    22    21    1
    22    23    21    1
    23    24    23    1
    24    25    23    1
    25    26    23    1
    26    27    21    1
    27    28    27    1
    28    29    27    1
    29    30    27    1
    30    31     3    1
    31    32    31    1
    32    33    31    1
    33    34    33    1
    34    35    33    1
    35    36    33    1
    36    37    31    1
    37    38    37    1
    38    39    37    1
    39    40    37    1
    40    41     4    1
    41    42    41    1
    42    43    41    1
    43    44    41    1
    44    45     4    1
    45    46    45    1
    46    47    45    1
    47    48    45    1
    48    49     4    1
    49    50    49    1
    50    51    49    1
    51    52    49    1
    52    53     5    1
    53    54    53    1
    54    55    53    1
    55    56    53    1
    56    57     5    1
    57    58    57    1
    58    59    57    1
    59    60    57    1
    60    61     5    1
    61    62    61    1
    62    63    61    1
    63    64    61    1
    64    65     6    1
    65    66    65    1
    66    67    65    1
    67    68    65    1
    68    69     6    1
    69    70    69    1
    70    71    69    1
    71    72    69    1
    72    73     6    1
    73    74    73    1
    74    75    73    1
    75    76    73    1
    76     8     9   ar
    77    13    15   ar
@<TRIPOS>SUBSTRUCTURE
     1 RES1        1 GROUP             0 ****  ****    0  
@<TRIPOS>CRYSIN
    9.0385   17.4660   17.4953   90.0000   94.1830   90.0000    14     1
