@<TRIPOS>MOLECULE
KULTAO05
    83    94     1     0     0
SMALL
NO_CHARGES
****
Generated from the CSD

@<TRIPOS>ATOM
     1 C1       4.9723   5.8362  10.3336   C.ar      1 RES1   0.0000
     2 H1       4.1638   5.4770  10.6193   H         1 RES1   0.0000
     3 C2       6.1557   5.4721  10.9385   C.ar      1 RES1   0.0000
     4 H2       6.1557   4.8515  11.6329   H         1 RES1   0.0000
     5 C3       7.3570   6.0427  10.5007   C.ar      1 RES1   0.0000
     6 C4       5.0118   6.7590   9.2797   C.ar      1 RES1   0.0000
     7 H3       4.2084   6.9984   8.8766   H         1 RES1   0.0000
     8 N1       6.1315   7.3127   8.8203   N.ar      1 RES1   0.0000
     9 C5       7.2996   6.9675   9.4474   C.ar      1 RES1   0.0000
    10 Fe1      6.3764   8.6673   7.4095   Fe        1 RES1   0.0000
    11 S1       5.0837  11.9858  10.5150   S.2       1 RES1   0.0000
    12 F1       9.6010   6.3151  14.6397   F         1 RES1   0.0000
    13 N2       8.2599   8.5508   7.9803   N.ar      1 RES1   0.0000
    14 N3       5.9734  10.0283   8.7192   N.2       1 RES1   0.0000
    15 F2       8.4771   4.5213  14.9696   F         1 RES1   0.0000
    16 F3       9.8158   5.2276  16.4793   F         1 RES1   0.0000
    17 N4      10.8207   5.9589  11.3451   N.pl3     1 RES1   0.0000
    18 C6       9.7762   6.4398  10.5763   C.ar      1 RES1   0.0000
    19 N5       8.9690   4.9263  12.0802   N.2       1 RES1   0.0000
    20 C7       9.7482   7.3935   9.5126   C.ar      1 RES1   0.0000
    21 C8       5.5984  10.8254   9.4649   C.1       1 RES1   0.0000
    22 C9      10.8423   8.0799   8.9634   C.ar      1 RES1   0.0000
    23 H4      11.7019   7.9342   9.2856   H         1 RES1   0.0000
    24 C10      8.6476   5.7963  11.0479   C.ar      1 RES1   0.0000
    25 C11     10.6230   8.9698   7.9400   C.ar      1 RES1   0.0000
    26 H5      11.3372   9.4207   7.5518   H         1 RES1   0.0000
    27 C12     10.8079   4.2859  14.5534   C.ar      1 RES1   0.0000
    28 C13      8.4703   7.6459   8.9771   C.ar      1 RES1   0.0000
    29 C14     11.1012   4.3308  13.1889   C.ar      1 RES1   0.0000
    30 C15     11.6024   3.5247  15.4029   C.ar      1 RES1   0.0000
    31 H6      11.4086   3.4967  16.3128   H         1 RES1   0.0000
    32 C16     10.2697   5.0670  12.2242   C.2       1 RES1   0.0000
    33 C17     12.2133   3.6404  12.7206   C.ar      1 RES1   0.0000
    34 H7      12.4390   3.6903  11.8196   H         1 RES1   0.0000
    35 C18     12.6813   2.8104  14.9112   C.ar      1 RES1   0.0000
    36 H8      13.1927   2.2856  15.4829   H         1 RES1   0.0000
    37 C19      9.6767   5.0730  15.1441   C.3       1 RES1   0.0000
    38 C20     12.9937   2.8752  13.5825   C.ar      1 RES1   0.0000
    39 H9      13.7270   2.4083  13.2541   H         1 RES1   0.0000
    40 C21      9.3260   9.1933   7.4886   C.ar      1 RES1   0.0000
    41 H10      9.1934   9.8188   6.8138   H         1 RES1   0.0000
    42 H11     11.5909   6.1355  11.3869   H         1 RES1   0.0000
    43 C1B      7.7804   5.8362   4.4854   C.ar      1 RES1   0.0000
    44 H1B      8.5889   5.4770   4.1997   H         1 RES1   0.0000
    45 C2B      6.5970   5.4721   3.8805   C.ar      1 RES1   0.0000
    46 H2B      6.5970   4.8515   3.1861   H         1 RES1   0.0000
    47 C3B      5.3957   6.0427   4.3183   C.ar      1 RES1   0.0000
    48 C4B      7.7409   6.7590   5.5393   C.ar      1 RES1   0.0000
    49 H3B      8.5443   6.9984   5.9424   H         1 RES1   0.0000
    50 N1B      6.6212   7.3127   5.9987   N.ar      1 RES1   0.0000
    51 C5B      5.4531   6.9675   5.3716   C.ar      1 RES1   0.0000
    52 S1B      7.6690  11.9858   4.3040   S.2       1 RES1   0.0000
    53 F1B      3.1517   6.3151   0.1793   F         1 RES1   0.0000
    54 N2B      4.4928   8.5508   6.8387   N.ar      1 RES1   0.0000
    55 N3B      6.7793  10.0283   6.0998   N.2       1 RES1   0.0000
    56 F2B      4.2756   4.5213  -0.1506   F         1 RES1   0.0000
    57 F3B      2.9369   5.2276  -1.6603   F         1 RES1   0.0000
    58 N4B      1.9320   5.9589   3.4739   N.pl3     1 RES1   0.0000
    59 C6B      2.9765   6.4398   4.2427   C.ar      1 RES1   0.0000
    60 N5B      3.7837   4.9263   2.7388   N.2       1 RES1   0.0000
    61 C7B      3.0045   7.3935   5.3064   C.ar      1 RES1   0.0000
    62 C8B      7.1543  10.8254   5.3541   C.1       1 RES1   0.0000
    63 C9B      1.9104   8.0799   5.8556   C.ar      1 RES1   0.0000
    64 H4B      1.0508   7.9342   5.5334   H         1 RES1   0.0000
    65 C10B     4.1051   5.7963   3.7711   C.ar      1 RES1   0.0000
    66 C11B     2.1297   8.9698   6.8790   C.ar      1 RES1   0.0000
    67 H5B      1.4155   9.4207   7.2672   H         1 RES1   0.0000
    68 C12B     1.9448   4.2859   0.2656   C.ar      1 RES1   0.0000
    69 C13B     4.2824   7.6459   5.8419   C.ar      1 RES1   0.0000
    70 C14B     1.6515   4.3308   1.6301   C.ar      1 RES1   0.0000
    71 C15B     1.1503   3.5247  -0.5839   C.ar      1 RES1   0.0000
    72 H6B      1.3441   3.4967  -1.4938   H         1 RES1   0.0000
    73 C16B     2.4830   5.0670   2.5948   C.2       1 RES1   0.0000
    74 C17B     0.5394   3.6404   2.0984   C.ar      1 RES1   0.0000
    75 H7B      0.3137   3.6903   2.9994   H         1 RES1   0.0000
    76 C18B     0.0714   2.8104  -0.0922   C.ar      1 RES1   0.0000
    77 H8B     -0.4400   2.2856  -0.6639   H         1 RES1   0.0000
    78 C19B     3.0760   5.0730  -0.3251   C.3       1 RES1   0.0000
    79 C20B    -0.2410   2.8752   1.2365   C.ar      1 RES1   0.0000
    80 H9B     -0.9743   2.4083   1.5649   H         1 RES1   0.0000
    81 C21B     3.4267   9.1933   7.3304   C.ar      1 RES1   0.0000
    82 H10B     3.5593   9.8188   8.0052   H         1 RES1   0.0000
    83 H11B     1.1618   6.1355   3.4321   H         1 RES1   0.0000
@<TRIPOS>BOND
     1     1     2    1
     2     3     1   ar
     3     4     3    1
     4     5     3   ar
     5     6     1   ar
     6     7     6    1
     7     8     6   ar
     8     9     5   ar
     9    10     8    1
    10    11    21    2
    11    12    37    1
    12    13    10    1
    13    14    10    1
    14    15    37    1
    15    16    37    1
    16    17    18    1
    17    18    20   ar
    18    19    24    1
    19    20    22   ar
    20    21    14    2
    21    22    23    1
    22    24     5   ar
    23    25    22   ar
    24    26    25    1
    25    27    29   ar
    26    28     9   ar
    27    29    32    1
    28    30    27   ar
    29    31    30    1
    30    32    17    1
    31    33    29   ar
    32    34    33    1
    33    35    30   ar
    34    36    35    1
    35    37    27    1
    36    38    33   ar
    37    39    38    1
    38    40    13   ar
    39    41    40    1
    40    42    17    1
    41    43    44    1
    42    45    43   ar
    43    46    45    1
    44    47    45   ar
    45    48    43   ar
    46    49    48    1
    47    50    10    1
    48    51    47   ar
    49    52    62    2
    50    53    78    1
    51    54    10    1
    52    55    10    1
    53    56    78    1
    54    57    78    1
    55    58    59    1
    56    59    61   ar
    57    60    65    1
    58    61    63   ar
    59    62    55    2
    60    63    64    1
    61    65    47   ar
    62    66    63   ar
    63    67    66    1
    64    68    70   ar
    65    69    51   ar
    66    70    73    1
    67    71    68   ar
    68    72    71    1
    69    73    58    1
    70    74    70   ar
    71    75    74    1
    72    76    71   ar
    73    77    76    1
    74    78    68    1
    75    79    74   ar
    76    80    79    1
    77    81    54   ar
    78    82    81    1
    79    83    58    1
    80     8     9   ar
    81    13    28   ar
    82    18    24   ar
    83    19    32    2
    84    20    28   ar
    85    25    40   ar
    86    35    38   ar
    87    48    50   ar
    88    50    51   ar
    89    54    69   ar
    90    59    65   ar
    91    60    73    2
    92    61    69   ar
    93    66    81   ar
    94    76    79   ar
@<TRIPOS>SUBSTRUCTURE
     1 RES1        1 GROUP             0 ****  ****    0  
@<TRIPOS>CRYSIN
   12.7527    9.9764   29.6380   90.0000   90.0000   90.0000    60     1
