@<TRIPOS>MOLECULE
KULTAO03
    83    94     1     0     0
SMALL
NO_CHARGES
****
Generated from the CSD

@<TRIPOS>ATOM
     1 Fe1      6.4186   0.2792   7.1045   Fe        1 RES1   0.0000
     2 S1       5.1203  -3.0014   3.8825   S.2       1 RES1   0.0000
     3 N1       4.4853   0.5068   7.7650   N.ar      1 RES1   0.0000
     4 N2       2.0154   3.4689  10.8537   N.pl3     1 RES1   0.0000
     5 F1       3.5341   6.3214  15.4035   F         1 RES1   0.0000
     6 N3       3.8614   4.5635  11.4343   N.2       1 RES1   0.0000
     7 N4       6.6740   1.7898   8.5215   N.ar      1 RES1   0.0000
     8 F2       4.5033   6.3725  13.4960   F         1 RES1   0.0000
     9 C1       3.0501   1.8292   9.2066   C.ar      1 RES1   0.0000
    10 C2       4.3145   1.4906   8.6863   C.ar      1 RES1   0.0000
    11 C3       5.5071   2.1944   9.0932   C.ar      1 RES1   0.0000
    12 F3       3.7600   4.5113  14.2724   F         1 RES1   0.0000
    13 C4       3.0411   2.8727  10.1728   C.ar      1 RES1   0.0000
    14 C5       2.5533   4.4783  11.5952   C.2       1 RES1   0.0000
    15 C6       4.1682   3.5573  10.5565   C.ar      1 RES1   0.0000
    16 C7       5.4558   3.2368  10.0239   C.ar      1 RES1   0.0000
    17 C8       3.3993  -0.1224   7.3273   C.ar      1 RES1   0.0000
    18 H1       3.5045  -0.7996   6.6981   H         1 RES1   0.0000
    19 C9       1.9307   1.1371   8.7016   C.ar      1 RES1   0.0000
    20 H2       1.0757   1.3331   9.0114   H         1 RES1   0.0000
    21 C10      5.5431  -1.8835   5.0036   C.1       1 RES1   0.0000
    22 C11      1.7215   5.4089  12.3741   C.ar      1 RES1   0.0000
    23 C12      7.7934   2.3967   8.9105   C.ar      1 RES1   0.0000
    24 H3       8.5983   2.1007   8.5510   H         1 RES1   0.0000
    25 C13      2.1207   0.1821   7.7604   C.ar      1 RES1   0.0000
    26 H4       1.3903  -0.2704   7.4058   H         1 RES1   0.0000
    27 N5       5.8755  -1.1041   5.7697   N.2       1 RES1   0.0000
    28 C14      7.8319   3.4455   9.8204   C.ar      1 RES1   0.0000
    29 H5       8.6394   3.8458  10.0486   H         1 RES1   0.0000
    30 C15      6.6522   3.8799  10.3752   C.ar      1 RES1   0.0000
    31 H6       6.6471   4.5912  10.9751   H         1 RES1   0.0000
    32 C16      2.1669   6.0690  13.5188   C.ar      1 RES1   0.0000
    33 C17      0.4467   5.6591  11.9078   C.ar      1 RES1   0.0000
    34 H7       0.1438   5.2130  11.1513   H         1 RES1   0.0000
    35 C18      0.0372   7.2083  13.6350   C.ar      1 RES1   0.0000
    36 H8      -0.5238   7.8184  14.0584   H         1 RES1   0.0000
    37 C19     -0.3902   6.5609  12.5437   C.ar      1 RES1   0.0000
    38 H9      -1.2465   6.7153  12.2141   H         1 RES1   0.0000
    39 C20      1.2824   6.9826  14.1323   C.ar      1 RES1   0.0000
    40 H10      1.5584   7.4404  14.8911   H         1 RES1   0.0000
    41 C21      3.4737   5.8135  14.1579   C.3       1 RES1   0.0000
    42 H11      1.2195   3.3007  10.8586   H         1 RES1   0.0000
    43 S1C      7.7168  -3.0014  10.3266   S.2       1 RES1   0.0000
    44 N1C      8.3518   0.5068   6.4441   N.ar      1 RES1   0.0000
    45 N2C     10.8217   3.4689   3.3553   N.pl3     1 RES1   0.0000
    46 F1C      9.3030   6.3214  -1.1944   F         1 RES1   0.0000
    47 N3C      8.9757   4.5635   2.7747   N.2       1 RES1   0.0000
    48 N4C      6.1631   1.7898   5.6876   N.ar      1 RES1   0.0000
    49 F2C      8.3338   6.3725   0.7130   F         1 RES1   0.0000
    50 C1C      9.7870   1.8292   5.0024   C.ar      1 RES1   0.0000
    51 C2C      8.5226   1.4906   5.5228   C.ar      1 RES1   0.0000
    52 C3C      7.3300   2.1944   5.1158   C.ar      1 RES1   0.0000
    53 F3C      9.0771   4.5113  -0.0634   F         1 RES1   0.0000
    54 C4C      9.7960   2.8727   4.0362   C.ar      1 RES1   0.0000
    55 C5C     10.2838   4.4783   2.6139   C.2       1 RES1   0.0000
    56 C6C      8.6689   3.5573   3.6526   C.ar      1 RES1   0.0000
    57 C7C      7.3813   3.2368   4.1851   C.ar      1 RES1   0.0000
    58 C8C      9.4378  -0.1224   6.8817   C.ar      1 RES1   0.0000
    59 H1C      9.3326  -0.7996   7.5109   H         1 RES1   0.0000
    60 C9C     10.9064   1.1371   5.5074   C.ar      1 RES1   0.0000
    61 H2C     11.7614   1.3331   5.1977   H         1 RES1   0.0000
    62 C10C     7.2940  -1.8835   9.2055   C.1       1 RES1   0.0000
    63 C11C    11.1156   5.4089   1.8350   C.ar      1 RES1   0.0000
    64 C12C     5.0437   2.3967   5.2986   C.ar      1 RES1   0.0000
    65 H3C      4.2388   2.1007   5.6580   H         1 RES1   0.0000
    66 C13C    10.7164   0.1821   6.4486   C.ar      1 RES1   0.0000
    67 H4C     11.4468  -0.2704   6.8033   H         1 RES1   0.0000
    68 N5C      6.9616  -1.1041   8.4393   N.2       1 RES1   0.0000
    69 C14C     5.0052   3.4455   4.3886   C.ar      1 RES1   0.0000
    70 H5C      4.1977   3.8458   4.1604   H         1 RES1   0.0000
    71 C15C     6.1849   3.8799   3.8339   C.ar      1 RES1   0.0000
    72 H6C      6.1900   4.5912   3.2340   H         1 RES1   0.0000
    73 C16C    10.6702   6.0690   0.6903   C.ar      1 RES1   0.0000
    74 C17C    12.3904   5.6591   2.3013   C.ar      1 RES1   0.0000
    75 H7C     12.6933   5.2130   3.0578   H         1 RES1   0.0000
    76 C18C    12.7999   7.2083   0.5740   C.ar      1 RES1   0.0000
    77 H8C     13.3609   7.8184   0.1506   H         1 RES1   0.0000
    78 C19C    13.2273   6.5609   1.6653   C.ar      1 RES1   0.0000
    79 H9C     14.0836   6.7153   1.9950   H         1 RES1   0.0000
    80 C20C    11.5547   6.9826   0.0767   C.ar      1 RES1   0.0000
    81 H10C    11.2787   7.4404  -0.6820   H         1 RES1   0.0000
    82 C21C     9.3634   5.8135   0.0512   C.3       1 RES1   0.0000
    83 H11C    11.6176   3.3007   3.3505   H         1 RES1   0.0000
@<TRIPOS>BOND
     1     1     3    1
     2     2    21    2
     3     3    10   ar
     4     4    13    1
     5     5    41    1
     6     6    14    2
     7     7     1    1
     8     8    41    1
     9     9    10   ar
    10    10    11   ar
    11    11     7   ar
    12    12    41    1
    13    13     9   ar
    14    14     4    1
    15    15     6    1
    16    16    11   ar
    17    17     3   ar
    18    18    17    1
    19    19     9   ar
    20    20    19    1
    21    21    27    2
    22    22    14    1
    23    23     7   ar
    24    24    23    1
    25    25    17   ar
    26    26    25    1
    27    27     1    1
    28    28    23   ar
    29    29    28    1
    30    30    16   ar
    31    31    30    1
    32    32    22   ar
    33    33    22   ar
    34    34    33    1
    35    35    36    1
    36    37    33   ar
    37    38    37    1
    38    39    32   ar
    39    40    39    1
    40    41    32    1
    41    42     4    1
    42    43    62    2
    43    44     1    1
    44    45    54    1
    45    46    82    1
    46    47    55    2
    47    48     1    1
    48    49    82    1
    49    50    51   ar
    50    51    44   ar
    51    52    48   ar
    52    53    82    1
    53    54    50   ar
    54    55    45    1
    55    56    47    1
    56    57    52   ar
    57    58    44   ar
    58    59    58    1
    59    60    50   ar
    60    61    60    1
    61    62    68    2
    62    63    55    1
    63    64    48   ar
    64    65    64    1
    65    66    58   ar
    66    67    66    1
    67    68     1    1
    68    69    64   ar
    69    70    69    1
    70    71    57   ar
    71    72    71    1
    72    73    63   ar
    73    74    63   ar
    74    75    74    1
    75    76    77    1
    76    78    74   ar
    77    79    78    1
    78    80    73   ar
    79    81    80    1
    80    82    73    1
    81    83    45    1
    82    13    15   ar
    83    15    16   ar
    84    19    25   ar
    85    28    30   ar
    86    35    37   ar
    87    35    39   ar
    88    51    52   ar
    89    54    56   ar
    90    56    57   ar
    91    60    66   ar
    92    69    71   ar
    93    76    78   ar
    94    76    80   ar
@<TRIPOS>SUBSTRUCTURE
     1 RES1        1 GROUP             0 ****  ****    0  
@<TRIPOS>CRYSIN
   12.8371   10.6474   28.4181   90.0000   90.0000   90.0000    60     1
