@<TRIPOS>MOLECULE
KULTAO01
    83    94     1     0     0
SMALL
NO_CHARGES
****
Generated from the CSD

@<TRIPOS>ATOM
     1 Fe1      0.0000   1.3472  22.2467   Fe        1 RES1   0.0000
     2 S1       1.2732  -1.9888  25.3349   S.2       1 RES1   0.0000
     3 N1      -0.2448   2.7078  20.8360   N.ar      1 RES1   0.0000
     4 N2       1.8857   1.4667  21.6680   N.ar      1 RES1   0.0000
     5 F1       3.2113   3.7303  15.0050   F         1 RES1   0.0000
     6 N3       0.4048  -0.0212  23.5617   N.2       1 RES1   0.0000
     7 N4       4.4288   4.0759  18.3102   N.pl3     1 RES1   0.0000
     8 C1       0.9211   3.0594  20.2104   C.ar      1 RES1   0.0000
     9 C2       4.7158   5.7008  16.4667   C.ar      1 RES1   0.0000
    10 C3      -0.2216   4.5675  18.7270   C.ar      1 RES1   0.0000
    11 H1      -0.2204   5.1961  18.0406   H         1 RES1   0.0000
    12 C4       5.2270   6.5067  14.2634   C.ar      1 RES1   0.0000
    13 H2       5.0361   6.5409  13.3540   H         1 RES1   0.0000
    14 C5       6.2980   7.2068  14.7505   C.ar      1 RES1   0.0000
    15 H3       6.8130   7.7276  14.1786   H         1 RES1   0.0000
    16 C6      -1.3605   3.2710  20.3839   C.ar      1 RES1   0.0000
    17 H4      -2.1651   3.0362  20.7873   H         1 RES1   0.0000
    18 N5       2.5815   5.1024  17.5829   N.2       1 RES1   0.0000
    19 C7       0.7751  -0.8210  24.2973   C.1       1 RES1   0.0000
    20 F2       2.1019   5.5184  14.6876   F         1 RES1   0.0000
    21 F3       3.4398   4.8153  13.1751   F         1 RES1   0.0000
    22 C8      -1.3951   4.1978  19.3318   C.ar      1 RES1   0.0000
    23 H5      -2.2048   4.5564  19.0462   H         1 RES1   0.0000
    24 C9       0.9724   3.9852  19.1598   C.ar      1 RES1   0.0000
    25 C10      3.3847   3.5873  19.0749   C.ar      1 RES1   0.0000
    26 C11      2.9517   0.8281  22.1589   C.ar      1 RES1   0.0000
    27 H6       2.8236   0.2045  22.8370   H         1 RES1   0.0000
    28 C12      2.0946   2.3774  20.6761   C.ar      1 RES1   0.0000
    29 C13      3.8856   4.9644  17.4411   C.2       1 RES1   0.0000
    30 C14      2.2701   4.2350  18.6086   C.ar      1 RES1   0.0000
    31 C15      4.4224   5.7471  15.0996   C.ar      1 RES1   0.0000
    32 C16      4.4609   1.9473  20.6838   C.ar      1 RES1   0.0000
    33 H7       5.3205   2.0954  20.3632   H         1 RES1   0.0000
    34 C17      3.3681   2.6313  20.1357   C.ar      1 RES1   0.0000
    35 C18      4.2379   1.0547  21.7003   C.ar      1 RES1   0.0000
    36 H8       4.9541   0.6014  22.0836   H         1 RES1   0.0000
    37 C19      6.6055   7.1383  16.0731   C.ar      1 RES1   0.0000
    38 H9       7.3447   7.5987  16.4003   H         1 RES1   0.0000
    39 C20      5.8253   6.3868  16.9336   C.ar      1 RES1   0.0000
    40 H10      6.0482   6.3404  17.8359   H         1 RES1   0.0000
    41 C21      3.2899   4.9664  14.5084   C.3       1 RES1   0.0000
    42 H11      5.1847   3.8784  18.2482   H         1 RES1   0.0000
    43 S1C     -1.2732  -1.9888  19.1586   S.2       1 RES1   0.0000
    44 N1C      0.2448   2.7078  23.6575   N.ar      1 RES1   0.0000
    45 N2C     -1.8857   1.4667  22.8254   N.ar      1 RES1   0.0000
    46 F1C     -3.2113   3.7303  29.4885   F         1 RES1   0.0000
    47 N3C     -0.4048  -0.0212  20.9318   N.2       1 RES1   0.0000
    48 N4C     -4.4288   4.0759  26.1832   N.pl3     1 RES1   0.0000
    49 C1C     -0.9211   3.0594  24.2830   C.ar      1 RES1   0.0000
    50 C2C     -4.7158   5.7008  28.0267   C.ar      1 RES1   0.0000
    51 C3C      0.2216   4.5675  25.7665   C.ar      1 RES1   0.0000
    52 H1C      0.2204   5.1961  26.4528   H         1 RES1   0.0000
    53 C4C     -5.2270   6.5067  30.2300   C.ar      1 RES1   0.0000
    54 H2C     -5.0361   6.5409  31.1395   H         1 RES1   0.0000
    55 C5C     -6.2980   7.2068  29.7430   C.ar      1 RES1   0.0000
    56 H3C     -6.8130   7.7276  30.3149   H         1 RES1   0.0000
    57 C6C      1.3605   3.2710  24.1095   C.ar      1 RES1   0.0000
    58 H4C      2.1651   3.0362  23.7061   H         1 RES1   0.0000
    59 N5C     -2.5815   5.1024  26.9105   N.2       1 RES1   0.0000
    60 C7C     -0.7751  -0.8210  20.1962   C.1       1 RES1   0.0000
    61 F2C     -2.1019   5.5184  29.8059   F         1 RES1   0.0000
    62 F3C     -3.4398   4.8153  31.3183   F         1 RES1   0.0000
    63 C8C      1.3951   4.1978  25.1616   C.ar      1 RES1   0.0000
    64 H5C      2.2048   4.5564  25.4473   H         1 RES1   0.0000
    65 C9C     -0.9724   3.9852  25.3337   C.ar      1 RES1   0.0000
    66 C10C    -3.3847   3.5873  25.4185   C.ar      1 RES1   0.0000
    67 C11C    -2.9517   0.8281  22.3345   C.ar      1 RES1   0.0000
    68 H6C     -2.8236   0.2045  21.6564   H         1 RES1   0.0000
    69 C12C    -2.0946   2.3774  23.8173   C.ar      1 RES1   0.0000
    70 C13C    -3.8856   4.9644  27.0523   C.2       1 RES1   0.0000
    71 C14C    -2.2701   4.2350  25.8848   C.ar      1 RES1   0.0000
    72 C15C    -4.4224   5.7471  29.3939   C.ar      1 RES1   0.0000
    73 C16C    -4.4609   1.9473  23.8096   C.ar      1 RES1   0.0000
    74 H7C     -5.3205   2.0954  24.1303   H         1 RES1   0.0000
    75 C17C    -3.3681   2.6313  24.3578   C.ar      1 RES1   0.0000
    76 C18C    -4.2379   1.0547  22.7931   C.ar      1 RES1   0.0000
    77 H8C     -4.9541   0.6014  22.4099   H         1 RES1   0.0000
    78 C19C    -6.6055   7.1383  28.4203   C.ar      1 RES1   0.0000
    79 H9C     -7.3447   7.5987  28.0932   H         1 RES1   0.0000
    80 C20C    -5.8253   6.3868  27.5598   C.ar      1 RES1   0.0000
    81 H10C    -6.0482   6.3404  26.6575   H         1 RES1   0.0000
    82 C21C    -3.2899   4.9664  29.9850   C.3       1 RES1   0.0000
    83 H11C    -5.1847   3.8784  26.2452   H         1 RES1   0.0000
@<TRIPOS>BOND
     1     1     3    1
     2     2    19    2
     3     3     8   ar
     4     4     1    1
     5     5    41    1
     6     6     1    1
     7     7    25    1
     8     8    24   ar
     9     9    29    1
    10    10    11    1
    11    12    13    1
    12    14    12   ar
    13    15    14    1
    14    16     3   ar
    15    17    16    1
    16    18    29    2
    17    19     6    2
    18    20    41    1
    19    21    41    1
    20    22    10   ar
    21    23    22    1
    22    24    10   ar
    23    25    30   ar
    24    26     4   ar
    25    27    26    1
    26    28     4   ar
    27    29     7    1
    28    30    18    1
    29    31     9   ar
    30    32    33    1
    31    34    25   ar
    32    35    26   ar
    33    36    35    1
    34    37    14   ar
    35    38    37    1
    36    39     9   ar
    37    40    39    1
    38    41    31    1
    39    42     7    1
    40    43    60    2
    41    44     1    1
    42    45     1    1
    43    46    82    1
    44    47     1    1
    45    48    66    1
    46    49    44   ar
    47    50    70    1
    48    51    52    1
    49    53    54    1
    50    55    53   ar
    51    56    55    1
    52    57    44   ar
    53    58    57    1
    54    59    70    2
    55    60    47    2
    56    61    82    1
    57    62    82    1
    58    63    51   ar
    59    64    63    1
    60    65    49   ar
    61    66    71   ar
    62    67    45   ar
    63    68    67    1
    64    69    45   ar
    65    70    48    1
    66    71    59    1
    67    72    50   ar
    68    73    74    1
    69    75    66   ar
    70    76    67   ar
    71    77    76    1
    72    78    55   ar
    73    79    78    1
    74    80    50   ar
    75    81    80    1
    76    82    72    1
    77    83    48    1
    78     8    28   ar
    79    12    31   ar
    80    16    22   ar
    81    24    30   ar
    82    28    34   ar
    83    32    34   ar
    84    32    35   ar
    85    37    39   ar
    86    49    69   ar
    87    51    65   ar
    88    53    72   ar
    89    57    63   ar
    90    65    71   ar
    91    69    75   ar
    92    73    75   ar
    93    73    76   ar
    94    78    80   ar
@<TRIPOS>SUBSTRUCTURE
     1 RES1        1 GROUP             0 ****  ****    0  
@<TRIPOS>CRYSIN
   12.8112   10.0738   29.6623   90.0000   90.0000   90.0000    60     1
