@<TRIPOS>MOLECULE
KULTAO02
    83    94     1     0     0
SMALL
NO_CHARGES
****
Generated from the CSD

@<TRIPOS>ATOM
     1 Fe1     12.8042   0.3144   7.0898   Fe        1 RES1   0.0000
     2 S1      14.0650  -2.9779  10.2811   S.2       1 RES1   0.0000
     3 N1      13.0705   1.7729   8.4797   N.ar      1 RES1   0.0000
     4 N2       8.4239   3.4437  10.8417   N.pl3     1 RES1   0.0000
     5 C1       9.4559   2.8475  10.1563   C.ar      1 RES1   0.0000
     6 N3      10.9002   0.4985   7.7401   N.ar      1 RES1   0.0000
     7 C2      11.9156   2.1842   9.0662   C.ar      1 RES1   0.0000
     8 C3      10.7286   1.4806   8.6711   C.ar      1 RES1   0.0000
     9 C4      10.5814   3.5351  10.5414   C.ar      1 RES1   0.0000
    10 N4      10.2728   4.5470  11.4194   N.2       1 RES1   0.0000
    11 C5       9.4585   1.8058   9.1878   C.ar      1 RES1   0.0000
    12 C6      14.2011   2.3745   8.8640   C.ar      1 RES1   0.0000
    13 H1      15.0040   2.0811   8.4964   H         1 RES1   0.0000
    14 C7      13.0667   3.8636  10.3488   C.ar      1 RES1   0.0000
    15 H2      13.0654   4.5778  10.9438   H         1 RES1   0.0000
    16 N5      13.2920  -1.0554   8.4034   N.2       1 RES1   0.0000
    17 C8       8.3547   1.1139   8.6853   C.ar      1 RES1   0.0000
    18 H3       7.4994   1.3116   8.9899   H         1 RES1   0.0000
    19 C9       8.9668   4.4567  11.5833   C.2       1 RES1   0.0000
    20 C10     11.8669   3.2205  10.0085   C.ar      1 RES1   0.0000
    21 C11      8.1371   5.3877  12.3499   C.ar      1 RES1   0.0000
    22 C12      8.5442   0.1424   7.7406   C.ar      1 RES1   0.0000
    23 H4       7.8144  -0.3199   7.3961   H         1 RES1   0.0000
    24 C13     14.2396   3.4246   9.7941   C.ar      1 RES1   0.0000
    25 H5      15.0488   3.8168  10.0306   H         1 RES1   0.0000
    26 C14     13.6416  -1.8537   9.1620   C.1       1 RES1   0.0000
    27 C15      9.8234  -0.1531   7.2965   C.ar      1 RES1   0.0000
    28 H6       9.9348  -0.8290   6.6672   H         1 RES1   0.0000
    29 F1      10.9130   6.3550  13.4893   F         1 RES1   0.0000
    30 C16      6.8643   5.6396  11.8910   C.ar      1 RES1   0.0000
    31 H7       6.5609   5.1943  11.1338   H         1 RES1   0.0000
    32 F2      10.1537   4.4875  14.2616   F         1 RES1   0.0000
    33 F3       9.9245   6.2944  15.3965   F         1 RES1   0.0000
    34 C17      9.8618   5.7959  14.1456   C.3       1 RES1   0.0000
    35 C18      6.4495   7.1904  13.6181   C.ar      1 RES1   0.0000
    36 H8       5.8925   7.8058  14.0350   H         1 RES1   0.0000
    37 C19      8.5737   6.0467  13.4956   C.ar      1 RES1   0.0000
    38 C20      7.7017   6.9576  14.1172   C.ar      1 RES1   0.0000
    39 H9       7.9809   7.4093  14.8801   H         1 RES1   0.0000
    40 C21      6.0218   6.5378  12.5291   C.ar      1 RES1   0.0000
    41 H10      5.1639   6.6866  12.2001   H         1 RES1   0.0000
    42 H11      7.6697   3.1993  10.8020   H         1 RES1   0.0000
    43 S1B     11.5434  -2.9779   3.8985   S.2       1 RES1   0.0000
    44 N1B     12.5379   1.7729   5.6999   N.ar      1 RES1   0.0000
    45 N2B     17.1845   3.4437   3.3379   N.pl3     1 RES1   0.0000
    46 C1B     16.1525   2.8475   4.0233   C.ar      1 RES1   0.0000
    47 N3B     14.7082   0.4985   6.4395   N.ar      1 RES1   0.0000
    48 C2B     13.6928   2.1842   5.1134   C.ar      1 RES1   0.0000
    49 C3B     14.8798   1.4806   5.5085   C.ar      1 RES1   0.0000
    50 C4B     15.0270   3.5351   3.6382   C.ar      1 RES1   0.0000
    51 N4B     15.3356   4.5470   2.7602   N.2       1 RES1   0.0000
    52 C5B     16.1499   1.8058   4.9918   C.ar      1 RES1   0.0000
    53 C6B     11.4073   2.3745   5.3156   C.ar      1 RES1   0.0000
    54 H1B     10.6044   2.0811   5.6832   H         1 RES1   0.0000
    55 C7B     12.5417   3.8636   3.8308   C.ar      1 RES1   0.0000
    56 H2B     12.5430   4.5778   3.2358   H         1 RES1   0.0000
    57 N5B     12.3164  -1.0554   5.7762   N.2       1 RES1   0.0000
    58 C8B     17.2537   1.1139   5.4943   C.ar      1 RES1   0.0000
    59 H3B     18.1090   1.3116   5.1897   H         1 RES1   0.0000
    60 C9B     16.6416   4.4567   2.5963   C.2       1 RES1   0.0000
    61 C10B    13.7415   3.2205   4.1711   C.ar      1 RES1   0.0000
    62 C11B    17.4713   5.3877   1.8297   C.ar      1 RES1   0.0000
    63 C12B    17.0642   0.1424   6.4390   C.ar      1 RES1   0.0000
    64 H4B     17.7940  -0.3199   6.7835   H         1 RES1   0.0000
    65 C13B    11.3688   3.4246   4.3855   C.ar      1 RES1   0.0000
    66 H5B     10.5596   3.8168   4.1490   H         1 RES1   0.0000
    67 C14B    11.9668  -1.8537   5.0176   C.1       1 RES1   0.0000
    68 C15B    15.7850  -0.1531   6.8831   C.ar      1 RES1   0.0000
    69 H6B     15.6736  -0.8290   7.5124   H         1 RES1   0.0000
    70 F1B     14.6954   6.3550   0.6903   F         1 RES1   0.0000
    71 C16B    18.7441   5.6396   2.2886   C.ar      1 RES1   0.0000
    72 H7B     19.0475   5.1943   3.0458   H         1 RES1   0.0000
    73 F2B     15.4547   4.4875  -0.0820   F         1 RES1   0.0000
    74 F3B     15.6839   6.2944  -1.2169   F         1 RES1   0.0000
    75 C17B    15.7466   5.7959   0.0340   C.3       1 RES1   0.0000
    76 C18B    19.1589   7.1904   0.5615   C.ar      1 RES1   0.0000
    77 H8B     19.7159   7.8058   0.1446   H         1 RES1   0.0000
    78 C19B    17.0347   6.0467   0.6840   C.ar      1 RES1   0.0000
    79 C20B    17.9067   6.9576   0.0624   C.ar      1 RES1   0.0000
    80 H9B     17.6275   7.4093  -0.7005   H         1 RES1   0.0000
    81 C21B    19.5866   6.5378   1.6505   C.ar      1 RES1   0.0000
    82 H10B    20.4445   6.6866   1.9795   H         1 RES1   0.0000
    83 H11B    17.9387   3.1993   3.3776   H         1 RES1   0.0000
@<TRIPOS>BOND
     1     1     3    1
     2     2    26    2
     3     3     7   ar
     4     4     5    1
     5     5     9   ar
     6     6     1    1
     7     7     8   ar
     8     8     6   ar
     9     9    10    1
    10    10    19    2
    11    11     5   ar
    12    12     3   ar
    13    13    12    1
    14    14    15    1
    15    16     1    1
    16    17    11   ar
    17    18    17    1
    18    19     4    1
    19    20     7   ar
    20    21    19    1
    21    22    17   ar
    22    23    22    1
    23    24    12   ar
    24    25    24    1
    25    26    16    2
    26    27     6   ar
    27    28    27    1
    28    29    34    1
    29    30    21   ar
    30    31    30    1
    31    32    34    1
    32    33    34    1
    33    34    37    1
    34    35    36    1
    35    37    21   ar
    36    38    35   ar
    37    39    38    1
    38    40    30   ar
    39    41    40    1
    40    42     4    1
    41    43    67    2
    42    44     1    1
    43    45    46    1
    44    46    50   ar
    45    47     1    1
    46    48    44   ar
    47    49    47   ar
    48    50    51    1
    49    51    60    2
    50    52    46   ar
    51    53    44   ar
    52    54    53    1
    53    55    56    1
    54    57     1    1
    55    58    52   ar
    56    59    58    1
    57    60    45    1
    58    61    48   ar
    59    62    60    1
    60    63    58   ar
    61    64    63    1
    62    65    53   ar
    63    66    65    1
    64    67    57    2
    65    68    47   ar
    66    69    68    1
    67    70    75    1
    68    71    62   ar
    69    72    71    1
    70    73    75    1
    71    74    75    1
    72    75    78    1
    73    76    77    1
    74    78    62   ar
    75    79    76   ar
    76    80    79    1
    77    81    71   ar
    78    82    81    1
    79    83    45    1
    80     8    11   ar
    81     9    20   ar
    82    14    20   ar
    83    14    24   ar
    84    22    27   ar
    85    35    40   ar
    86    37    38   ar
    87    48    49   ar
    88    49    52   ar
    89    50    61   ar
    90    55    61   ar
    91    55    65   ar
    92    63    68   ar
    93    76    81   ar
    94    78    79   ar
@<TRIPOS>SUBSTRUCTURE
     1 RES1        1 GROUP             0 ****  ****    0  
@<TRIPOS>CRYSIN
   12.8042   10.6288   28.3592   90.0000   90.0000   90.0000    60     1
