@<TRIPOS>MOLECULE
KULTAO
    83    94     1     0     0
SMALL
NO_CHARGES
****
Generated from the CSD

@<TRIPOS>ATOM
     1 C1      14.1740   3.2669   9.2866   C.ar      1 RES1   0.0000
     2 H1      14.9773   3.0325   8.8822   H         1 RES1   0.0000
     3 C2      14.2112   4.1922  10.3404   C.ar      1 RES1   0.0000
     4 H2      15.0209   4.5503  10.6248   H         1 RES1   0.0000
     5 C3      13.0363   4.5603  10.9463   C.ar      1 RES1   0.0000
     6 H3      13.0376   5.1870  11.6342   H         1 RES1   0.0000
     7 C4      11.8371   3.9810  10.5156   C.ar      1 RES1   0.0000
     8 N1      13.0568   2.7056   8.8309   N.ar      1 RES1   0.0000
     9 C5      11.8896   3.0546   9.4576   C.ar      1 RES1   0.0000
    10 Fe1     12.8121   1.3465   7.4217   Fe        1 RES1   0.0000
    11 S1      14.0883  -1.9874  10.5144   S.2       1 RES1   0.0000
    12 N2      10.9274   1.4655   7.9988   N.ar      1 RES1   0.0000
    13 N3      13.2182  -0.0231   8.7400   N.2       1 RES1   0.0000
    14 F1       9.5940   3.7165  14.6670   F         1 RES1   0.0000
    15 C6       9.4233   3.5867  10.5972   C.ar      1 RES1   0.0000
    16 N4      10.2292   5.0954  12.0911   N.2       1 RES1   0.0000
    17 N5       8.3778   4.0705  11.3622   N.pl3     1 RES1   0.0000
    18 C7       9.4438   2.6272   9.5327   C.ar      1 RES1   0.0000
    19 C8      10.7148   2.3747   8.9933   C.ar      1 RES1   0.0000
    20 C9       8.5700   1.0531   7.9676   C.ar      1 RES1   0.0000
    21 H4       7.8551   0.6005   7.5820   H         1 RES1   0.0000
    22 C10      8.3471   1.9392   8.9835   C.ar      1 RES1   0.0000
    23 H5       7.4874   2.0850   9.3067   H         1 RES1   0.0000
    24 C11      8.3830   5.7402  14.5743   C.ar      1 RES1   0.0000
    25 C12     10.5418   4.2274  11.0657   C.ar      1 RES1   0.0000
    26 C13     13.5885  -0.8197   9.4745   C.1       1 RES1   0.0000
    27 C14      7.5809   6.4975  15.4130   C.ar      1 RES1   0.0000
    28 H6       7.7744   6.5317  16.3217   H         1 RES1   0.0000
    29 F2      10.7109   5.5058  14.9891   F         1 RES1   0.0000
    30 F3       9.3695   4.8007  16.5037   F         1 RES1   0.0000
    31 C15      6.9826   6.3839  12.7430   C.ar      1 RES1   0.0000
    32 H7       6.7597   6.3436  11.8420   H         1 RES1   0.0000
    33 C16      8.9236   4.9566  12.2344   C.2       1 RES1   0.0000
    34 C17      9.8589   0.8288   7.5101   C.ar      1 RES1   0.0000
    35 H8       9.9858   0.2052   6.8309   H         1 RES1   0.0000
    36 C18      8.0934   5.6909  13.2058   C.ar      1 RES1   0.0000
    37 C19      6.2023   7.1342  13.6051   C.ar      1 RES1   0.0000
    38 H9       5.4656   7.5989  13.2788   H         1 RES1   0.0000
    39 C20      6.5085   7.1956  14.9255   C.ar      1 RES1   0.0000
    40 H10      5.9909   7.7115  15.4994   H         1 RES1   0.0000
    41 C21      9.5168   4.9576  15.1681   C.3       1 RES1   0.0000
    42 H11      7.6053   3.8724  11.4264   H         1 RES1   0.0000
    43 C1B     11.4502   3.2669   5.5567   C.ar      1 RES1   0.0000
    44 H1B     10.6469   3.0325   5.9611   H         1 RES1   0.0000
    45 C2B     11.4130   4.1922   4.5029   C.ar      1 RES1   0.0000
    46 H2B     10.6033   4.5503   4.2185   H         1 RES1   0.0000
    47 C3B     12.5879   4.5603   3.8970   C.ar      1 RES1   0.0000
    48 H3B     12.5866   5.1870   3.2091   H         1 RES1   0.0000
    49 C4B     13.7871   3.9810   4.3277   C.ar      1 RES1   0.0000
    50 N1B     12.5674   2.7056   6.0124   N.ar      1 RES1   0.0000
    51 C5B     13.7346   3.0546   5.3857   C.ar      1 RES1   0.0000
    52 S1B     11.5359  -1.9874   4.3289   S.2       1 RES1   0.0000
    53 N2B     14.6968   1.4655   6.8445   N.ar      1 RES1   0.0000
    54 N3B     12.4060  -0.0231   6.1033   N.2       1 RES1   0.0000
    55 F1B     16.0302   3.7165   0.1763   F         1 RES1   0.0000
    56 C6B     16.2009   3.5867   4.2461   C.ar      1 RES1   0.0000
    57 N4B     15.3950   5.0954   2.7522   N.2       1 RES1   0.0000
    58 N5B     17.2464   4.0705   3.4811   N.pl3     1 RES1   0.0000
    59 C7B     16.1804   2.6272   5.3106   C.ar      1 RES1   0.0000
    60 C8B     14.9094   2.3747   5.8500   C.ar      1 RES1   0.0000
    61 C9B     17.0542   1.0531   6.8757   C.ar      1 RES1   0.0000
    62 H4B     17.7691   0.6005   7.2613   H         1 RES1   0.0000
    63 C10B    17.2771   1.9392   5.8598   C.ar      1 RES1   0.0000
    64 H5B     18.1368   2.0850   5.5366   H         1 RES1   0.0000
    65 C11B    17.2412   5.7402   0.2690   C.ar      1 RES1   0.0000
    66 C12B    15.0824   4.2274   3.7776   C.ar      1 RES1   0.0000
    67 C13B    12.0357  -0.8197   5.3688   C.1       1 RES1   0.0000
    68 C14B    18.0433   6.4975  -0.5697   C.ar      1 RES1   0.0000
    69 H6B     17.8498   6.5317  -1.4784   H         1 RES1   0.0000
    70 F2B     14.9133   5.5058  -0.1458   F         1 RES1   0.0000
    71 F3B     16.2547   4.8007  -1.6604   F         1 RES1   0.0000
    72 C15B    18.6416   6.3839   2.1003   C.ar      1 RES1   0.0000
    73 H7B     18.8645   6.3436   3.0013   H         1 RES1   0.0000
    74 C16B    16.7006   4.9566   2.6089   C.2       1 RES1   0.0000
    75 C17B    15.7653   0.8288   7.3332   C.ar      1 RES1   0.0000
    76 H8B     15.6384   0.2052   8.0124   H         1 RES1   0.0000
    77 C18B    17.5308   5.6909   1.6375   C.ar      1 RES1   0.0000
    78 C19B    19.4219   7.1342   1.2382   C.ar      1 RES1   0.0000
    79 H9B     20.1586   7.5989   1.5645   H         1 RES1   0.0000
    80 C20B    19.1157   7.1956  -0.0822   C.ar      1 RES1   0.0000
    81 H10B    19.6333   7.7115  -0.6561   H         1 RES1   0.0000
    82 C21B    16.1074   4.9576  -0.3248   C.3       1 RES1   0.0000
    83 H11B    18.0189   3.8724   3.4169   H         1 RES1   0.0000
@<TRIPOS>BOND
     1     1     2    1
     2     3     1   ar
     3     4     3    1
     4     5     3   ar
     5     6     5    1
     6     7     5   ar
     7     8     1   ar
     8     9     7   ar
     9    10     8    1
    10    11    26    2
    11    12    10    1
    12    13    10    1
    13    14    41    1
    14    15    17    1
    15    16    25    1
    16    17    33    1
    17    18    15   ar
    18    19     9   ar
    19    20    21    1
    20    22    18   ar
    21    23    22    1
    22    24    27   ar
    23    25     7   ar
    24    26    13    2
    25    27    28    1
    26    29    41    1
    27    30    41    1
    28    31    32    1
    29    33    16    2
    30    34    12   ar
    31    35    34    1
    32    36    24   ar
    33    37    31   ar
    34    38    37    1
    35    39    27   ar
    36    40    39    1
    37    41    24    1
    38    42    17    1
    39    43    44    1
    40    45    43   ar
    41    46    45    1
    42    47    45   ar
    43    48    47    1
    44    49    47   ar
    45    50    10    1
    46    51    49   ar
    47    52    67    2
    48    53    10    1
    49    54    10    1
    50    55    82    1
    51    56    58    1
    52    57    66    1
    53    58    74    1
    54    59    56   ar
    55    60    51   ar
    56    61    62    1
    57    63    59   ar
    58    64    63    1
    59    65    68   ar
    60    66    49   ar
    61    67    54    2
    62    68    69    1
    63    70    82    1
    64    71    82    1
    65    72    73    1
    66    74    57    2
    67    75    53   ar
    68    76    75    1
    69    77    65   ar
    70    78    72   ar
    71    79    78    1
    72    80    68   ar
    73    81    80    1
    74    82    65    1
    75    83    58    1
    76     8     9   ar
    77    12    19   ar
    78    15    25   ar
    79    18    19   ar
    80    20    22   ar
    81    20    34   ar
    82    31    36   ar
    83    33    36    1
    84    37    39   ar
    85    43    50   ar
    86    50    51   ar
    87    53    60   ar
    88    56    66   ar
    89    59    60   ar
    90    61    63   ar
    91    61    75   ar
    92    72    77   ar
    93    74    77    1
    94    78    80   ar
@<TRIPOS>SUBSTRUCTURE
     1 RES1        1 GROUP             0 ****  ****    0  
@<TRIPOS>CRYSIN
   12.8121   10.0581   29.6866   90.0000   90.0000   90.0000    60     1
