@<TRIPOS>MOLECULE
KULTAO04
    83    94     1     0     0
SMALL
NO_CHARGES
****
Generated from the CSD

@<TRIPOS>ATOM
     1 Fe1      6.4772   5.6182  21.5138   Fe        1 RES1   0.0000
     2 S1       7.8632   2.3471  24.7790   S.2       1 RES1   0.0000
     3 N1       8.4916   5.9733  20.8253   N.ar      1 RES1   0.0000
     4 N2       9.1018  10.0455  17.1631   N.2       1 RES1   0.0000
     5 N3      10.9426   8.9712  17.7480   N.pl3     1 RES1   0.0000
     6 C1       8.6419   6.9640  19.9039   C.ar      1 RES1   0.0000
     7 N4       6.2777   7.2439  20.0250   N.ar      1 RES1   0.0000
     8 F1       9.2002   9.9297  14.3293   F         1 RES1   0.0000
     9 C2       9.9075   7.3243  19.4040   C.ar      1 RES1   0.0000
    10 C3       7.4488   7.6524  19.4806   C.ar      1 RES1   0.0000
    11 C4      10.4140   9.9619  17.0079   C.2       1 RES1   0.0000
    12 C5       7.4540   3.4429  23.6594   C.1       1 RES1   0.0000
    13 C6       9.9140   8.3611  18.4336   C.ar      1 RES1   0.0000
    14 C7       9.5863   5.3643  21.2656   C.ar      1 RES1   0.0000
    15 H1       9.4891   4.6888  21.8953   H         1 RES1   0.0000
    16 F2       9.4321  11.7128  13.1627   F         1 RES1   0.0000
    17 C8       5.1351   8.9208  18.7284   C.ar      1 RES1   0.0000
    18 H2       4.3294   9.3207  18.4932   H         1 RES1   0.0000
    19 C9      11.0216   6.6413  19.9037   C.ar      1 RES1   0.0000
    20 H3      11.8727   6.8493  19.5919   H         1 RES1   0.0000
    21 C10      8.8025   9.0387  18.0406   C.ar      1 RES1   0.0000
    22 C11      7.5097   8.7074  18.5543   C.ar      1 RES1   0.0000
    23 N5       7.1223   4.1956  22.9021   N.2       1 RES1   0.0000
    24 C12     10.8636   5.6806  20.8379   C.ar      1 RES1   0.0000
    25 H4      11.6020   5.2367  21.1896   H         1 RES1   0.0000
    26 C13      5.1727   7.8636  19.6286   C.ar      1 RES1   0.0000
    27 H5       4.3630   7.5666  19.9791   H         1 RES1   0.0000
    28 C14      6.3256   9.3593  18.1981   C.ar      1 RES1   0.0000
    29 H6       6.3425  10.0798  17.6097   H         1 RES1   0.0000
    30 C15     11.2354  10.8668  16.2087   C.ar      1 RES1   0.0000
    31 C16     10.8104  11.5070  15.0654   C.ar      1 RES1   0.0000
    32 C17     12.5204  11.1199  16.6631   C.ar      1 RES1   0.0000
    33 H7      12.8300  10.6867  17.4261   H         1 RES1   0.0000
    34 F3       8.4709  11.8222  15.0682   F         1 RES1   0.0000
    35 C18     12.9000  12.6542  14.8990   C.ar      1 RES1   0.0000
    36 H8      13.4467  13.2740  14.4745   H         1 RES1   0.0000
    37 C19     11.6784  12.4119  14.4199   C.ar      1 RES1   0.0000
    38 H9      11.3947  12.8451  13.6455   H         1 RES1   0.0000
    39 C20      9.5111  11.2153  14.4113   C.3       1 RES1   0.0000
    40 C21     13.3495  12.0066  16.0034   C.ar      1 RES1   0.0000
    41 H10     14.2123  12.1589  16.3132   H         1 RES1   0.0000
    42 H11     11.6460   8.6956  17.7388   H         1 RES1   0.0000
    43 S1C      5.0912   2.3471  18.2485   S.2       1 RES1   0.0000
    44 N1C      4.4628   5.9733  22.2022   N.ar      1 RES1   0.0000
    45 N2C      3.8526  10.0455  25.8644   N.2       1 RES1   0.0000
    46 N3C      2.0118   8.9712  25.2795   N.pl3     1 RES1   0.0000
    47 C1C      4.3125   6.9640  23.1236   C.ar      1 RES1   0.0000
    48 N4C      6.6767   7.2439  23.0025   N.ar      1 RES1   0.0000
    49 F1C      3.7542   9.9297  28.6982   F         1 RES1   0.0000
    50 C2C      3.0469   7.3243  23.6235   C.ar      1 RES1   0.0000
    51 C3C      5.5056   7.6524  23.5469   C.ar      1 RES1   0.0000
    52 C4C      2.5404   9.9619  26.0196   C.2       1 RES1   0.0000
    53 C5C      5.5004   3.4429  19.3681   C.1       1 RES1   0.0000
    54 C6C      3.0404   8.3611  24.5939   C.ar      1 RES1   0.0000
    55 C7C      3.3681   5.3643  21.7619   C.ar      1 RES1   0.0000
    56 H1C      3.4653   4.6888  21.1322   H         1 RES1   0.0000
    57 F2C      3.5223  11.7128  29.8648   F         1 RES1   0.0000
    58 C8C      7.8193   8.9208  24.2991   C.ar      1 RES1   0.0000
    59 H2C      8.6250   9.3207  24.5343   H         1 RES1   0.0000
    60 C9C      1.9328   6.6413  23.1238   C.ar      1 RES1   0.0000
    61 H3C      1.0817   6.8493  23.4356   H         1 RES1   0.0000
    62 C10C     4.1519   9.0387  24.9869   C.ar      1 RES1   0.0000
    63 C11C     5.4447   8.7074  24.4732   C.ar      1 RES1   0.0000
    64 N5C      5.8321   4.1956  20.1254   N.2       1 RES1   0.0000
    65 C12C     2.0908   5.6806  22.1896   C.ar      1 RES1   0.0000
    66 H4C      1.3524   5.2367  21.8379   H         1 RES1   0.0000
    67 C13C     7.7817   7.8636  23.3989   C.ar      1 RES1   0.0000
    68 H5C      8.5914   7.5666  23.0484   H         1 RES1   0.0000
    69 C14C     6.6288   9.3593  24.8294   C.ar      1 RES1   0.0000
    70 H6C      6.6119  10.0798  25.4178   H         1 RES1   0.0000
    71 C15C     1.7190  10.8668  26.8188   C.ar      1 RES1   0.0000
    72 C16C     2.1440  11.5070  27.9621   C.ar      1 RES1   0.0000
    73 C17C     0.4340  11.1199  26.3644   C.ar      1 RES1   0.0000
    74 H7C      0.1244  10.6867  25.6014   H         1 RES1   0.0000
    75 F3C      4.4835  11.8222  27.9593   F         1 RES1   0.0000
    76 C18C     0.0544  12.6542  28.1285   C.ar      1 RES1   0.0000
    77 H8C     -0.4923  13.2740  28.5530   H         1 RES1   0.0000
    78 C19C     1.2760  12.4119  28.6076   C.ar      1 RES1   0.0000
    79 H9C      1.5597  12.8451  29.3820   H         1 RES1   0.0000
    80 C20C     3.4433  11.2153  28.6162   C.3       1 RES1   0.0000
    81 C21C    -0.3951  12.0066  27.0241   C.ar      1 RES1   0.0000
    82 H10C    -1.2579  12.1589  26.7143   H         1 RES1   0.0000
    83 H11C     1.3084   8.6956  25.2887   H         1 RES1   0.0000
@<TRIPOS>BOND
     1     1     3    1
     2     2    12    2
     3     3     6   ar
     4     4    11    2
     5     5    11    1
     6     6     9   ar
     7     7     1    1
     8     8    39    1
     9     9    13   ar
    10    10     6   ar
    11    11    30    1
    12    12    23    2
    13    13     5    1
    14    14     3   ar
    15    15    14    1
    16    16    39    1
    17    17    18    1
    18    19     9   ar
    19    20    19    1
    20    21     4    1
    21    22    10   ar
    22    23     1    1
    23    24    14   ar
    24    25    24    1
    25    26     7   ar
    26    27    26    1
    27    28    17   ar
    28    29    28    1
    29    30    31   ar
    30    31    37   ar
    31    32    30   ar
    32    33    32    1
    33    34    39    1
    34    35    36    1
    35    37    35   ar
    36    38    37    1
    37    39    31    1
    38    40    32   ar
    39    41    40    1
    40    42     5    1
    41    43    53    2
    42    44     1    1
    43    45    52    2
    44    46    52    1
    45    47    44   ar
    46    48     1    1
    47    49    80    1
    48    50    47   ar
    49    51    47   ar
    50    52    71    1
    51    53    64    2
    52    54    46    1
    53    55    44   ar
    54    56    55    1
    55    57    80    1
    56    58    59    1
    57    60    50   ar
    58    61    60    1
    59    62    45    1
    60    63    51   ar
    61    64     1    1
    62    65    55   ar
    63    66    65    1
    64    67    48   ar
    65    68    67    1
    66    69    58   ar
    67    70    69    1
    68    71    72   ar
    69    72    78   ar
    70    73    71   ar
    71    74    73    1
    72    75    80    1
    73    76    77    1
    74    78    76   ar
    75    79    78    1
    76    80    72    1
    77    81    73   ar
    78    82    81    1
    79    83    46    1
    80     7    10   ar
    81    13    21   ar
    82    17    26   ar
    83    19    24   ar
    84    21    22   ar
    85    22    28   ar
    86    35    40   ar
    87    48    51   ar
    88    50    54   ar
    89    54    62   ar
    90    58    67   ar
    91    60    65   ar
    92    62    63   ar
    93    63    69   ar
    94    76    81   ar
@<TRIPOS>SUBSTRUCTURE
     1 RES1        1 GROUP             0 ****  ****    0  
@<TRIPOS>CRYSIN
   12.9544   10.7221   28.6850   90.0000   90.0000   90.0000    60     1
