@<TRIPOS>MOLECULE
KUMXUO01
    84    90     4     0     0
SMALL
USER_CHARGES
****
Generated from the CSD

@<TRIPOS>ATOM
     1 Fe1     11.6118   7.1659   8.9458   Fe        1 RES1   2.0000
     2 O1       5.9542   8.3812   7.4382   O.3       1 RES1   0.0000
     3 O2      16.9625   6.0853  11.3994   O.3       1 RES1   0.0000
     4 N1      11.9396   8.5268   7.5492   N.2       1 RES1   0.0000
     5 N2      10.7866   8.9303   6.9198   N.pl3     1 RES1   0.0000
     6 N3      13.5831   5.3367   8.1032   N.pl3     1 RES1   0.0000
     7 N4      10.6174   5.9003  10.1106   N.2       1 RES1   0.0000
     8 N5      12.7682   8.5911  11.0706   N.pl3     1 RES1   0.0000
     9 N6      11.6075   8.5637  10.3385   N.2       1 RES1   0.0000
    10 N7      12.3022   5.7203   7.7669   N.2       1 RES1   0.0000
    11 N8       9.2630   5.9224   9.8663   N.pl3     1 RES1   0.0000
    12 N9       9.8404   7.4441   8.3082   N.ar      1 RES1   0.0000
    13 N10     13.3477   6.9206   9.6804   N.ar      1 RES1   0.0000
    14 C1       8.7963   6.8415   8.9065   C.ar      1 RES1   0.0000
    15 C2      14.1656   5.9694   9.2170   C.ar      1 RES1   0.0000
    16 C3      15.7805   6.4435  10.8705   C.ar      1 RES1   0.0000
    17 C4      15.3790   5.6815   9.7599   C.ar      1 RES1   0.0000
    18 H1      15.9194   5.0090   9.4115   H         1 RES1   0.0000
    19 C5       7.2473   8.1220   7.6629   C.ar      1 RES1   0.0000
    20 C6       9.5821   8.3724   7.3860   C.ar      1 RES1   0.0000
    21 C7      13.7560   7.6467  10.7250   C.ar      1 RES1   0.0000
    22 C8       7.4995   7.1306   8.6338   C.ar      1 RES1   0.0000
    23 H2       6.8044   6.6933   9.0697   H         1 RES1   0.0000
    24 C9      12.9060   9.2409   7.0006   C.2       1 RES1   0.0000
    25 H3      13.8052   9.1747   7.2282   H         1 RES1   0.0000
    26 C10     12.0177   5.0565   6.6602   C.2       1 RES1   0.0000
    27 H4      11.2106   5.1139   6.2015   H         1 RES1   0.0000
    28 C11     12.7569   9.6050  11.9755   C.2       1 RES1   0.0000
    29 H5      13.4291   9.8175  12.5818   H         1 RES1   0.0000
    30 C12     14.9542   7.4688  11.3492   C.ar      1 RES1   0.0000
    31 H6      15.2126   8.0050  12.0636   H         1 RES1   0.0000
    32 C13     10.7839   4.9909  11.0532   C.2       1 RES1   0.0000
    33 H7      11.6045   4.7587  11.4242   H         1 RES1   0.0000
    34 C14     11.0454   9.8894   5.9922   C.2       1 RES1   0.0000
    35 H8      10.4271  10.3125   5.4409   H         1 RES1   0.0000
    36 C15     14.0727   4.4513   7.1983   C.2       1 RES1   0.0000
    37 H9      14.9142   4.0554   7.2110   H         1 RES1   0.0000
    38 C16     10.8833   9.5722  10.7993   C.2       1 RES1   0.0000
    39 H10     10.0371   9.8001  10.4878   H         1 RES1   0.0000
    40 C17      8.3227   8.7505   7.0034   C.ar      1 RES1   0.0000
    41 H11      8.1843   9.3899   6.3422   H         1 RES1   0.0000
    42 C18      5.5952   9.5815   6.6785   C.3       1 RES1   0.0000
    43 H12      6.1359   9.6323   5.8628   H         1 RES1   0.0000
    44 C19     13.1022   4.2535   6.2721   C.2       1 RES1   0.0000
    45 H13     13.1460   3.6973   5.5282   H         1 RES1   0.0000
    46 C20     12.3944  10.1106   6.0302   C.2       1 RES1   0.0000
    47 H14     12.8755  10.7177   5.5150   H         1 RES1   0.0000
    48 C21     11.5633  10.2487  11.8183   C.2       1 RES1   0.0000
    49 H15     11.2623  10.9887  12.2936   H         1 RES1   0.0000
    50 C22     17.4635   6.7853  12.5745   C.3       1 RES1   0.0000
    51 H16     16.7158   7.0250  13.1614   H         1 RES1   0.0000
    52 C23      8.6107   5.0284  10.6546   C.2       1 RES1   0.0000
    53 H17      7.6954   4.8635  10.6678   H         1 RES1   0.0000
    54 C24      4.1412   9.4212   6.3164   C.3       1 RES1   0.0000
    55 H18      4.0109   8.5745   5.8836   H         1 RES1   0.0000
    56 H19      3.8789  10.1283   5.7230   H         1 RES1   0.0000
    57 H20      3.6072   9.4582   7.1140   H         1 RES1   0.0000
    58 C25      5.8366  10.8047   7.5265   C.3       1 RES1   0.0000
    59 H21      5.2715  10.7728   8.3016   H         1 RES1   0.0000
    60 H22      5.6363  11.5924   7.0160   H         1 RES1   0.0000
    61 H23      6.7562  10.8264   7.8013   H         1 RES1   0.0000
    62 C26      9.5549   4.4209  11.4192   C.2       1 RES1   0.0000
    63 H24      9.4149   3.7590  12.0578   H         1 RES1   0.0000
    64 C27     18.3655   5.8231  13.2739   C.3       1 RES1   0.0000
    65 H25     17.8831   5.0160  13.4687   H         1 RES1   0.0000
    66 H26     18.6788   6.2140  14.0924   H         1 RES1   0.0000
    67 H27     19.1150   5.6188  12.7093   H         1 RES1   0.0000
    68 C28     18.1709   8.0412  12.1103   C.3       1 RES1   0.0000
    69 H28     18.8863   7.8037  11.5147   H         1 RES1   0.0000
    70 H29     18.5283   8.5072  12.8691   H         1 RES1   0.0000
    71 H30     17.5478   8.6085  11.6501   H         1 RES1   0.0000
    72 F1       9.7096   6.4467   4.7273   F         2 RES2   0.0000
    73 F2       9.0567   5.0319   3.0743   F         2 RES2   0.0000
    74 F3      11.2643   5.2364   3.6251   F         2 RES2   0.0000
    75 F4      10.1935   6.9172   2.5656   F         2 RES2   0.0000
    76 B1      10.0639   5.9004   3.4893   B         2 RES2  -1.0000
    77 F5      17.6156   8.3854   6.6233   F         3 RES3   0.0000
    78 F6      17.6257   8.8371   8.8008   F         3 RES3   0.0000
    79 F7      16.4791  10.1580   7.3120   F         3 RES3   0.0000
    80 F8      15.7436   8.0962   7.8232   F         3 RES3   0.0000
    81 B2      16.8434   8.8757   7.6587   B         3 RES3  -1.0000
    82 O3      13.1086   5.2426  13.2574   O.3       4 RES4   0.0000
    83 H31     13.6940   4.4946  13.3475   H         4 RES4   0.0000
    84 H32     13.4712   5.8875  13.8429   H         4 RES4   0.0000
@<TRIPOS>BOND
     1     1     4    1
     2     2    19    1
     3     3    16    1
     4     4     5    1
     5     5    20    1
     6     6    10    1
     7     7     1    1
     8     8     9    1
     9     9     1    1
    10    10     1    1
    11    11     7    1
    12    12     1    1
    13    13     1    1
    14    14    11    1
    15    15     6    1
    16    16    17   ar
    17    17    15   ar
    18    18    17    1
    19    19    22   ar
    20    20    12   ar
    21    21     8    1
    22    22    14   ar
    23    23    22    1
    24    24     4    2
    25    25    24    1
    26    26    10    2
    27    27    26    1
    28    28     8    1
    29    29    28    1
    30    30    16   ar
    31    31    30    1
    32    32     7    2
    33    33    32    1
    34    34     5    1
    35    35    34    1
    36    36     6    1
    37    37    36    1
    38    38     9    2
    39    39    38    1
    40    40    19   ar
    41    41    40    1
    42    42     2    1
    43    43    42    1
    44    44    26    1
    45    45    44    1
    46    46    24    1
    47    47    46    1
    48    48    28    2
    49    49    48    1
    50    50     3    1
    51    51    50    1
    52    52    11    1
    53    53    52    1
    54    54    42    1
    55    55    54    1
    56    56    54    1
    57    57    54    1
    58    58    42    1
    59    59    58    1
    60    60    58    1
    61    61    58    1
    62    62    32    1
    63    63    62    1
    64    64    50    1
    65    65    64    1
    66    66    64    1
    67    67    64    1
    68    68    50    1
    69    69    68    1
    70    70    68    1
    71    71    68    1
    72    12    14   ar
    73    13    15   ar
    74    13    21   ar
    75    20    40   ar
    76    21    30   ar
    77    34    46    2
    78    36    44    2
    79    38    48    1
    80    52    62    2
    81    72    76    1
    82    73    76    1
    83    74    76    1
    84    75    76    1
    85    77    81    1
    86    78    81    1
    87    79    81    1
    88    80    81    1
    89    82    83    1
    90    84    82    1
@<TRIPOS>SUBSTRUCTURE
     1 RES1        1 GROUP             0 ****  ****    0  
     2 RES2       72 GROUP             0 ****  ****    0  
     3 RES3       77 GROUP             0 ****  ****    0  
     4 RES4       82 GROUP             0 ****  ****    0  
@<TRIPOS>CRYSIN
   19.5073   11.7048   15.6423   90.0000  106.2940   90.0000    14     1
