@<TRIPOS>MOLECULE
KUNMOW
   113   120     2     0     0
SMALL
USER_CHARGES
****
Generated from the CSD

@<TRIPOS>ATOM
     1 C1      -4.3723   1.5388  24.8126   C.3       1 RES1   0.0000
     2 H1      -4.7342   1.7685  25.6708   H         1 RES1   0.0000
     3 H2      -4.4187   0.5869  24.6916   H         1 RES1   0.0000
     4 H3      -4.8803   1.9746  24.1248   H         1 RES1   0.0000
     5 C2      -2.9919   1.9687  24.7387   C.3       1 RES1   0.0000
     6 H4      -2.4860   1.5349  25.4445   H         1 RES1   0.0000
     7 H5      -2.9490   2.9265  24.8843   H         1 RES1   0.0000
     8 C3      -1.3945   2.4181  22.9047   C.2       1 RES1   0.0000
     9 C4       0.3554   5.2950  23.2561   C.2       1 RES1   0.0000
    10 C5       1.3910   6.0846  22.4911   C.3       1 RES1   0.0000
    11 C6       1.6905   6.1427  19.8938   C.3       1 RES1   0.0000
    12 H6       2.0236   5.5763  19.1797   H         1 RES1   0.0000
    13 H7       2.3279   6.8638  20.0155   H         1 RES1   0.0000
    14 C7       0.3677   6.7335  19.4634   C.3       1 RES1   0.0000
    15 H8       0.3829   6.8521  18.5008   H         1 RES1   0.0000
    16 H9       0.2791   7.6117  19.8631   H         1 RES1   0.0000
    17 C8      -0.8567   5.9121  19.8293   C.3       1 RES1   0.0000
    18 H10     -1.1123   6.1396  20.7369   H         1 RES1   0.0000
    19 H11     -1.5851   6.1808  19.2469   H         1 RES1   0.0000
    20 C9      -0.6029   3.7980  18.3498   C.3       1 RES1   0.0000
    21 C10      0.6787   2.9775  18.3222   C.2       1 RES1   0.0000
    22 C11      2.9987   1.9000  20.5353   C.2       1 RES1   0.0000
    23 C12      4.7528   0.5457  19.4553   C.3       1 RES1   0.0000
    24 H12      5.0544   1.2405  18.8503   H         1 RES1   0.0000
    25 H13      4.1048  -0.0039  18.9870   H         1 RES1   0.0000
    26 C13      5.9350  -0.3101  19.8806   C.3       1 RES1   0.0000
    27 H14      6.3370  -0.7086  19.1058   H         1 RES1   0.0000
    28 H15      5.6340  -0.9991  20.4770   H         1 RES1   0.0000
    29 H16      6.5823   0.2395  20.3291   H         1 RES1   0.0000
    30 C14     -0.1248   5.8130  24.5919   C.3       1 RES1   0.0000
    31 H17     -0.7781   5.2092  24.9538   H         1 RES1   0.0000
    32 H18     -0.5208   6.6793  24.4765   H         1 RES1   0.0000
    33 H19      0.6186   5.8785  25.1958   H         1 RES1   0.0000
    34 C15      0.9303   7.5626  22.3509   C.3       1 RES1   0.0000
    35 H20      1.5921   8.0592  21.8640   H         1 RES1   0.0000
    36 H21      0.8188   7.9473  23.2240   H         1 RES1   0.0000
    37 H22      0.0955   7.5940  21.8774   H         1 RES1   0.0000
    38 C16      2.7268   6.0787  23.2446   C.3       1 RES1   0.0000
    39 H23      3.3745   6.5891  22.7535   H         1 RES1   0.0000
    40 H24      3.0367   5.1739  23.3405   H         1 RES1   0.0000
    41 H25      2.6070   6.4674  24.1136   H         1 RES1   0.0000
    42 C17     -0.5451   4.8343  17.1761   C.3       1 RES1   0.0000
    43 H26     -1.3445   5.3662  17.1788   H         1 RES1   0.0000
    44 H27     -0.4733   4.3672  16.3408   H         1 RES1   0.0000
    45 H28      0.2193   5.4035  17.2909   H         1 RES1   0.0000
    46 C18     -1.8357   2.9108  18.1262   C.3       1 RES1   0.0000
    47 H29     -2.6256   3.4565  18.1154   H         1 RES1   0.0000
    48 H30     -1.9008   2.2670  18.8369   H         1 RES1   0.0000
    49 H31     -1.7530   2.4515  17.2864   H         1 RES1   0.0000
    50 C19      1.1025   2.3122  17.0453   C.3       1 RES1   0.0000
    51 H32      1.9237   1.8352  17.1900   H         1 RES1   0.0000
    52 H33      1.2349   2.9775  16.3655   H         1 RES1   0.0000
    53 H34      0.4212   1.6978  16.7621   H         1 RES1   0.0000
    54 N1      -2.3795   1.6487  23.4364   N.pl3     1 RES1   0.0000
    55 N2      -1.0284   3.5061  23.4976   N.2       1 RES1   0.0000
    56 N3      -0.0893   4.2100  22.7416   N.2       1 RES1   0.0000
    57 N4       1.6293   5.3382  21.1566   N.3       1 RES1   0.0000
    58 H35      2.4912   5.0620  21.2456   H         1 RES1   0.0000
    59 N5      -0.7163   4.4337  19.7443   N.3       1 RES1   0.0000
    60 H36     -1.5229   4.1336  20.0401   H         1 RES1   0.0000
    61 N6       1.3215   2.8594  19.4141   N.2       1 RES1   0.0000
    62 N7       2.4877   2.0911  19.3581   N.2       1 RES1   0.0000
    63 N8       4.1269   1.1523  20.6319   N.pl3     1 RES1   0.0000
    64 S1      -0.7596   1.8354  21.3594   S.3       1 RES1   0.0000
    65 S2       2.3601   2.5447  22.0439   S.3       1 RES1   0.0000
    66 Fe1      0.6221   3.5634  21.0690   Fe        1 RES1   1.0000
    67 H37      4.4261   0.9794  21.4562   H         1 RES1   0.0000
    68 H38     -2.5413   0.7655  23.0672   H         1 RES1   0.0000
    69 C20     -5.4389   9.2604  19.0827   C.ar      2 RES2   0.0000
    70 C21     -6.1363   9.4606  20.2998   C.ar      2 RES2   0.0000
    71 H39     -6.0165   8.8561  20.9968   H         2 RES2   0.0000
    72 C22     -6.9885  10.5284  20.4766   C.ar      2 RES2   0.0000
    73 H40     -7.4237  10.6304  21.2926   H         2 RES2   0.0000
    74 C23     -7.2124  11.4554  19.4694   C.ar      2 RES2   0.0000
    75 H41     -7.8078  12.1594  19.5897   H         2 RES2   0.0000
    76 C24     -6.5170  11.2978  18.2711   C.ar      2 RES2   0.0000
    77 H42     -6.6261  11.9180  17.5866   H         2 RES2   0.0000
    78 C25     -5.6718  10.2273  18.0982   C.ar      2 RES2   0.0000
    79 H43     -5.2319  10.1417  17.2841   H         2 RES2   0.0000
    80 C26     -2.9816   8.6688  18.3377   C.ar      2 RES2   0.0000
    81 C27     -2.2282   8.3367  17.1956   C.ar      2 RES2   0.0000
    82 H44     -2.5835   7.7353  16.5828   H         2 RES2   0.0000
    83 C28     -0.9710   8.8796  16.9536   C.ar      2 RES2   0.0000
    84 H45     -0.5037   8.6225  16.1930   H         2 RES2   0.0000
    85 C29     -0.4015   9.7903  17.8132   C.ar      2 RES2   0.0000
    86 H46      0.4496  10.1319  17.6538   H         2 RES2   0.0000
    87 C30     -1.1338  10.1868  18.9241   C.ar      2 RES2   0.0000
    88 H47     -0.7821  10.8149  19.5158   H         2 RES2   0.0000
    89 C31     -2.3871   9.6490  19.1497   C.ar      2 RES2   0.0000
    90 H48     -2.8673   9.9552  19.8855   H         2 RES2   0.0000
    91 C32     -4.1844   7.0130  20.0565   C.ar      2 RES2   0.0000
    92 C33     -4.4432   5.6371  20.0677   C.ar      2 RES2   0.0000
    93 H49     -4.8549   5.2583  19.3253   H         2 RES2   0.0000
    94 C34     -4.1096   4.8010  21.1470   C.ar      2 RES2   0.0000
    95 H50     -4.2728   3.8863  21.1022   H         2 RES2   0.0000
    96 C35     -3.5302   5.3584  22.2874   C.ar      2 RES2   0.0000
    97 H51     -3.2857   4.8167  23.0022   H         2 RES2   0.0000
    98 C36     -3.3262   6.7107  22.3417   C.ar      2 RES2   0.0000
    99 H52     -2.9678   7.0974  23.1075   H         2 RES2   0.0000
   100 C37     -3.6542   7.5116  21.2480   C.ar      2 RES2   0.0000
   101 H53     -3.5124   8.4282  21.3150   H         2 RES2   0.0000
   102 C38     -5.0814   7.1178  17.5089   C.ar      2 RES2   0.0000
   103 C39     -6.3546   7.3486  16.9398   C.ar      2 RES2   0.0000
   104 H54     -6.8677   8.0513  17.2685   H         2 RES2   0.0000
   105 C40     -6.8735   6.5694  15.9093   C.ar      2 RES2   0.0000
   106 H55     -7.7226   6.7539  15.5768   H         2 RES2   0.0000
   107 C41     -6.1457   5.5311  15.3774   C.ar      2 RES2   0.0000
   108 H56     -6.4831   5.0228  14.6761   H         2 RES2   0.0000
   109 C42     -4.8974   5.2642  15.9151   C.ar      2 RES2   0.0000
   110 H57     -4.3911   4.5615  15.5723   H         2 RES2   0.0000
   111 C43     -4.3950   6.0238  16.9489   C.ar      2 RES2   0.0000
   112 H58     -3.5591   5.8039  17.2931   H         2 RES2   0.0000
   113 B1      -4.4508   7.9983  18.7370   B         2 RES2  -1.0000
@<TRIPOS>BOND
     1     1     2    1
     2     3     1    1
     3     4     1    1
     4     5     1    1
     5     6     5    1
     6     7     5    1
     7     8    54    1
     8     9    10    1
     9    10    34    1
    10    11    12    1
    11    13    11    1
    12    14    11    1
    13    15    14    1
    14    16    14    1
    15    17    14    1
    16    18    17    1
    17    19    17    1
    18    20    21    1
    19    21    50    1
    20    22    62    2
    21    23    24    1
    22    25    23    1
    23    26    23    1
    24    27    26    1
    25    28    26    1
    26    29    26    1
    27    30     9    1
    28    31    30    1
    29    32    30    1
    30    33    30    1
    31    34    35    1
    32    36    34    1
    33    37    34    1
    34    38    10    1
    35    39    38    1
    36    40    38    1
    37    41    38    1
    38    42    20    1
    39    43    42    1
    40    44    42    1
    41    45    42    1
    42    46    20    1
    43    47    46    1
    44    48    46    1
    45    49    46    1
    46    50    51    1
    47    52    50    1
    48    53    50    1
    49    54     5    1
    50    55     8    2
    51    56     9    2
    52    57    10    1
    53    58    57    1
    54    59    17    1
    55    60    59    1
    56    61    21    2
    57    62    61    1
    58    63    22    1
    59    64     8    1
    60    65    22    1
    61    66    56    1
    62    67    63    1
    63    68    54    1
    64    11    57    1
    65    20    59    1
    66    23    63    1
    67    55    56    1
    68    57    66    1
    69    59    66    1
    70    61    66    1
    71    64    66    1
    72    65    66    1
    73    69    70   ar
    74    70    71    1
    75    72    70   ar
    76    73    72    1
    77    74    72   ar
    78    75    74    1
    79    76    74   ar
    80    77    76    1
    81    78    69   ar
    82    79    78    1
    83    80    81   ar
    84    81    82    1
    85    83    81   ar
    86    84    83    1
    87    85    83   ar
    88    86    85    1
    89    87    85   ar
    90    88    87    1
    91    89    80   ar
    92    90    89    1
    93    91    92   ar
    94    92    93    1
    95    94    92   ar
    96    95    94    1
    97    96    94   ar
    98    97    96    1
    99    98    96   ar
   100    99    98    1
   101   100    91   ar
   102   101   100    1
   103   102   103   ar
   104   103   104    1
   105   105   103   ar
   106   106   105    1
   107   107   105   ar
   108   108   107    1
   109   109   107   ar
   110   110   109    1
   111   111   102   ar
   112   112   111    1
   113   113    69    1
   114    76    78   ar
   115    80   113    1
   116    87    89   ar
   117    91   113    1
   118    98   100   ar
   119   102   113    1
   120   109   111   ar
@<TRIPOS>SUBSTRUCTURE
     1 RES1        1 GROUP             0 ****  ****    0  
     2 RES2       69 GROUP             0 ****  ****    0  
@<TRIPOS>CRYSIN
    9.5945   19.6278   22.4474   90.0000   93.4720   90.0000    14     1
