@<TRIPOS>MOLECULE
KUQJEN
    91    99     1     0     0
SMALL
NO_CHARGES
****
Generated from the CSD

@<TRIPOS>ATOM
     1 Fe1      9.0132   1.6690   3.8519   Fe        1 RES1   0.0000
     2 H1       8.5865   0.4825   4.7539   H         1 RES1   0.0000
     3 H2       9.1247   0.7046   2.6187   H         1 RES1   0.0000
     4 P1      10.9922   0.9847   4.2137   P.3       1 RES1   0.0000
     5 P2       9.1978   2.9816   5.5460   P.3       1 RES1   0.0000
     6 P3       9.2051   3.4522   2.6386   P.3       1 RES1   0.0000
     7 P4       6.9405   1.6172   3.3627   P.3       1 RES1   0.0000
     8 C1      11.6116   1.6000   5.8532   C.3       1 RES1   0.0000
     9 H3      11.3898   0.9448   6.5622   H         1 RES1   0.0000
    10 H4      12.5961   1.7007   5.8229   H         1 RES1   0.0000
    11 C2      10.9643   2.9469   6.1741   C.3       1 RES1   0.0000
    12 H5      11.4823   3.6750   5.7490   H         1 RES1   0.0000
    13 H6      10.9723   3.0943   7.1537   H         1 RES1   0.0000
    14 C3       9.0198   4.7551   5.0459   C.3       1 RES1   0.0000
    15 H7       8.0631   5.0009   4.9904   H         1 RES1   0.0000
    16 H8       9.4568   5.3439   5.7105   H         1 RES1   0.0000
    17 C4       9.6904   4.9149   3.6741   C.3       1 RES1   0.0000
    18 H9      10.6743   4.9506   3.7765   H         1 RES1   0.0000
    19 H10      9.3897   5.7535   3.2427   H         1 RES1   0.0000
    20 C5       7.5118   3.9730   2.0312   C.3       1 RES1   0.0000
    21 H11      7.1150   4.6255   2.6616   H         1 RES1   0.0000
    22 H12      7.5912   4.4075   1.1445   H         1 RES1   0.0000
    23 C6       6.6097   2.7395   1.9261   C.3       1 RES1   0.0000
    24 H13      6.7913   2.2621   1.0779   H         1 RES1   0.0000
    25 H14      5.6588   3.0172   1.9282   H         1 RES1   0.0000
    26 C7      11.3941  -0.7989   4.4093   C.ar      1 RES1   0.0000
    27 C8      10.3844  -1.7552   4.4435   C.ar      1 RES1   0.0000
    28 H15      9.4819  -1.4949   4.3014   H         1 RES1   0.0000
    29 C9      10.6905  -3.0930   4.6858   C.ar      1 RES1   0.0000
    30 H16      9.9937  -3.7375   4.7169   H         1 RES1   0.0000
    31 C10     12.0051  -3.4888   4.8815   C.ar      1 RES1   0.0000
    32 H17     12.2058  -4.4029   5.0451   H         1 RES1   0.0000
    33 C11     13.0292  -2.5512   4.8384   C.ar      1 RES1   0.0000
    34 H18     13.9311  -2.8208   4.9697   H         1 RES1   0.0000
    35 C12     12.7260  -1.2148   4.6033   C.ar      1 RES1   0.0000
    36 H19     13.4272  -0.5735   4.5735   H         1 RES1   0.0000
    37 C13     12.2747   1.4758   3.0049   C.ar      1 RES1   0.0000
    38 C14     12.3131   0.8166   1.7710   C.ar      1 RES1   0.0000
    39 H20     11.7453   0.0691   1.6206   H         1 RES1   0.0000
    40 C15     13.1702   1.2405   0.7608   C.ar      1 RES1   0.0000
    41 H21     13.1974   0.7762  -0.0680   H         1 RES1   0.0000
    42 C16     13.9866   2.3433   0.9679   C.ar      1 RES1   0.0000
    43 H22     14.5725   2.6363   0.2809   H         1 RES1   0.0000
    44 C17     13.9464   3.0129   2.1745   C.ar      1 RES1   0.0000
    45 H23     14.4959   3.7768   2.3096   H         1 RES1   0.0000
    46 C18     13.1053   2.5771   3.1925   C.ar      1 RES1   0.0000
    47 H24     13.0988   3.0360   4.0249   H         1 RES1   0.0000
    48 C19      8.2407   2.9272   7.1120   C.ar      1 RES1   0.0000
    49 C20      8.5558   1.9559   8.0736   C.ar      1 RES1   0.0000
    50 H25      9.2461   1.3282   7.8930   H         1 RES1   0.0000
    51 C21      7.8801   1.8930   9.2810   C.ar      1 RES1   0.0000
    52 H26      8.1249   1.2451   9.9306   H         1 RES1   0.0000
    53 C22      6.8363   2.7861   9.5414   C.ar      1 RES1   0.0000
    54 H27      6.3609   2.7429  10.3624   H         1 RES1   0.0000
    55 C23      6.5054   3.7327   8.5921   C.ar      1 RES1   0.0000
    56 H28      5.7914   4.3375   8.7595   H         1 RES1   0.0000
    57 C24      7.2063   3.8091   7.3934   C.ar      1 RES1   0.0000
    58 H29      6.9740   4.4755   6.7574   H         1 RES1   0.0000
    59 C25     10.2071   3.7023   1.1211   C.ar      1 RES1   0.0000
    60 C26     11.1550   4.7193   0.9895   C.ar      1 RES1   0.0000
    61 H30     11.3235   5.2992   1.7226   H         1 RES1   0.0000
    62 C27     11.8600   4.8981  -0.1989   C.ar      1 RES1   0.0000
    63 H31     12.5107   5.5884  -0.2647   H         1 RES1   0.0000
    64 C28     11.6158   4.0737  -1.2826   C.ar      1 RES1   0.0000
    65 H32     12.0920   4.1972  -2.0952   H         1 RES1   0.0000
    66 C29     10.6680   3.0650  -1.1746   C.ar      1 RES1   0.0000
    67 H33     10.4863   2.5066  -1.9208   H         1 RES1   0.0000
    68 C30      9.9859   2.8670   0.0161   C.ar      1 RES1   0.0000
    69 H34      9.3594   2.1554   0.0843   H         1 RES1   0.0000
    70 C31      5.7159   2.1319   4.6320   C.ar      1 RES1   0.0000
    71 C32      5.4861   1.2833   5.7241   C.ar      1 RES1   0.0000
    72 H35      5.9713   0.4699   5.7948   H         1 RES1   0.0000
    73 C33      4.5631   1.6152   6.7017   C.ar      1 RES1   0.0000
    74 H36      4.4039   1.0199   7.4258   H         1 RES1   0.0000
    75 C34      3.8653   2.8200   6.6260   C.ar      1 RES1   0.0000
    76 H37      3.2221   3.0420   7.2883   H         1 RES1   0.0000
    77 C35      4.1166   3.6902   5.5862   C.ar      1 RES1   0.0000
    78 H38      3.6662   4.5257   5.5494   H         1 RES1   0.0000
    79 C36      5.0307   3.3473   4.5872   C.ar      1 RES1   0.0000
    80 H39      5.1887   3.9478   3.8681   H         1 RES1   0.0000
    81 C37      6.1336   0.0712   2.7592   C.ar      1 RES1   0.0000
    82 C38      6.8974  -1.0210   2.3681   C.ar      1 RES1   0.0000
    83 H40      7.8446  -0.9842   2.4383   H         1 RES1   0.0000
    84 C39      6.2838  -2.1742   1.8718   C.ar      1 RES1   0.0000
    85 H41      6.8155  -2.9168   1.6102   H         1 RES1   0.0000
    86 C40      4.9079  -2.2392   1.7594   C.ar      1 RES1   0.0000
    87 H42      4.4939  -3.0247   1.4210   H         1 RES1   0.0000
    88 C41      4.1336  -1.1542   2.1429   C.ar      1 RES1   0.0000
    89 H43      3.1870  -1.1972   2.0672   H         1 RES1   0.0000
    90 C42      4.7380  -0.0052   2.6376   C.ar      1 RES1   0.0000
    91 H44      4.2011   0.7343   2.8967   H         1 RES1   0.0000
@<TRIPOS>BOND
     1     1     2    1
     2     3     1    1
     3     4     1    1
     4     5     1    1
     5     6     1    1
     6     7     1    1
     7     8     4    1
     8     9     8    1
     9    10     8    1
    10    11     5    1
    11    12    11    1
    12    13    11    1
    13    14     5    1
    14    15    14    1
    15    16    14    1
    16    17     6    1
    17    18    17    1
    18    19    17    1
    19    20     6    1
    20    21    20    1
    21    22    20    1
    22    23     7    1
    23    24    23    1
    24    25    23    1
    25    26     4    1
    26    27    26   ar
    27    28    27    1
    28    29    27   ar
    29    30    29    1
    30    31    29   ar
    31    32    31    1
    32    33    31   ar
    33    34    33    1
    34    35    26   ar
    35    36    35    1
    36    37     4    1
    37    38    37   ar
    38    39    38    1
    39    40    38   ar
    40    41    40    1
    41    42    40   ar
    42    43    42    1
    43    44    42   ar
    44    45    44    1
    45    46    37   ar
    46    47    46    1
    47    48     5    1
    48    49    48   ar
    49    50    49    1
    50    51    49   ar
    51    52    51    1
    52    53    51   ar
    53    54    53    1
    54    55    53   ar
    55    56    55    1
    56    57    48   ar
    57    58    57    1
    58    59     6    1
    59    60    59   ar
    60    61    60    1
    61    62    60   ar
    62    63    62    1
    63    64    62   ar
    64    65    64    1
    65    66    64   ar
    66    67    66    1
    67    68    59   ar
    68    69    68    1
    69    70     7    1
    70    71    70   ar
    71    72    71    1
    72    73    71   ar
    73    74    73    1
    74    75    73   ar
    75    76    75    1
    76    77    75   ar
    77    78    77    1
    78    79    70   ar
    79    80    79    1
    80    81     7    1
    81    82    81   ar
    82    83    82    1
    83    84    82   ar
    84    85    84    1
    85    86    84   ar
    86    87    86    1
    87    88    86   ar
    88    89    88    1
    89    90    81   ar
    90    91    90    1
    91     8    11    1
    92    14    17    1
    93    20    23    1
    94    33    35   ar
    95    44    46   ar
    96    55    57   ar
    97    66    68   ar
    98    77    79   ar
    99    88    90   ar
@<TRIPOS>SUBSTRUCTURE
     1 RES1        1 GROUP             0 ****  ****    0  
@<TRIPOS>CRYSIN
   11.3961   11.8042   14.9611   88.0140   81.4620   63.9040     2     1
