@<TRIPOS>MOLECULE
LABNAF
   151   159     3     0     0
SMALL
USER_CHARGES
****
Generated from the CSD

@<TRIPOS>ATOM
     1 Fe1      2.5307   4.1892   5.0429   Fe        1 RES1   2.0000
     2 P1       3.9616   2.6070   4.2673   P.3       1 RES1   0.0000
     3 P2       1.6607   5.4875   3.3853   P.3       1 RES1   0.0000
     4 N1       2.9627   3.3565   6.7686   N.2       1 RES1   0.0000
     5 N2       1.3860   5.3359   6.1558   N.2       1 RES1   0.0000
     6 N3       3.9953   5.3851   5.3834   N.1       1 RES1   0.0000
     7 N4       0.9840   3.0406   4.8939   N.1       1 RES1   0.0000
     8 C1       4.8689   2.2497   5.8478   C.3       1 RES1   0.0000
     9 H1       5.1258   1.2942   5.8855   H         1 RES1   0.0000
    10 H2       5.6913   2.7986   5.9016   H         1 RES1   0.0000
    11 C2       3.9522   2.5836   6.9812   C.2       1 RES1   0.0000
    12 H3       4.1051   2.2236   7.8479   H         1 RES1   0.0000
    13 C3       2.0542   3.7666   7.8490   C.3       1 RES1   0.0000
    14 H4       2.5013   3.6764   8.7279   H         1 RES1   0.0000
    15 H5       1.2431   3.1992   7.8495   H         1 RES1   0.0000
    16 C4       1.6823   5.2163   7.5946   C.3       1 RES1   0.0000
    17 H6       0.8893   5.4673   8.1321   H         1 RES1   0.0000
    18 H7       2.4329   5.8126   7.8415   H         1 RES1   0.0000
    19 C5       0.3920   5.9948   5.7183   C.2       1 RES1   0.0000
    20 H8      -0.1641   6.4821   6.3159   H         1 RES1   0.0000
    21 C6       0.1103   5.9916   4.2588   C.3       1 RES1   0.0000
    22 H9      -0.1692   6.8943   3.9633   H         1 RES1   0.0000
    23 H10     -0.6188   5.3551   4.0532   H         1 RES1   0.0000
    24 C7       4.7943   6.1327   5.7143   C.1       1 RES1   0.0000
    25 C8       5.7862   7.1311   6.0832   C.3       1 RES1   0.0000
    26 H11      6.1652   7.5300   5.2721   H         1 RES1   0.0000
    27 H12      6.4997   6.7054   6.6033   H         1 RES1   0.0000
    28 H13      5.3606   7.8306   6.6226   H         1 RES1   0.0000
    29 C9       0.0273   2.4213   4.9445   C.1       1 RES1   0.0000
    30 C10     -1.1864   1.6056   4.9881   C.3       1 RES1   0.0000
    31 H14     -1.4797   1.4083   4.0741   H         1 RES1   0.0000
    32 H15     -1.8918   2.0943   5.4600   H         1 RES1   0.0000
    33 H16     -0.9979   0.7671   5.4583   H         1 RES1   0.0000
    34 C11      5.2860   2.8567   3.0131   C.3       1 RES1   0.0000
    35 H17      5.7811   1.9909   2.9516   H         1 RES1   0.0000
    36 C12      4.6829   3.1063   1.6219   C.3       1 RES1   0.0000
    37 H18      4.0444   2.3806   1.4083   H         1 RES1   0.0000
    38 H19      4.1824   3.9599   1.6316   H         1 RES1   0.0000
    39 C13      5.7658   3.1649   0.5370   C.3       1 RES1   0.0000
    40 H20      6.1914   2.2751   0.4464   H         1 RES1   0.0000
    41 H21      5.3516   3.3987  -0.3308   H         1 RES1   0.0000
    42 C14      6.8083   4.1873   0.8864   C.3       1 RES1   0.0000
    43 H22      6.3987   5.0881   0.8800   H         1 RES1   0.0000
    44 H23      7.5226   4.1730   0.2007   H         1 RES1   0.0000
    45 C15      7.4216   3.9213   2.2619   C.3       1 RES1   0.0000
    46 H24      8.0816   4.6288   2.4762   H         1 RES1   0.0000
    47 H25      7.8941   3.0508   2.2546   H         1 RES1   0.0000
    48 C16      6.3093   3.9016   3.3381   C.3       1 RES1   0.0000
    49 H26      6.7086   3.7113   4.2234   H         1 RES1   0.0000
    50 H27      5.8748   4.7891   3.3820   H         1 RES1   0.0000
    51 C17      3.1981   0.9678   3.8176   C.3       1 RES1   0.0000
    52 H28      2.4187   1.1747   3.2262   H         1 RES1   0.0000
    53 C18      4.0719  -0.0333   3.0475   C.3       1 RES1   0.0000
    54 H29      4.8205  -0.3327   3.6212   H         1 RES1   0.0000
    55 H30      4.4540   0.4060   2.2466   H         1 RES1   0.0000
    56 C19      3.2323  -1.2473   2.6197   C.3       1 RES1   0.0000
    57 H31      2.5436  -0.9538   1.9720   H         1 RES1   0.0000
    58 H32      3.8183  -1.9014   2.1631   H         1 RES1   0.0000
    59 C20      2.5502  -1.9251   3.7982   C.3       1 RES1   0.0000
    60 H33      1.9446  -2.6331   3.4639   H         1 RES1   0.0000
    61 H34      3.2343  -2.3534   4.3728   H         1 RES1   0.0000
    62 C21      1.7528  -0.9267   4.6220   C.3       1 RES1   0.0000
    63 H35      1.3900  -1.3778   5.4246   H         1 RES1   0.0000
    64 H36      0.9893  -0.5949   4.0869   H         1 RES1   0.0000
    65 C22      2.6242   0.2562   5.0538   C.3       1 RES1   0.0000
    66 H37      3.3639  -0.0672   5.6254   H         1 RES1   0.0000
    67 H38      2.0808   0.8939   5.5820   H         1 RES1   0.0000
    68 C23      2.3979   7.1236   2.9309   C.3       1 RES1   0.0000
    69 H39      1.8022   7.4991   2.2209   H         1 RES1   0.0000
    70 C24      2.4455   8.1904   4.0399   C.3       1 RES1   0.0000
    71 H40      1.5423   8.3048   4.4306   H         1 RES1   0.0000
    72 H41      3.0575   7.8945   4.7598   H         1 RES1   0.0000
    73 C25      2.9326   9.5317   3.4655   C.3       1 RES1   0.0000
    74 H42      2.2491   9.8861   2.8424   H         1 RES1   0.0000
    75 H43      3.0356  10.1824   4.2042   H         1 RES1   0.0000
    76 C26      4.2611   9.4009   2.7269   C.3       1 RES1   0.0000
    77 H44      4.9762   9.1915   3.3787   H         1 RES1   0.0000
    78 H45      4.4819  10.2664   2.2980   H         1 RES1   0.0000
    79 C27      4.2169   8.3083   1.6601   C.3       1 RES1   0.0000
    80 H46      5.1144   8.2034   1.2542   H         1 RES1   0.0000
    81 H47      3.5838   8.5675   0.9443   H         1 RES1   0.0000
    82 C28      3.7768   6.9808   2.2816   C.3       1 RES1   0.0000
    83 H48      4.4361   6.6991   2.9644   H         1 RES1   0.0000
    84 H49      3.7426   6.2826   1.5802   H         1 RES1   0.0000
    85 C29      1.1022   4.8799   1.7249   C.3       1 RES1   0.0000
    86 H50      1.8876   4.9782   1.1129   H         1 RES1   0.0000
    87 C30     -0.0433   5.6930   1.0897   C.3       1 RES1   0.0000
    88 H51     -0.8645   5.5902   1.6332   H         1 RES1   0.0000
    89 H52      0.1994   6.6536   1.0775   H         1 RES1   0.0000
    90 C31     -0.3109   5.2138  -0.3419   C.3       1 RES1   0.0000
    91 H53     -1.0804   5.7124  -0.7146   H         1 RES1   0.0000
    92 H54      0.4794   5.4082  -0.9041   H         1 RES1   0.0000
    93 C32     -0.6074   3.7276  -0.3981   C.3       1 RES1   0.0000
    94 H55     -0.6897   3.4461  -1.3441   H         1 RES1   0.0000
    95 H56     -1.4718   3.5493   0.0498   H         1 RES1   0.0000
    96 C33      0.4929   2.9129   0.2802   C.3       1 RES1   0.0000
    97 H57      1.3310   2.9945  -0.2409   H         1 RES1   0.0000
    98 H58      0.2333   1.9574   0.2955   H         1 RES1   0.0000
    99 C34      0.7346   3.3965   1.7119   C.3       1 RES1   0.0000
   100 H59     -0.0830   3.2542   2.2514   H         1 RES1   0.0000
   101 H60      1.4670   2.8707   2.1197   H         1 RES1   0.0000
   102 F1      -1.5374   4.5479   7.6102   F         2 RES2   0.0000
   103 F2      -3.2110   3.3361   6.8238   F         2 RES2   0.0000
   104 F3      -2.7015   5.3846   5.9526   F         2 RES2   0.0000
   105 F4      -3.6220   5.1942   7.9797   F         2 RES2   0.0000
   106 B1      -2.7988   4.6084   7.0530   B         2 RES2  -1.0000
   107 C35      9.5440  11.8034   5.4298   C.ar      3 RES3   0.0000
   108 C36     10.7128  11.0553   5.2345   C.ar      3 RES3   0.0000
   109 H61     10.7836  10.5224   4.4515   H         3 RES3   0.0000
   110 C37     11.7759  11.0565   6.1362   C.ar      3 RES3   0.0000
   111 H62     12.5404  10.5175   5.9690   H         3 RES3   0.0000
   112 C38     11.7216  11.8421   7.2770   C.ar      3 RES3   0.0000
   113 H63     12.4423  11.8479   7.8961   H         3 RES3   0.0000
   114 C39     10.5999  12.6164   7.4984   C.ar      3 RES3   0.0000
   115 H64     10.5527  13.1692   8.2686   H         3 RES3   0.0000
   116 C40      9.5381  12.5898   6.5969   C.ar      3 RES3   0.0000
   117 H65      8.7758  13.1270   6.7784   H         3 RES3   0.0000
   118 C41      8.4406  13.0356   3.2964   C.ar      3 RES3   0.0000
   119 C42      7.3467  13.5525   2.5801   C.ar      3 RES3   0.0000
   120 H66      6.4821  13.1950   2.7412   H         3 RES3   0.0000
   121 C43      7.4915  14.5753   1.6394   C.ar      3 RES3   0.0000
   122 H67      6.7278  14.8966   1.1739   H         3 RES3   0.0000
   123 C44      8.7232  15.1204   1.3809   C.ar      3 RES3   0.0000
   124 H68      8.8151  15.8198   0.7451   H         3 RES3   0.0000
   125 C45      9.8260  14.6381   2.0574   C.ar      3 RES3   0.0000
   126 H69     10.6861  15.0045   1.8885   H         3 RES3   0.0000
   127 C46      9.6734  13.6074   2.9938   C.ar      3 RES3   0.0000
   128 H70     10.4461  13.2831   3.4430   H         3 RES3   0.0000
   129 C47      8.2351  10.3611   3.5294   C.ar      3 RES3   0.0000
   130 C48      7.9401  10.2848   2.1657   C.ar      3 RES3   0.0000
   131 H71      7.8114  11.0927   1.6829   H         3 RES3   0.0000
   132 C49      7.8269   9.0833   1.4843   C.ar      3 RES3   0.0000
   133 H72      7.6224   9.0860   0.5572   H         3 RES3   0.0000
   134 C50      8.0093   7.8793   2.1429   C.ar      3 RES3   0.0000
   135 H73      7.9246   7.0551   1.6765   H         3 RES3   0.0000
   136 C51      8.3171   7.8967   3.4865   C.ar      3 RES3   0.0000
   137 H74      8.4469   7.0814   3.9569   H         3 RES3   0.0000
   138 C52      8.4358   9.1187   4.1518   C.ar      3 RES3   0.0000
   139 H75      8.6640   9.1087   5.0745   H         3 RES3   0.0000
   140 C53      6.8734  11.9578   5.2144   C.ar      3 RES3   0.0000
   141 C54      6.4602  13.2067   5.7116   C.ar      3 RES3   0.0000
   142 H76      6.9613  13.9788   5.4744   H         3 RES3   0.0000
   143 C55      5.3497  13.3592   6.5360   C.ar      3 RES3   0.0000
   144 H77      5.1183  14.2225   6.8587   H         3 RES3   0.0000
   145 C56      4.5780  12.2688   6.8898   C.ar      3 RES3   0.0000
   146 H78      3.8297  12.3713   7.4657   H         3 RES3   0.0000
   147 C57      4.9170  11.0204   6.3878   C.ar      3 RES3   0.0000
   148 H79      4.3844  10.2614   6.5937   H         3 RES3   0.0000
   149 C58      6.0465  10.8858   5.5764   C.ar      3 RES3   0.0000
   150 H80      6.2666  10.0203   5.2528   H         3 RES3   0.0000
   151 B2       8.2767  11.7860   4.3627   B         3 RES3  -1.0000
@<TRIPOS>BOND
     1     1     2    1
     2     2     8    1
     3     3     1    1
     4     4     1    1
     5     5     1    1
     6     6     1    1
     7     7     1    1
     8     8     9    1
     9    10     8    1
    10    11     4    2
    11    12    11    1
    12    13     4    1
    13    14    13    1
    14    15    13    1
    15    16     5    1
    16    17    16    1
    17    18    16    1
    18    19     5    2
    19    20    19    1
    20    21     3    1
    21    22    21    1
    22    23    21    1
    23    24     6    3
    24    25    24    1
    25    26    25    1
    26    27    25    1
    27    28    25    1
    28    29     7    3
    29    30    29    1
    30    31    30    1
    31    32    30    1
    32    33    30    1
    33    34     2    1
    34    35    34    1
    35    36    34    1
    36    37    36    1
    37    38    36    1
    38    39    36    1
    39    40    39    1
    40    41    39    1
    41    42    39    1
    42    43    42    1
    43    44    42    1
    44    45    42    1
    45    46    45    1
    46    47    45    1
    47    48    34    1
    48    49    48    1
    49    50    48    1
    50    51     2    1
    51    52    51    1
    52    53    51    1
    53    54    53    1
    54    55    53    1
    55    56    53    1
    56    57    56    1
    57    58    56    1
    58    59    56    1
    59    60    59    1
    60    61    59    1
    61    62    59    1
    62    63    62    1
    63    64    62    1
    64    65    51    1
    65    66    65    1
    66    67    65    1
    67    68     3    1
    68    69    68    1
    69    70    68    1
    70    71    70    1
    71    72    70    1
    72    73    70    1
    73    74    73    1
    74    75    73    1
    75    76    73    1
    76    77    76    1
    77    78    76    1
    78    79    76    1
    79    80    79    1
    80    81    79    1
    81    82    68    1
    82    83    82    1
    83    84    82    1
    84    85     3    1
    85    86    85    1
    86    87    85    1
    87    88    87    1
    88    89    87    1
    89    90    87    1
    90    91    90    1
    91    92    90    1
    92    93    90    1
    93    94    93    1
    94    95    93    1
    95    96    93    1
    96    97    96    1
    97    98    96    1
    98    99    85    1
    99   100    99    1
   100   101    99    1
   101     8    11    1
   102    13    16    1
   103    19    21    1
   104    45    48    1
   105    62    65    1
   106    79    82    1
   107    96    99    1
   108   102   106    1
   109   103   106    1
   110   104   106    1
   111   105   106    1
   112   107   108   ar
   113   108   109    1
   114   110   108   ar
   115   111   110    1
   116   112   110   ar
   117   113   112    1
   118   114   112   ar
   119   115   114    1
   120   116   107   ar
   121   117   116    1
   122   118   119   ar
   123   119   120    1
   124   121   119   ar
   125   122   121    1
   126   123   121   ar
   127   124   123    1
   128   125   123   ar
   129   126   125    1
   130   127   118   ar
   131   128   127    1
   132   129   130   ar
   133   130   131    1
   134   132   130   ar
   135   133   132    1
   136   134   132   ar
   137   135   134    1
   138   136   134   ar
   139   137   136    1
   140   138   129   ar
   141   139   138    1
   142   140   141   ar
   143   141   142    1
   144   143   141   ar
   145   144   143    1
   146   145   143   ar
   147   146   145    1
   148   147   145   ar
   149   148   147    1
   150   149   140   ar
   151   150   149    1
   152   151   107    1
   153   114   116   ar
   154   118   151    1
   155   125   127   ar
   156   129   151    1
   157   136   138   ar
   158   140   151    1
   159   147   149   ar
@<TRIPOS>SUBSTRUCTURE
     1 RES1        1 GROUP             0 ****  ****    0  
     2 RES2      102 GROUP             0 ****  ****    0  
     3 RES3      107 GROUP             0 ****  ****    0  
@<TRIPOS>CRYSIN
   11.2526   15.1535   16.1628   96.5050   90.1180   90.3600     2     1
