@<TRIPOS>MOLECULE
LADHEG
    94   101     1     0     0
SMALL
NO_CHARGES
****
Generated from the CSD

@<TRIPOS>ATOM
     1 Fe1     -0.9813   3.7261   3.2437   Fe        1 RES1   0.0000
     2 O1      -2.4636   4.8553   3.6332   O.3       1 RES1   0.0000
     3 C1      -2.8490   6.1229   3.4733   C.ar      1 RES1   0.0000
     4 C2      -4.2074   6.4928   3.6817   C.ar      1 RES1   0.0000
     5 C3      -4.5666   7.8203   3.4310   C.ar      1 RES1   0.0000
     6 H1      -5.4551   8.0721   3.5393   H         1 RES1   0.0000
     7 C4      -3.6497   8.7691   3.0288   C.ar      1 RES1   0.0000
     8 C5      -2.3219   8.4185   2.8796   C.ar      1 RES1   0.0000
     9 H2      -1.6988   9.0572   2.6192   H         1 RES1   0.0000
    10 C6      -1.9185   7.1066   3.1188   C.ar      1 RES1   0.0000
    11 C7      -0.4391   6.8233   3.1128   C.3       1 RES1   0.0000
    12 H3       0.0131   7.5947   2.7374   H         1 RES1   0.0000
    13 H4      -0.1454   6.7360   4.0326   H         1 RES1   0.0000
    14 N1       0.0105   5.6157   2.3679   N.3       1 RES1   0.0000
    15 C8      -0.3962   5.6984   0.9502   C.3       1 RES1   0.0000
    16 H5       0.2111   6.2816   0.4687   H         1 RES1   0.0000
    17 H6      -1.2883   6.0737   0.8870   H         1 RES1   0.0000
    18 C9      -0.3769   4.3185   0.3281   C.3       1 RES1   0.0000
    19 H7      -0.6572   4.3725  -0.5985   H         1 RES1   0.0000
    20 H8       0.5238   3.9591   0.3534   H         1 RES1   0.0000
    21 N2      -1.2964   3.4237   1.0788   N.3       1 RES1   0.0000
    22 C10     -0.9412   2.0249   0.7354   C.3       1 RES1   0.0000
    23 H9      -0.0224   1.8649   1.0009   H         1 RES1   0.0000
    24 H10     -0.9908   1.9210  -0.2279   H         1 RES1   0.0000
    25 C11     -1.8186   0.9774   1.3788   C.ar      1 RES1   0.0000
    26 C12     -2.2113  -0.1014   0.5931   C.ar      1 RES1   0.0000
    27 H11     -2.0352  -0.0995  -0.3202   H         1 RES1   0.0000
    28 C13     -2.8587  -1.1679   1.1617   C.ar      1 RES1   0.0000
    29 C14     -3.1176  -1.1630   2.5179   C.ar      1 RES1   0.0000
    30 H12     -3.5100  -1.9147   2.8990   H         1 RES1   0.0000
    31 C15     -2.8187  -0.0897   3.3302   C.ar      1 RES1   0.0000
    32 C16     -2.1718   1.0293   2.7442   C.ar      1 RES1   0.0000
    33 O2      -1.8938   2.1020   3.4786   O.3       1 RES1   0.0000
    34 C17     -5.2414   5.4907   4.2041   C.3       1 RES1   0.0000
    35 C18     -5.4079   4.3234   3.2249   C.3       1 RES1   0.0000
    36 H13     -4.5651   3.8780   3.1124   H         1 RES1   0.0000
    37 H14     -5.7084   4.6575   2.3769   H         1 RES1   0.0000
    38 H15     -6.0534   3.7047   3.5725   H         1 RES1   0.0000
    39 C19     -4.7867   4.9447   5.5669   C.3       1 RES1   0.0000
    40 H16     -4.7171   5.6682   6.1945   H         1 RES1   0.0000
    41 H17     -3.9302   4.5211   5.4720   H         1 RES1   0.0000
    42 H18     -5.4266   4.3047   5.8859   H         1 RES1   0.0000
    43 C20     -6.6123   6.1246   4.4177   C.3       1 RES1   0.0000
    44 H19     -7.1852   5.5015   4.8720   H         1 RES1   0.0000
    45 H20     -6.9952   6.3521   3.5682   H         1 RES1   0.0000
    46 H21     -6.5187   6.9177   4.9499   H         1 RES1   0.0000
    47 O3      -3.9631  10.0828   2.7549   O.3       1 RES1   0.0000
    48 C21     -5.2751  10.5120   3.0648   C.3       1 RES1   0.0000
    49 H22     -5.8934  10.1261   2.4403   H         1 RES1   0.0000
    50 H23     -5.3196  11.4704   3.0086   H         1 RES1   0.0000
    51 H24     -5.5012  10.2336   3.9547   H         1 RES1   0.0000
    52 C22      1.4868   5.5976   2.4648   C.3       1 RES1   0.0000
    53 H25      1.8254   4.7989   2.0523   H         1 RES1   0.0000
    54 H26      1.7475   5.6164   3.3893   H         1 RES1   0.0000
    55 H27      1.8466   6.3669   2.0163   H         1 RES1   0.0000
    56 C23     -2.6915   3.6883   0.6929   C.3       1 RES1   0.0000
    57 H28     -3.2564   2.9942   1.0399   H         1 RES1   0.0000
    58 H29     -2.7603   3.7074  -0.2639   H         1 RES1   0.0000
    59 H30     -2.9673   4.5346   1.0514   H         1 RES1   0.0000
    60 O4      -3.2573  -2.2962   0.4653   O.3       1 RES1   0.0000
    61 C24     -3.5351  -2.1556  -0.8553   C.3       1 RES1   0.0000
    62 H31     -4.3549  -1.6664  -0.9606   H         1 RES1   0.0000
    63 H32     -3.6263  -3.0225  -1.2577   H         1 RES1   0.0000
    64 H33     -2.8214  -1.6789  -1.2836   H         1 RES1   0.0000
    65 C25     -3.1621  -0.1134   4.8218   C.3       1 RES1   0.0000
    66 C26     -1.9025   0.0525   5.6570   C.3       1 RES1   0.0000
    67 H34     -1.3560   0.7434   5.2773   H         1 RES1   0.0000
    68 H35     -1.4140  -0.7740   5.6667   H         1 RES1   0.0000
    69 H36     -2.1435   0.2930   6.5551   H         1 RES1   0.0000
    70 C27     -4.1392   1.0114   5.1215   C.3       1 RES1   0.0000
    71 H37     -4.9064   0.9293   4.5518   H         1 RES1   0.0000
    72 H38     -3.7138   1.8566   4.9643   H         1 RES1   0.0000
    73 H39     -4.4166   0.9583   6.0402   H         1 RES1   0.0000
    74 C28     -3.8004  -1.4378   5.2455   C.3       1 RES1   0.0000
    75 H40     -4.2038  -1.3367   6.1109   H         1 RES1   0.0000
    76 H41     -3.1268  -2.1199   5.2830   H         1 RES1   0.0000
    77 H42     -4.4736  -1.6865   4.6066   H         1 RES1   0.0000
    78 N3      -0.2274   4.0837   5.2415   N.ar      1 RES1   0.0000
    79 C29     -0.7844   4.7508   6.2439   C.ar      1 RES1   0.0000
    80 H43     -1.6021   5.1737   6.1066   H         1 RES1   0.0000
    81 C30     -0.1806   4.8353   7.4983   C.ar      1 RES1   0.0000
    82 H44     -0.5866   5.3186   8.1820   H         1 RES1   0.0000
    83 C31      1.0011   4.2087   7.7176   C.ar      1 RES1   0.0000
    84 H45      1.4018   4.2620   8.5555   H         1 RES1   0.0000
    85 C32      1.6301   3.4764   6.6884   C.ar      1 RES1   0.0000
    86 C33      2.8211   2.7681   6.8089   C.ar      1 RES1   0.0000
    87 H46      3.2713   2.7506   7.6209   H         1 RES1   0.0000
    88 C34      3.3245   2.0995   5.7359   C.ar      1 RES1   0.0000
    89 H47      4.1235   1.6331   5.8311   H         1 RES1   0.0000
    90 C35      2.6785   2.0934   4.4927   C.ar      1 RES1   0.0000
    91 H48      3.0517   1.6244   3.7816   H         1 RES1   0.0000
    92 C36      1.4918   2.7765   4.3134   C.ar      1 RES1   0.0000
    93 C37      0.9586   3.4592   5.4451   C.ar      1 RES1   0.0000
    94 O5       0.8242   2.8504   3.1779   O.3       1 RES1   0.0000
@<TRIPOS>BOND
     1     1     2    1
     2     2     3    1
     3     3     4   ar
     4     4     5   ar
     5     5     6    1
     6     7     5   ar
     7     8     7   ar
     8     9     8    1
     9    10     3   ar
    10    11    10    1
    11    12    11    1
    12    13    11    1
    13    14     1    1
    14    15    14    1
    15    16    15    1
    16    17    15    1
    17    18    15    1
    18    19    18    1
    19    20    18    1
    20    21     1    1
    21    22    21    1
    22    23    22    1
    23    24    22    1
    24    25    22    1
    25    26    25   ar
    26    27    26    1
    27    28    26   ar
    28    29    28   ar
    29    30    29    1
    30    31    29   ar
    31    32    25   ar
    32    33     1    1
    33    34     4    1
    34    35    34    1
    35    36    35    1
    36    37    35    1
    37    38    35    1
    38    39    34    1
    39    40    39    1
    40    41    39    1
    41    42    39    1
    42    43    34    1
    43    44    43    1
    44    45    43    1
    45    46    43    1
    46    47     7    1
    47    48    47    1
    48    49    48    1
    49    50    48    1
    50    51    48    1
    51    52    14    1
    52    53    52    1
    53    54    52    1
    54    55    52    1
    55    56    21    1
    56    57    56    1
    57    58    56    1
    58    59    56    1
    59    60    28    1
    60    61    60    1
    61    62    61    1
    62    63    61    1
    63    64    61    1
    64    65    31    1
    65    66    65    1
    66    67    66    1
    67    68    66    1
    68    69    66    1
    69    70    65    1
    70    71    70    1
    71    72    70    1
    72    73    70    1
    73    74    65    1
    74    75    74    1
    75    76    74    1
    76    77    74    1
    77    78     1    1
    78    79    78   ar
    79    80    79    1
    80    81    79   ar
    81    82    81    1
    82    83    81   ar
    83    84    83    1
    84    85    83   ar
    85    86    85   ar
    86    87    86    1
    87    88    86   ar
    88    89    88    1
    89    90    88   ar
    90    91    90    1
    91    92    90   ar
    92    93    78   ar
    93    94     1    1
    94     8    10   ar
    95    11    14    1
    96    18    21    1
    97    31    32   ar
    98    32    33    1
    99    85    93   ar
   100    92    93   ar
   101    92    94    1
@<TRIPOS>SUBSTRUCTURE
     1 RES1        1 GROUP             0 ****  ****    0  
@<TRIPOS>CRYSIN
   11.2421   12.2205   15.1712   75.2120   74.4900   65.1010     2     1
