@<TRIPOS>MOLECULE
LADTET02
    77    82     1     0     0
SMALL
USER_CHARGES
****
Generated from the CSD

@<TRIPOS>ATOM
     1 Fe1      0.0000   0.0000   0.0000   Fe        1 RES1   2.0000
     2 S1      -0.5434   4.6766  -1.4107   S.3       1 RES1   0.0000
     3 N1      -0.6713  -1.3122  -1.3596   N.pl3     1 RES1   0.0000
     4 H1      -0.0761  -1.3741  -2.0453   H         1 RES1   0.0000
     5 H2      -0.7514  -2.1344  -0.9783   H         1 RES1   0.0000
     6 N2      -1.8334   0.7906  -0.1905   N.ar      1 RES1   0.0000
     7 N3       0.9249   4.8855  -6.3828   N.1       1 RES1   0.0000
     8 N4      -0.4647   7.7880  -3.5754   N.1       1 RES1   0.0000
     9 N5       0.5524   1.2371  -1.3846   N.1       1 RES1   0.0000
    10 N6       2.8960   2.6681  -4.6512   N.1       1 RES1   0.0000
    11 C1      -1.9645  -0.8816  -1.8713   C.ar      1 RES1   0.0000
    12 C2      -2.6036  -1.4824  -2.9031   C.ar      1 RES1   0.0000
    13 H3      -2.1981  -2.2183  -3.3462   H         1 RES1   0.0000
    14 C3      -3.8603  -1.0230  -3.3191   C.ar      1 RES1   0.0000
    15 H4      -4.2968  -1.4384  -4.0538   H         1 RES1   0.0000
    16 C4      -4.4613   0.0215  -2.6718   C.ar      1 RES1   0.0000
    17 H5      -5.3238   0.3100  -2.9462   H         1 RES1   0.0000
    18 C5      -3.8230   0.6673  -1.6142   C.ar      1 RES1   0.0000
    19 C6      -4.3683   1.7503  -0.8687   C.ar      1 RES1   0.0000
    20 H6      -5.2326   2.0851  -1.0782   H         1 RES1   0.0000
    21 C7      -3.6553   2.3012   0.1365   C.ar      1 RES1   0.0000
    22 H7      -4.0158   3.0223   0.6395   H         1 RES1   0.0000
    23 C8      -2.3825   1.8031   0.4327   C.ar      1 RES1   0.0000
    24 H8      -1.8882   2.2236   1.1262   H         1 RES1   0.0000
    25 C9      -2.5521   0.2201  -1.2165   C.ar      1 RES1   0.0000
    26 C10      0.6727   5.0849  -5.2836   C.1       1 RES1   0.0000
    27 C11     -0.1273   6.7043  -3.7010   C.1       1 RES1   0.0000
    28 C12      0.7471   2.1303  -2.0877   C.1       1 RES1   0.0000
    29 C13      2.0401   2.9368  -3.9340   C.1       1 RES1   0.0000
    30 C14      0.3076   4.4194  -2.9289   C.2       1 RES1   0.0000
    31 C15      0.2933   5.3659  -3.9340   C.2       1 RES1   0.0000
    32 C16      1.0221   3.1961  -2.9904   C.2       1 RES1  -1.0000
    33 C17     -2.2053   5.2305  -1.9071   C.3       1 RES1   0.0000
    34 H9      -2.7842   5.2667  -1.1052   H         1 RES1   0.0000
    35 H10     -2.1410   6.1476  -2.2748   H         1 RES1   0.0000
    36 C18     -2.8480   4.3361  -2.9347   C.3       1 RES1   0.0000
    37 H11     -3.7360   4.6842  -3.1607   H         1 RES1   0.0000
    38 H12     -2.2918   4.3119  -3.7410   H         1 RES1   0.0000
    39 H13     -2.9354   3.4304  -2.5706   H         1 RES1   0.0000
    40 S1B      0.5434  -4.6766   1.4107   S.3       1 RES1   0.0000
    41 N1B      0.6713   1.3122   1.3596   N.pl3     1 RES1   0.0000
    42 H1B      0.0761   1.3741   2.0453   H         1 RES1   0.0000
    43 H2B      0.7514   2.1344   0.9783   H         1 RES1   0.0000
    44 N2B      1.8334  -0.7906   0.1905   N.ar      1 RES1   0.0000
    45 N3B     -0.9249  -4.8855   6.3828   N.1       1 RES1   0.0000
    46 N4B      0.4647  -7.7880   3.5754   N.1       1 RES1   0.0000
    47 N5B     -0.5524  -1.2371   1.3846   N.1       1 RES1   0.0000
    48 N6B     -2.8960  -2.6681   4.6512   N.1       1 RES1   0.0000
    49 C1B      1.9645   0.8816   1.8713   C.ar      1 RES1   0.0000
    50 C2B      2.6036   1.4824   2.9031   C.ar      1 RES1   0.0000
    51 H3B      2.1981   2.2183   3.3462   H         1 RES1   0.0000
    52 C3B      3.8603   1.0230   3.3191   C.ar      1 RES1   0.0000
    53 H4B      4.2968   1.4384   4.0538   H         1 RES1   0.0000
    54 C4B      4.4613  -0.0215   2.6718   C.ar      1 RES1   0.0000
    55 H5B      5.3238  -0.3100   2.9462   H         1 RES1   0.0000
    56 C5B      3.8230  -0.6673   1.6142   C.ar      1 RES1   0.0000
    57 C6B      4.3683  -1.7503   0.8687   C.ar      1 RES1   0.0000
    58 H6B      5.2326  -2.0851   1.0782   H         1 RES1   0.0000
    59 C7B      3.6553  -2.3012  -0.1365   C.ar      1 RES1   0.0000
    60 H7B      4.0158  -3.0223  -0.6395   H         1 RES1   0.0000
    61 C8B      2.3825  -1.8031  -0.4327   C.ar      1 RES1   0.0000
    62 H8B      1.8882  -2.2236  -1.1262   H         1 RES1   0.0000
    63 C9B      2.5521  -0.2201   1.2165   C.ar      1 RES1   0.0000
    64 C10B    -0.6727  -5.0849   5.2836   C.1       1 RES1   0.0000
    65 C11B     0.1273  -6.7043   3.7010   C.1       1 RES1   0.0000
    66 C12B    -0.7471  -2.1303   2.0877   C.1       1 RES1   0.0000
    67 C13B    -2.0401  -2.9368   3.9340   C.1       1 RES1   0.0000
    68 C14B    -0.3076  -4.4194   2.9289   C.2       1 RES1   0.0000
    69 C15B    -0.2933  -5.3659   3.9340   C.2       1 RES1   0.0000
    70 C16B    -1.0221  -3.1961   2.9904   C.2       1 RES1  -1.0000
    71 C17B     2.2053  -5.2305   1.9071   C.3       1 RES1   0.0000
    72 H9B      2.7842  -5.2667   1.1052   H         1 RES1   0.0000
    73 H10B     2.1410  -6.1476   2.2748   H         1 RES1   0.0000
    74 C18B     2.8480  -4.3361   2.9347   C.3       1 RES1   0.0000
    75 H11B     3.7360  -4.6842   3.1607   H         1 RES1   0.0000
    76 H12B     2.2918  -4.3119   3.7410   H         1 RES1   0.0000
    77 H13B     2.9354  -3.4304   2.5706   H         1 RES1   0.0000
@<TRIPOS>BOND
     1     1     3    1
     2     2    30    1
     3     3     4    1
     4     5     3    1
     5     6     1    1
     6     7    26    3
     7     8    27    3
     8     9     1    1
     9    10    29    3
    10    11     3    1
    11    12    11   ar
    12    13    12    1
    13    14    12   ar
    14    15    14    1
    15    16    14   ar
    16    17    16    1
    17    18    16   ar
    18    19    18   ar
    19    20    19    1
    20    21    19   ar
    21    22    21    1
    22    23     6   ar
    23    24    23    1
    24    25     6   ar
    25    26    31    1
    26    27    31    1
    27    28     9    3
    28    29    32    1
    29    30    31    2
    30    32    28    1
    31    33     2    1
    32    34    33    1
    33    35    33    1
    34    36    33    1
    35    37    36    1
    36    38    36    1
    37    39    36    1
    38    40    68    1
    39    41     1    1
    40    42    41    1
    41    43    41    1
    42    44     1    1
    43    45    64    3
    44    46    65    3
    45    47     1    1
    46    48    67    3
    47    49    41    1
    48    50    49   ar
    49    51    50    1
    50    52    50   ar
    51    53    52    1
    52    54    52   ar
    53    55    54    1
    54    56    54   ar
    55    57    56   ar
    56    58    57    1
    57    59    57   ar
    58    60    59    1
    59    61    44   ar
    60    62    61    1
    61    63    44   ar
    62    64    69    1
    63    65    69    1
    64    66    47    3
    65    67    70    1
    66    68    69    2
    67    70    66    1
    68    71    40    1
    69    72    71    1
    70    73    71    1
    71    74    71    1
    72    75    74    1
    73    76    74    1
    74    77    74    1
    75    11    25   ar
    76    18    25   ar
    77    21    23   ar
    78    30    32    1
    79    49    63   ar
    80    56    63   ar
    81    59    61   ar
    82    68    70    1
@<TRIPOS>SUBSTRUCTURE
     1 RES1        1 GROUP             0 ****  ****    0  
@<TRIPOS>CRYSIN
    8.7557   23.3411    9.0950   90.0000  113.8140   90.0000   231     1
