@<TRIPOS>MOLECULE
LADTET
    77    82     1     0     0
SMALL
USER_CHARGES
****
Generated from the CSD

@<TRIPOS>ATOM
     1 C1      -2.1049  -0.9249  -1.8793   C.ar      1 RES1   0.0000
     2 C2      -2.7429  -1.5218  -2.9093   C.ar      1 RES1   0.0000
     3 H1      -2.3573  -2.2569  -3.3285   H         1 RES1   0.0000
     4 C3      -3.9840  -1.0390  -3.3503   C.ar      1 RES1   0.0000
     5 H2      -4.4063  -1.4496  -4.0698   H         1 RES1   0.0000
     6 C4      -4.5747   0.0125  -2.7445   C.ar      1 RES1   0.0000
     7 H3      -5.4046   0.3095  -3.0402   H         1 RES1   0.0000
     8 C5      -3.9437   0.6625  -1.6693   C.ar      1 RES1   0.0000
     9 C6      -4.4868   1.7584  -0.9597   C.ar      1 RES1   0.0000
    10 H4      -5.3298   2.0816  -1.1835   H         1 RES1   0.0000
    11 C7      -3.7977   2.3324   0.0284   C.ar      1 RES1   0.0000
    12 H5      -4.1531   3.0584   0.4887   H         1 RES1   0.0000
    13 C8      -2.5401   1.8330   0.3648   C.ar      1 RES1   0.0000
    14 H6      -2.0687   2.2506   1.0494   H         1 RES1   0.0000
    15 C9      -2.6783   0.2003  -1.2492   C.ar      1 RES1   0.0000
    16 C10      0.7525   2.2467  -2.2742   C.1       1 RES1   0.0000
    17 C11      2.0403   3.0842  -4.0816   C.1       1 RES1   0.0000
    18 C12      0.5871   5.1637  -5.4463   C.1       1 RES1   0.0000
    19 C13     -0.1874   6.7966  -3.8682   C.1       1 RES1   0.0000
    20 C14      0.2786   4.5257  -3.0808   C.2       1 RES1   0.0000
    21 C15      1.0050   3.3139  -3.1545   C.2       1 RES1  -1.0000
    22 C16      0.2412   5.4663  -4.0941   C.2       1 RES1   0.0000
    23 C17     -2.2259   5.3349  -2.0056   C.3       1 RES1   0.0000
    24 H7      -2.7686   5.3851  -1.2038   H         1 RES1   0.0000
    25 H8      -2.1665   6.2280  -2.3796   H         1 RES1   0.0000
    26 C18     -2.9054   4.4343  -2.9997   C.3       1 RES1   0.0000
    27 H9      -3.7787   4.7795  -3.1994   H         1 RES1   0.0000
    28 H10     -2.3846   4.3958  -3.8053   H         1 RES1   0.0000
    29 H11     -2.9870   3.5525  -2.6290   H         1 RES1   0.0000
    30 N1      -0.8315  -1.3926  -1.3681   N.pl3     1 RES1   0.0000
    31 H12     -0.2674  -1.5146  -2.0455   H         1 RES1   0.0000
    32 H13     -0.9460  -2.1753  -0.9604   H         1 RES1   0.0000
    33 N2      -1.9844   0.7996  -0.2368   N.ar      1 RES1   0.0000
    34 N3       0.5816   1.3241  -1.6040   N.1       1 RES1   0.0000
    35 N4       2.8995   2.8332  -4.7911   N.1       1 RES1   0.0000
    36 N5       0.8255   4.9505  -6.5365   N.1       1 RES1   0.0000
    37 N6      -0.5129   7.8773  -3.7444   N.1       1 RES1   0.0000
    38 S1      -0.5537   4.7706  -1.5543   S.3       1 RES1   0.0000
    39 Fe1      0.0000   0.0000   0.0000   Fe        1 RES1   2.0000
    40 C1B      2.1049   0.9249   1.8793   C.ar      1 RES1   0.0000
    41 C2B      2.7429   1.5218   2.9093   C.ar      1 RES1   0.0000
    42 H1B      2.3573   2.2569   3.3285   H         1 RES1   0.0000
    43 C3B      3.9840   1.0390   3.3503   C.ar      1 RES1   0.0000
    44 H2B      4.4063   1.4496   4.0698   H         1 RES1   0.0000
    45 C4B      4.5747  -0.0125   2.7445   C.ar      1 RES1   0.0000
    46 H3B      5.4046  -0.3095   3.0402   H         1 RES1   0.0000
    47 C5B      3.9437  -0.6625   1.6693   C.ar      1 RES1   0.0000
    48 C6B      4.4868  -1.7584   0.9597   C.ar      1 RES1   0.0000
    49 H4B      5.3298  -2.0816   1.1835   H         1 RES1   0.0000
    50 C7B      3.7977  -2.3324  -0.0284   C.ar      1 RES1   0.0000
    51 H5B      4.1531  -3.0584  -0.4887   H         1 RES1   0.0000
    52 C8B      2.5401  -1.8330  -0.3648   C.ar      1 RES1   0.0000
    53 H6B      2.0687  -2.2506  -1.0494   H         1 RES1   0.0000
    54 C9B      2.6783  -0.2003   1.2492   C.ar      1 RES1   0.0000
    55 C10B    -0.7525  -2.2467   2.2742   C.1       1 RES1   0.0000
    56 C11B    -2.0403  -3.0842   4.0816   C.1       1 RES1   0.0000
    57 C12B    -0.5871  -5.1637   5.4463   C.1       1 RES1   0.0000
    58 C13B     0.1874  -6.7966   3.8682   C.1       1 RES1   0.0000
    59 C14B    -0.2786  -4.5257   3.0808   C.2       1 RES1   0.0000
    60 C15B    -1.0050  -3.3139   3.1545   C.2       1 RES1  -1.0000
    61 C16B    -0.2412  -5.4663   4.0941   C.2       1 RES1   0.0000
    62 C17B     2.2259  -5.3349   2.0056   C.3       1 RES1   0.0000
    63 H7B      2.7686  -5.3851   1.2038   H         1 RES1   0.0000
    64 H8B      2.1665  -6.2280   2.3796   H         1 RES1   0.0000
    65 C18B     2.9054  -4.4343   2.9997   C.3       1 RES1   0.0000
    66 H9B      3.7787  -4.7795   3.1994   H         1 RES1   0.0000
    67 H10B     2.3846  -4.3958   3.8053   H         1 RES1   0.0000
    68 H11B     2.9870  -3.5525   2.6290   H         1 RES1   0.0000
    69 N1B      0.8315   1.3926   1.3681   N.pl3     1 RES1   0.0000
    70 H12B     0.2674   1.5146   2.0455   H         1 RES1   0.0000
    71 H13B     0.9460   2.1753   0.9604   H         1 RES1   0.0000
    72 N2B      1.9844  -0.7996   0.2368   N.ar      1 RES1   0.0000
    73 N3B     -0.5816  -1.3241   1.6040   N.1       1 RES1   0.0000
    74 N4B     -2.8995  -2.8332   4.7911   N.1       1 RES1   0.0000
    75 N5B     -0.8255  -4.9505   6.5365   N.1       1 RES1   0.0000
    76 N6B      0.5129  -7.8773   3.7444   N.1       1 RES1   0.0000
    77 S1B      0.5537  -4.7706   1.5543   S.3       1 RES1   0.0000
@<TRIPOS>BOND
     1     1     2   ar
     2     2     3    1
     3     4     2   ar
     4     5     4    1
     5     6     4   ar
     6     7     6    1
     7     8     6   ar
     8     9     8   ar
     9    10     9    1
    10    11     9   ar
    11    12    11    1
    12    13    11   ar
    13    14    13    1
    14    15     1   ar
    15    16    21    1
    16    17    21    1
    17    18    22    1
    18    19    22    1
    19    20    21    1
    20    22    20    2
    21    23    24    1
    22    25    23    1
    23    26    23    1
    24    27    26    1
    25    28    26    1
    26    29    26    1
    27    30     1    1
    28    31    30    1
    29    32    30    1
    30    33    13   ar
    31    34    16    3
    32    35    17    3
    33    36    18    3
    34    37    19    3
    35    38    20    1
    36    39    30    1
    37    40    41   ar
    38    41    42    1
    39    43    41   ar
    40    44    43    1
    41    45    43   ar
    42    46    45    1
    43    47    45   ar
    44    48    47   ar
    45    49    48    1
    46    50    48   ar
    47    51    50    1
    48    52    50   ar
    49    53    52    1
    50    54    40   ar
    51    55    60    1
    52    56    60    1
    53    57    61    1
    54    58    61    1
    55    59    60    1
    56    61    59    2
    57    62    63    1
    58    64    62    1
    59    65    62    1
    60    66    65    1
    61    67    65    1
    62    68    65    1
    63    69    39    1
    64    70    69    1
    65    71    69    1
    66    72    39    1
    67    73    39    1
    68    74    56    3
    69    75    57    3
    70    76    58    3
    71    77    59    1
    72     8    15   ar
    73    15    33   ar
    74    23    38    1
    75    33    39    1
    76    34    39    1
    77    40    69    1
    78    47    54   ar
    79    52    72   ar
    80    54    72   ar
    81    55    73    3
    82    62    77    1
@<TRIPOS>SUBSTRUCTURE
     1 RES1        1 GROUP             0 ****  ****    0  
@<TRIPOS>CRYSIN
    8.9511   23.6789    9.1122   90.0000  113.3280   90.0000   231     1
