@<TRIPOS>MOLECULE
LAFXOJ
    82    87     4     0     0
SMALL
USER_CHARGES
****
Generated from the CSD

@<TRIPOS>ATOM
     1 Fe1      7.2392   9.4920   4.1557   Fe        1 RES1   2.0000
     2 N1       7.8486  10.5683   2.5858   N.ar      1 RES1   0.0000
     3 N2       6.4744   8.1493   2.9574   N.1       1 RES1   0.0000
     4 N3       8.7204   8.2415   4.4723   N.ar      1 RES1   0.0000
     5 N4       6.2252   8.9197   5.6690   N.ar      1 RES1   0.0000
     6 N5       5.6352  10.4138   3.7928   N.ar      1 RES1   0.0000
     7 N6       8.1243  10.6764   5.4420   N.ar      1 RES1   0.0000
     8 C1       6.8591  11.3279   2.0240   C.ar      1 RES1   0.0000
     9 C2       9.3658   7.6488   3.4450   C.ar      1 RES1   0.0000
    10 H1       9.1266   7.8900   2.5579   H         1 RES1   0.0000
    11 C3       5.5399  11.1470   2.6667   C.ar      1 RES1   0.0000
    12 C4       9.0298   7.8768   5.7377   C.ar      1 RES1   0.0000
    13 C5       8.2908  11.9964   5.2167   C.ar      1 RES1   0.0000
    14 H2       7.9810  12.3565   4.3941   H         1 RES1   0.0000
    15 C6       8.5642  10.1536   6.6214   C.ar      1 RES1   0.0000
    16 C7       6.7794   8.4768   6.8052   C.ar      1 RES1   0.0000
    17 C8       4.5267   9.9857   4.4440   C.ar      1 RES1   0.0000
    18 C9       4.8851   9.1572   5.6017   C.ar      1 RES1   0.0000
    19 C10      9.0914  10.6854   2.0823   C.ar      1 RES1   0.0000
    20 H3       9.7909  10.1717   2.4689   H         1 RES1   0.0000
    21 C11      7.0931  12.1885   0.9653   C.ar      1 RES1   0.0000
    22 H4       6.3854  12.7015   0.5931   H         1 RES1   0.0000
    23 C12      9.9878   6.9013   5.9899   C.ar      1 RES1   0.0000
    24 H5      10.1735   6.6303   6.8813   H         1 RES1   0.0000
    25 C13      3.2637  10.3427   3.9974   C.ar      1 RES1   0.0000
    26 H6       2.4848  10.0379   4.4476   H         1 RES1   0.0000
    27 C14      9.1855  10.9623   7.5672   C.ar      1 RES1   0.0000
    28 H7       9.5001  10.5860   8.3808   H         1 RES1   0.0000
    29 C15     10.3579   6.7072   3.6291   C.ar      1 RES1   0.0000
    30 H8      10.8146   6.3294   2.8865   H         1 RES1   0.0000
    31 C16      6.0329   7.3844   2.2278   C.1       1 RES1   0.0000
    32 C17      8.8879  12.8480   6.1204   C.ar      1 RES1   0.0000
    33 H9       8.9840  13.7730   5.9268   H         1 RES1   0.0000
    34 C18      4.0383   8.7447   6.6182   C.ar      1 RES1   0.0000
    35 H10      3.0985   8.8635   6.5460   H         1 RES1   0.0000
    36 C19      9.3901  11.5253   1.0228   C.ar      1 RES1   0.0000
    37 H11     10.2773  11.5781   0.6871   H         1 RES1   0.0000
    38 C20      8.3090   8.6424   6.8645   C.3       1 RES1   0.0000
    39 C21      8.8272   8.2015   8.2393   C.3       1 RES1   0.0000
    40 H12      8.6443   7.2472   8.3667   H         1 RES1   0.0000
    41 H13      8.3750   8.7171   8.9395   H         1 RES1   0.0000
    42 H14      9.7931   8.3587   8.2902   H         1 RES1   0.0000
    43 C22      4.3062  11.5647   2.1933   C.ar      1 RES1   0.0000
    44 H15      4.2429  12.1159   1.4221   H         1 RES1   0.0000
    45 C23      5.9769   8.0668   7.8688   C.ar      1 RES1   0.0000
    46 H16      6.3679   7.7324   8.6673   H         1 RES1   0.0000
    47 C24      3.1634  11.1586   2.8736   C.ar      1 RES1   0.0000
    48 H17      2.3085  11.4398   2.5695   H         1 RES1   0.0000
    49 C25     10.6714   6.3262   4.9245   C.ar      1 RES1   0.0000
    50 H18     11.3475   5.6778   5.0830   H         1 RES1   0.0000
    51 C26      9.3463  12.3213   7.3221   C.ar      1 RES1   0.0000
    52 H19      9.7630  12.8815   7.9663   H         1 RES1   0.0000
    53 C27      8.3815  12.2878   0.4579   C.ar      1 RES1   0.0000
    54 H20      8.5689  12.8716  -0.2678   H         1 RES1   0.0000
    55 C28      4.5933   8.1555   7.7417   C.ar      1 RES1   0.0000
    56 H21      4.0303   7.8119   8.4254   H         1 RES1   0.0000
    57 C29      5.5163   6.3858   1.3045   C.3       1 RES1   0.0000
    58 H22      5.0834   6.8334   0.5479   H         1 RES1   0.0000
    59 H23      4.8631   5.8202   1.7669   H         1 RES1   0.0000
    60 H24      6.2548   5.8310   0.9769   H         1 RES1   0.0000
    61 S1       7.6088   3.5728   5.9207   S.o2      2 RES2   0.0000
    62 F1       5.7068   4.2369   4.2337   F         2 RES2   0.0000
    63 F2       6.2604   5.8155   5.5926   F         2 RES2   0.0000
    64 F3       7.5524   5.3101   3.9466   F         2 RES2   0.0000
    65 O1       6.5167   2.8451   6.5352   O.3       2 RES2  -1.0000
    66 O2       8.3775   4.3883   6.8242   O.2       2 RES2   0.0000
    67 O3       8.3729   2.8143   4.9570   O.2       2 RES2   0.0000
    68 C30      6.7427   4.7940   4.8742   C.3       2 RES2   0.0000
    69 S2       1.9367   4.6249   3.3885   S.o2      3 RES3   0.0000
    70 F4       1.5750   7.0116   4.4412   F         3 RES3   0.0000
    71 F5       3.6240   6.3468   4.4429   F         3 RES3   0.0000
    72 F6       2.7297   7.0316   2.6424   F         3 RES3   0.0000
    73 O4       3.0396   4.0529   2.6705   O.2       3 RES3   0.0000
    74 O5       0.7474   4.8479   2.6139   O.2       3 RES3   0.0000
    75 O6       1.7243   4.1020   4.7110   O.3       3 RES3  -1.0000
    76 C31      2.4892   6.3264   3.7555   C.3       3 RES3   0.0000
    77 N7      10.7563   1.2088   8.2060   N.1       4 RES4   0.0000
    78 C32     11.0057   2.0939   7.5299   C.1       4 RES4   0.0000
    79 C33     11.3140   3.2268   6.6602   C.3       4 RES4   0.0000
    80 H25     10.7177   3.2135   5.8826   H         4 RES4   0.0000
    81 H26     12.2445   3.1641   6.3594   H         4 RES4   0.0000
    82 H27     11.1864   4.0629   7.1554   H         4 RES4   0.0000
@<TRIPOS>BOND
     1     1     2    1
     2     2     8   ar
     3     3     1    1
     4     4     1    1
     5     5     1    1
     6     6     1    1
     7     7     1    1
     8     8    11    1
     9     9     4   ar
    10    10     9    1
    11    11     6   ar
    12    12     4   ar
    13    13     7   ar
    14    14    13    1
    15    15     7   ar
    16    16     5   ar
    17    17     6   ar
    18    18     5   ar
    19    19     2   ar
    20    20    19    1
    21    21     8   ar
    22    22    21    1
    23    23    12   ar
    24    24    23    1
    25    25    17   ar
    26    26    25    1
    27    27    15   ar
    28    28    27    1
    29    29     9   ar
    30    30    29    1
    31    31     3    3
    32    32    13   ar
    33    33    32    1
    34    34    18   ar
    35    35    34    1
    36    36    19   ar
    37    37    36    1
    38    38    12    1
    39    39    38    1
    40    40    39    1
    41    41    39    1
    42    42    39    1
    43    43    11   ar
    44    44    43    1
    45    45    16   ar
    46    46    45    1
    47    47    25   ar
    48    48    47    1
    49    49    23   ar
    50    50    49    1
    51    51    27   ar
    52    52    51    1
    53    53    21   ar
    54    54    53    1
    55    55    34   ar
    56    56    55    1
    57    57    31    1
    58    58    57    1
    59    59    57    1
    60    60    57    1
    61    15    38    1
    62    16    38    1
    63    17    18    1
    64    29    49   ar
    65    32    51   ar
    66    36    53   ar
    67    43    47   ar
    68    45    55   ar
    69    61    65    1
    70    62    68    1
    71    63    68    1
    72    64    68    1
    73    66    61    2
    74    67    61    2
    75    68    61    1
    76    69    73    2
    77    70    76    1
    78    71    76    1
    79    72    76    1
    80    74    69    2
    81    75    69    1
    82    76    69    1
    83    77    78    3
    84    78    79    1
    85    79    80    1
    86    81    79    1
    87    82    79    1
@<TRIPOS>SUBSTRUCTURE
     1 RES1        1 GROUP             0 ****  ****    0  
     2 RES2       61 GROUP             0 ****  ****    0  
     3 RES3       69 GROUP             0 ****  ****    0  
     4 RES4       77 GROUP             0 ****  ****    0  
@<TRIPOS>CRYSIN
   12.2643   22.0109   13.0397   90.0000  104.2080   90.0000    14     1
