@<TRIPOS>MOLECULE
LAJPIV
   125   132     3     0     0
SMALL
USER_CHARGES
****
Generated from the CSD

@<TRIPOS>ATOM
     1 Te1     10.0103   0.9896   3.8624   Te        1 RES1   0.0000
     2 Te2     12.6335  -1.2401   3.2829   Te        1 RES1   0.0000
     3 Te3     13.2280   2.2737   3.5651   Te        1 RES1   0.0000
     4 Fe1     11.7764   0.8405   1.9147   Fe        1 RES1  -1.0000
     5 O2       9.8835  -0.7221   0.3557   O.2       1 RES1   0.0000
     6 O3      11.0205   3.3986   0.7259   O.2       1 RES1   0.0000
     7 O4      14.0069   0.3116   0.1359   O.2       1 RES1   0.0000
     8 C1      10.6257  -0.1200   0.9832   C.1       1 RES1   0.0000
     9 C2      11.3206   2.4049   1.2291   C.1       1 RES1   0.0000
    10 C3      13.1558   0.5174   0.8415   C.1       1 RES1   0.0000
    11 C6       8.7429   2.6813   3.4067   C.ar      1 RES1   0.0000
    12 C7       8.5840   3.6385   4.3523   C.ar      1 RES1   0.0000
    13 C8       7.7703   4.7334   4.1065   C.ar      1 RES1   0.0000
    14 C9       7.1037   4.8240   2.9382   C.ar      1 RES1   0.0000
    15 C10      7.2455   3.8726   1.9665   C.ar      1 RES1   0.0000
    16 C11      8.0919   2.7801   2.2065   C.ar      1 RES1   0.0000
    17 C12     11.6187  -2.9047   2.4610   C.ar      1 RES1   0.0000
    18 C13     10.2620  -3.0917   2.6634   C.ar      1 RES1   0.0000
    19 C14      9.6288  -4.2124   2.1863   C.ar      1 RES1   0.0000
    20 C15     10.3084  -5.1673   1.4951   C.ar      1 RES1   0.0000
    21 C16     11.6264  -4.9886   1.2580   C.ar      1 RES1   0.0000
    22 C17     12.3009  -3.8714   1.7033   C.ar      1 RES1   0.0000
    23 C18     14.9793   2.9094   2.4466   C.ar      1 RES1   0.0000
    24 C19     15.0686   4.2042   2.0822   C.ar      1 RES1   0.0000
    25 C20     16.1934   4.7193   1.4431   C.ar      1 RES1   0.0000
    26 C21     17.1813   3.8114   1.2348   C.ar      1 RES1   0.0000
    27 C22     17.1856   2.5390   1.5558   C.ar      1 RES1   0.0000
    28 C23     16.0137   1.9851   2.2210   C.ar      1 RES1   0.0000
    29 H5       9.0685   3.5562   5.2488   H         1 RES1   0.0000
    30 H6       7.6717   5.4931   4.8006   H         1 RES1   0.0000
    31 H7       6.4848   5.6001   2.7791   H         1 RES1   0.0000
    32 H8       6.7291   3.9643   1.1047   H         1 RES1   0.0000
    33 H9       8.2186   2.0415   1.5211   H         1 RES1   0.0000
    34 H10      9.7427  -2.3708   3.1724   H         1 RES1   0.0000
    35 H11      8.6458  -4.3359   2.4119   H         1 RES1   0.0000
    36 H12      9.8387  -5.9717   1.1336   H         1 RES1   0.0000
    37 H13     12.1329  -5.7012   0.7866   H         1 RES1   0.0000
    38 H14     13.2917  -3.7232   1.4980   H         1 RES1   0.0000
    39 H15     14.2818   4.8322   2.3049   H         1 RES1   0.0000
    40 H16     16.2935   5.6777   1.1394   H         1 RES1   0.0000
    41 H17     17.9950   4.1807   0.7750   H         1 RES1   0.0000
    42 H18     18.0189   2.0380   1.3158   H         1 RES1   0.0000
    43 H19     15.9603   0.9996   2.5044   H         1 RES1   0.0000
    44 P1      20.5269   8.0204   6.5001   P.3       2 RES2   0.0000
    45 P2      19.7257   6.1290   4.3746   P.3       2 RES2   0.0000
    46 N1      20.6557   7.0442   5.2517   N.1       2 RES2   1.0000
    47 C24     19.9832   9.6597   6.0094   C.ar      2 RES2   0.0000
    48 C25     20.0535  10.0325   4.6762   C.ar      2 RES2   0.0000
    49 C26     19.6426  11.3061   4.3032   C.ar      2 RES2   0.0000
    50 C27     19.1698  12.1681   5.2401   C.ar      2 RES2   0.0000
    51 C28     19.1182  11.8153   6.5791   C.ar      2 RES2   0.0000
    52 C29     19.4973  10.5581   6.9493   C.ar      2 RES2   0.0000
    53 C30     22.1649   8.1485   7.2240   C.ar      2 RES2   0.0000
    54 C31     23.1492   7.2865   6.8712   C.ar      2 RES2   0.0000
    55 C32     24.3544   7.3006   7.5305   C.ar      2 RES2   0.0000
    56 C33     24.5940   8.2191   8.5109   C.ar      2 RES2   0.0000
    57 C34     23.6366   9.1093   8.8492   C.ar      2 RES2   0.0000
    58 C35     22.4049   9.0681   8.2362   C.ar      2 RES2   0.0000
    59 C36     19.4107   7.4558   7.8024   C.ar      2 RES2   0.0000
    60 C37     19.8844   6.6797   8.8232   C.ar      2 RES2   0.0000
    61 C38     18.9855   6.0834   9.7110   C.ar      2 RES2   0.0000
    62 C39     17.6581   6.2363   9.5375   C.ar      2 RES2   0.0000
    63 C40     17.1813   7.0266   8.5138   C.ar      2 RES2   0.0000
    64 C41     18.0528   7.6346   7.6462   C.ar      2 RES2   0.0000
    65 C42     18.6117   7.0795   3.3373   C.ar      2 RES2   0.0000
    66 C43     18.9626   7.3782   2.0272   C.ar      2 RES2   0.0000
    67 C44     18.1551   8.2155   1.2638   C.ar      2 RES2   0.0000
    68 C45     16.9924   8.7071   1.7843   C.ar      2 RES2   0.0000
    69 C46     16.6445   8.4025   3.0972   C.ar      2 RES2   0.0000
    70 C47     17.4093   7.5582   3.8347   C.ar      2 RES2   0.0000
    71 C48     18.7383   4.9439   5.3269   C.ar      2 RES2   0.0000
    72 C49     19.3291   4.4394   6.4808   C.ar      2 RES2   0.0000
    73 C50     18.6145   3.5774   7.2789   C.ar      2 RES2   0.0000
    74 C51     17.3431   3.1987   6.9030   C.ar      2 RES2   0.0000
    75 C52     16.7931   3.6468   5.7607   C.ar      2 RES2   0.0000
    76 C53     17.4934   4.5441   4.9423   C.ar      2 RES2   0.0000
    77 C54     20.8020   5.1744   3.2997   C.ar      2 RES2   0.0000
    78 C55     20.3954   3.9478   2.8399   C.ar      2 RES2   0.0000
    79 C56     21.1841   3.1940   2.0012   C.ar      2 RES2   0.0000
    80 C57     22.4046   3.6762   1.6657   C.ar      2 RES2   0.0000
    81 C58     22.8303   4.9074   2.0909   C.ar      2 RES2   0.0000
    82 C59     22.0406   5.6483   2.9411   C.ar      2 RES2   0.0000
    83 H20     20.4169   9.3798   4.0024   H         2 RES2   0.0000
    84 H21     19.6846  11.5895   3.3344   H         2 RES2   0.0000
    85 H22     18.8455  13.0618   4.9423   H         2 RES2   0.0000
    86 H23     18.8210  12.4856   7.2674   H         2 RES2   0.0000
    87 H24     19.4390  10.2865   7.9209   H         2 RES2   0.0000
    88 H25     22.9827   6.6385   6.1222   H         2 RES2   0.0000
    89 H26     25.0725   6.6479   7.2847   H         2 RES2   0.0000
    90 H27     25.4982   8.2308   8.9736   H         2 RES2   0.0000
    91 H28     23.8337   9.7702   9.5780   H         2 RES2   0.0000
    92 H29     21.6628   9.7067   8.4993   H         2 RES2   0.0000
    93 H30     20.8792   6.5150   8.9071   H         2 RES2   0.0000
    94 H31     19.3266   5.5213  10.4832   H         2 RES2   0.0000
    95 H32     17.0366   5.7471  10.1506   H         2 RES2   0.0000
    96 H33     16.1885   7.1854   8.4444   H         2 RES2   0.0000
    97 H34     17.6962   8.1932   6.8683   H         2 RES2   0.0000
    98 H35     19.7956   6.9843   1.6426   H         2 RES2   0.0000
    99 H36     18.4288   8.4601   0.3268   H         2 RES2   0.0000
   100 H37     16.4177   9.2963   1.2262   H         2 RES2   0.0000
   101 H38     15.8091   8.8047   3.4732   H         2 RES2   0.0000
   102 H39     17.1109   7.2771   4.7601   H         2 RES2   0.0000
   103 H40     20.2604   4.7075   6.7034   H         2 RES2   0.0000
   104 H41     19.0193   3.2222   8.1320   H         2 RES2   0.0000
   105 H42     16.8247   2.5660   7.4756   H         2 RES2   0.0000
   106 H43     15.8749   3.3410   5.4975   H         2 RES2   0.0000
   107 H44     17.0913   4.9145   4.0949   H         2 RES2   0.0000
   108 H45     19.4850   3.6162   3.1175   H         2 RES2   0.0000
   109 H46     20.8774   2.2850   1.6484   H         2 RES2   0.0000
   110 H47     23.0031   3.1387   1.0584   H         2 RES2   0.0000
   111 H48     23.7136   5.2708   1.7930   H         2 RES2   0.0000
   112 H49     22.3713   6.5280   3.3141   H         2 RES2   0.0000
   113 O1      31.4909   3.6456   7.2298   O.3       3 RES3   0.0000
   114 C4      31.3842   5.8447   6.4952   C.3       3 RES3   0.0000
   115 C5      31.5661   4.4453   6.1366   C.3       3 RES3   0.0000
   116 H1      32.0230   6.4680   6.0152   H         3 RES3   0.0000
   117 H2      30.4404   6.1493   6.2668   H         3 RES3   0.0000
   118 H3      32.4986   4.3747   5.7144   H         3 RES3   0.0000
   119 H4      30.9104   4.1948   5.4368   H         3 RES3   0.0000
   120 C5B     31.4156   4.4453   8.3229   C.3       3 RES3   0.0000
   121 C4B     31.5976   5.8447   7.9643   C.3       3 RES3   0.0000
   122 H3B     30.4831   4.3747   8.7451   H         3 RES3   0.0000
   123 H4B     32.0713   4.1948   9.0228   H         3 RES3   0.0000
   124 H1B     30.9587   6.4680   8.4444   H         3 RES3   0.0000
   125 H2B     32.5413   6.1493   8.1928   H         3 RES3   0.0000
@<TRIPOS>BOND
     1     1     4    1
     2     2     4    1
     3     3     4    1
     4     4     8    1
     5     5     8    3
     6     6     9    3
     7     7    10    3
     8     9     4    1
     9    10     4    1
    10    11     1    1
    11    12    11   ar
    12    13    12   ar
    13    14    13   ar
    14    15    14   ar
    15    16    11   ar
    16    17     2    1
    17    18    17   ar
    18    19    18   ar
    19    20    19   ar
    20    21    20   ar
    21    22    17   ar
    22    23     3    1
    23    24    23   ar
    24    25    24   ar
    25    26    25   ar
    26    27    26   ar
    27    28    23   ar
    28    29    12    1
    29    30    13    1
    30    31    14    1
    31    32    15    1
    32    33    16    1
    33    34    18    1
    34    35    19    1
    35    36    20    1
    36    37    21    1
    37    38    22    1
    38    39    24    1
    39    40    25    1
    40    41    26    1
    41    42    27    1
    42    43    28    1
    43    15    16   ar
    44    21    22   ar
    45    27    28   ar
    46    44    46    2
    47    45    46    2
    48    47    44    1
    49    48    47   ar
    50    49    48   ar
    51    50    49   ar
    52    51    50   ar
    53    52    47   ar
    54    53    44    1
    55    54    53   ar
    56    55    54   ar
    57    56    55   ar
    58    57    56   ar
    59    58    53   ar
    60    59    44    1
    61    60    59   ar
    62    61    60   ar
    63    62    61   ar
    64    63    62   ar
    65    64    59   ar
    66    65    45    1
    67    66    65   ar
    68    67    66   ar
    69    68    67   ar
    70    69    68   ar
    71    70    65   ar
    72    71    45    1
    73    72    71   ar
    74    73    72   ar
    75    74    73   ar
    76    75    74   ar
    77    76    71   ar
    78    77    45    1
    79    78    77   ar
    80    79    78   ar
    81    80    79   ar
    82    81    80   ar
    83    82    77   ar
    84    83    48    1
    85    84    49    1
    86    85    50    1
    87    86    51    1
    88    87    52    1
    89    88    54    1
    90    89    55    1
    91    90    56    1
    92    91    57    1
    93    92    58    1
    94    93    60    1
    95    94    61    1
    96    95    62    1
    97    96    63    1
    98    97    64    1
    99    98    66    1
   100    99    67    1
   101   100    68    1
   102   101    69    1
   103   102    70    1
   104   103    72    1
   105   104    73    1
   106   105    74    1
   107   106    75    1
   108   107    76    1
   109   108    78    1
   110   109    79    1
   111   110    80    1
   112   111    81    1
   113   112    82    1
   114    51    52   ar
   115    57    58   ar
   116    63    64   ar
   117    69    70   ar
   118    75    76   ar
   119    81    82   ar
   120   113   115    1
   121   114   115    1
   122   115   118    1
   123   116   114    1
   124   117   114    1
   125   119   115    1
   126   120   113    1
   127   121   114    1
   128   122   120    1
   129   123   120    1
   130   124   121    1
   131   125   121    1
   132   120   121    1
@<TRIPOS>SUBSTRUCTURE
     1 RES1        1 GROUP             0 ****  ****    0  
     2 RES2       44 GROUP             0 ****  ****    0  
     3 RES3      113 GROUP             0 ****  ****    0  
@<TRIPOS>CRYSIN
   32.1160   11.7600   29.0270   90.0000   94.9420   90.0000    15     1
