@<TRIPOS>MOLECULE
LALYAC02
   109   113     9     0     0
SMALL
USER_CHARGES
****
Generated from the CSD

@<TRIPOS>ATOM
     1 Fe1      3.2924   8.0495   3.8986   Fe        1 RES1   2.0000
     2 N1       4.5818   8.2691   6.8999   N.pl3     1 RES1   0.0000
     3 H1       5.0764   8.9379   6.6249   H         1 RES1   0.0000
     4 N2       3.7401   7.7577   5.9846   N.2       1 RES1   0.0000
     5 N3       1.9330   6.5735   4.5724   N.ar      1 RES1   0.0000
     6 N4       2.0548   7.5695   2.1719   N.2       1 RES1   0.0000
     7 N5       1.9546   7.9071   0.8717   N.pl3     1 RES1   0.0000
     8 H2       2.5221   8.5071   0.5335   H         1 RES1   0.0000
     9 N6       1.1836  10.2811   5.1622   N.pl3     1 RES1   0.0000
    10 H3       0.6524   9.7070   5.4691   H         1 RES1   0.0000
    11 N7       2.1868   9.8741   4.3571   N.2       1 RES1   0.0000
    12 N8       4.3826   9.5969   2.9754   N.ar      1 RES1   0.0000
    13 N9       5.0308   7.0838   3.0058   N.2       1 RES1   0.0000
    14 N10      5.5827   5.8593   2.9068   N.pl3     1 RES1   0.0000
    15 H4       5.2076   5.2053   3.3401   H         1 RES1   0.0000
    16 C1       4.3935   7.7122   8.1019   C.2       1 RES1   0.0000
    17 H5       4.8617   7.9170   8.8789   H         1 RES1   0.0000
    18 C2       3.3868   6.7847   7.9867   C.2       1 RES1   0.0000
    19 H6       3.0398   6.2355   8.6521   H         1 RES1   0.0000
    20 C3       2.9999   6.8513   6.6415   C.2       1 RES1   0.0000
    21 C4       1.9427   6.1945   5.8620   C.ar      1 RES1   0.0000
    22 C5       0.9963   5.3142   6.3688   C.ar      1 RES1   0.0000
    23 H7       1.0148   5.0546   7.2616   H         1 RES1   0.0000
    24 C6       0.0238   4.8332   5.5076   C.ar      1 RES1   0.0000
    25 H8      -0.6215   4.2418   5.8220   H         1 RES1   0.0000
    26 C7       0.0080   5.2288   4.1813   C.ar      1 RES1   0.0000
    27 H9      -0.6450   4.9122   3.5996   H         1 RES1   0.0000
    28 C8       0.9859   6.1071   3.7369   C.ar      1 RES1   0.0000
    29 C9       1.1032   6.6475   2.3764   C.2       1 RES1   0.0000
    30 C10      0.4004   6.3940   1.1904   C.2       1 RES1   0.0000
    31 H10     -0.3022   5.7981   1.0633   H         1 RES1   0.0000
    32 C11      0.9750   7.2153   0.2632   C.2       1 RES1   0.0000
    33 H11      0.7317   7.2840  -0.6318   H         1 RES1   0.0000
    34 C12      1.1446  11.6172   5.2604   C.2       1 RES1   0.0000
    35 H12      0.5357  12.1113   5.7605   H         1 RES1   0.0000
    36 C13      2.1589  12.1267   4.4947   C.2       1 RES1   0.0000
    37 H13      2.3811  13.0207   4.3669   H         1 RES1   0.0000
    38 C14      2.7845  11.0067   3.9493   C.2       1 RES1   0.0000
    39 C15      3.9378  10.8626   3.0531   C.ar      1 RES1   0.0000
    40 C16      4.5264  11.8869   2.3294   C.ar      1 RES1   0.0000
    41 H14      4.1994  12.7560   2.3788   H         1 RES1   0.0000
    42 C17      5.6174  11.5797   1.5283   C.ar      1 RES1   0.0000
    43 H15      6.0332  12.2490   1.0343   H         1 RES1   0.0000
    44 C18      6.0887  10.2775   1.4631   C.ar      1 RES1   0.0000
    45 H16      6.8244  10.0642   0.9356   H         1 RES1   0.0000
    46 C19      5.4394   9.3008   2.2012   C.ar      1 RES1   0.0000
    47 C20      5.8008   7.8818   2.2468   C.2       1 RES1   0.0000
    48 C21      6.8416   7.1534   1.6625   C.2       1 RES1   0.0000
    49 H17      7.5058   7.4688   1.0930   H         1 RES1   0.0000
    50 C22      6.6657   5.8701   2.1158   C.2       1 RES1   0.0000
    51 H18      7.2019   5.1383   1.9109   H         1 RES1   0.0000
    52 N11      1.0714  13.2447   1.1896   N.ar      2 RES2   1.0000
    53 O1      -1.3349   9.4781   3.2479   O.co2     2 RES2   0.0000
    54 O2      -2.1942  11.2445   4.3367   O.co2     2 RES2  -1.0000
    55 O3       1.9192  14.0189   0.5588   O.3       2 RES2  -1.0000
    56 C23     -1.4829  10.7299   3.4703   C.2       2 RES2   0.0000
    57 C24     -0.6480  11.6098   2.5861   C.ar      2 RES2   0.0000
    58 C25      0.3054  11.0737   1.7316   C.ar      2 RES2   0.0000
    59 H19      0.3659  10.1520   1.6235   H         2 RES2   0.0000
    60 C26     -0.7487  12.9875   2.6741   C.ar      2 RES2   0.0000
    61 H20     -1.4005  13.3704   3.2159   H         2 RES2   0.0000
    62 C27      0.1103  13.7919   1.9650   C.ar      2 RES2   0.0000
    63 H21      0.0297  14.7169   2.0191   H         2 RES2   0.0000
    64 C28      1.1590  11.9014   1.0460   C.ar      2 RES2   0.0000
    65 H22      1.8009  11.5375   0.4798   H         2 RES2   0.0000
    66 N12     -3.3564   4.8621   8.5381   N.ar      3 RES3   1.0000
    67 O4      -0.6485   8.4734   6.3433   O.2       3 RES3   0.0000
    68 O5      -2.2694   7.9551   4.8812   O.3       3 RES3   0.0000
    69 H23     -1.8234   8.7412   4.1655   H         3 RES3   0.0000
    70 O6      -3.8863   3.9614   9.3267   O.3       3 RES3  -1.0000
    71 C29     -1.6468   7.8381   5.9898   C.2       3 RES3   0.0000
    72 C30     -2.2485   6.7975   6.8940   C.ar      3 RES3   0.0000
    73 C31     -1.8695   6.6921   8.2195   C.ar      3 RES3   0.0000
    74 H24     -1.2325   7.2741   8.5662   H         3 RES3   0.0000
    75 C32     -3.1960   5.8982   6.4136   C.ar      3 RES3   0.0000
    76 H25     -3.4716   5.9496   5.5268   H         3 RES3   0.0000
    77 C33     -3.7272   4.9369   7.2356   C.ar      3 RES3   0.0000
    78 H26     -4.3467   4.3315   6.8970   H         3 RES3   0.0000
    79 C34     -2.4307   5.7296   9.0285   C.ar      3 RES3   0.0000
    80 H27     -2.1738   5.6720   9.9205   H         3 RES3   0.0000
    81 N13      5.7997  13.8655   6.4030   N.ar      4 RES4   1.0000
    82 O7       8.1094  16.3346   2.7308   O.co2     4 RES4   0.0000
    83 O8       9.4663  16.6196   4.4677   O.co2     4 RES4  -1.0000
    84 O9       5.0106  13.1050   7.1525   O.3       4 RES4  -1.0000
    85 C35      8.4160  16.1743   3.9221   C.2       4 RES4   0.0000
    86 C36      7.4823  15.3706   4.8056   C.ar      4 RES4   0.0000
    87 C37      7.7107  15.2334   6.1666   C.ar      4 RES4   0.0000
    88 H28      8.4496  15.6468   6.5512   H         4 RES4   0.0000
    89 C38      6.3691  14.7328   4.2795   C.ar      4 RES4   0.0000
    90 H29      6.1785  14.8117   3.3727   H         4 RES4   0.0000
    91 C39      5.5462  13.9863   5.0847   C.ar      4 RES4   0.0000
    92 H30      4.8061  13.5596   4.7172   H         4 RES4   0.0000
    93 C40      6.8616  14.4963   6.9539   C.ar      4 RES4   0.0000
    94 H31      7.0170  14.4305   7.8685   H         4 RES4   0.0000
    95 O10     12.6526  14.6805   7.0615   O.3       5 RES5   0.0000
    96 H32     13.2397  14.0895   7.1014   H         5 RES5   0.0000
    97 H33     11.9565  14.3558   7.2926   H         5 RES5   0.0000
    98 O11      7.2995   2.8911   4.4687   O.3       6 RES6   0.0000
    99 H34      7.4546   2.6369   5.2275   H         6 RES6   0.0000
   100 H35      6.5173   3.0992   4.4692   H         6 RES6   0.0000
   101 O12      5.8002  10.5398   6.0998   O.3       7 RES7   0.0000
   102 H36      6.3496  10.6822   5.5412   H         7 RES7   0.0000
   103 H37      5.5412  11.2813   6.4186   H         7 RES7   0.0000
   104 O13      1.5161   2.9713   0.7113   O.3       8 RES8   0.0000
   105 H38      0.7644   2.9639   0.9596   H         8 RES8   0.0000
   106 H39      1.9349   3.1370   1.4176   H         8 RES8   0.0000
   107 O14      3.6664  15.5184   2.0393   O.3       9 RES9   0.0000
   108 H40      3.3176  15.5453   2.7479   H         9 RES9   0.0000
   109 H41      3.1179  15.0803   1.5686   H         9 RES9   0.0000
@<TRIPOS>BOND
     1     1     4    1
     2     2     3    1
     3     4     2    1
     4     5     1    1
     5     6     1    1
     6     7     6    1
     7     8     7    1
     8     9    10    1
     9    11     1    1
    10    12     1    1
    11    13     1    1
    12    14    13    1
    13    15    14    1
    14    16     2    1
    15    17    16    1
    16    18    16    2
    17    19    18    1
    18    20     4    2
    19    21     5   ar
    20    22    21   ar
    21    23    22    1
    22    24    22   ar
    23    25    24    1
    24    26    24   ar
    25    27    26    1
    26    28     5   ar
    27    29     6    2
    28    30    29    1
    29    31    30    1
    30    32     7    1
    31    33    32    1
    32    34     9    1
    33    35    34    1
    34    36    34    2
    35    37    36    1
    36    38    11    2
    37    39    12   ar
    38    40    39   ar
    39    41    40    1
    40    42    40   ar
    41    43    42    1
    42    44    42   ar
    43    45    44    1
    44    46    12   ar
    45    47    13    2
    46    48    47    1
    47    49    48    1
    48    50    14    1
    49    51    50    1
    50     9    11    1
    51    18    20    1
    52    20    21    1
    53    26    28   ar
    54    28    29    1
    55    30    32    2
    56    36    38    1
    57    38    39    1
    58    44    46   ar
    59    46    47    1
    60    48    50    2
    61    52    55    1
    62    53    56    2
    63    54    56    1
    64    56    57    1
    65    57    58   ar
    66    58    59    1
    67    60    57   ar
    68    61    60    1
    69    62    52   ar
    70    63    62    1
    71    64    52   ar
    72    65    64    1
    73    58    64   ar
    74    60    62   ar
    75    66    70    1
    76    67    71    2
    77    68    69    1
    78    71    68    1
    79    72    71    1
    80    73    72   ar
    81    74    73    1
    82    75    72   ar
    83    76    75    1
    84    77    66   ar
    85    78    77    1
    86    79    66   ar
    87    80    79    1
    88    73    79   ar
    89    75    77   ar
    90    81    84    1
    91    82    85    2
    92    83    85    1
    93    85    86    1
    94    86    87   ar
    95    87    88    1
    96    89    86   ar
    97    90    89    1
    98    91    81   ar
    99    92    91    1
   100    93    81   ar
   101    94    93    1
   102    87    93   ar
   103    89    91   ar
   104    95    96    1
   105    97    95    1
   106    98    99    1
   107   100    98    1
   108   101   102    1
   109   103   101    1
   110   104   105    1
   111   106   104    1
   112   107   108    1
   113   109   107    1
@<TRIPOS>SUBSTRUCTURE
     1 RES1        1 GROUP             0 ****  ****    0  
     2 RES2       52 GROUP             0 ****  ****    0  
     3 RES3       66 GROUP             0 ****  ****    0  
     4 RES4       81 GROUP             0 ****  ****    0  
     5 RES5       95 GROUP             0 ****  ****    0  
     6 RES6       98 GROUP             0 ****  ****    0  
     7 RES7      101 GROUP             0 ****  ****    0  
     8 RES8      104 GROUP             0 ****  ****    0  
     9 RES9      107 GROUP             0 ****  ****    0  
@<TRIPOS>CRYSIN
    9.9924   13.6483   17.4977   73.5796   85.7654   69.0385     2     1
