@<TRIPOS>MOLECULE
LALYAC09
   108   112     9     0     0
SMALL
USER_CHARGES
****
Generated from the CSD

@<TRIPOS>ATOM
     1 Fe1     -1.5068   8.0184   3.6915   Fe        1 RES1   2.0000
     2 N1      -0.1485   8.2716   6.4909   N.pl3     1 RES1   0.0000
     3 H1       0.3494   8.9917   6.1934   H         1 RES1   0.0000
     4 N2      -1.0013   7.7340   5.6014   N.2       1 RES1   0.0000
     5 N3      -2.7894   6.6773   4.2410   N.ar      1 RES1   0.0000
     6 N4      -2.5209   7.7841   2.0175   N.2       1 RES1   0.0000
     7 N5      -2.4892   8.2677   0.7585   N.pl3     1 RES1   0.0000
     8 H2      -1.8424   8.8484   0.4640   H         1 RES1   0.0000
     9 N6      -3.5382   9.9336   5.0752   N.pl3     1 RES1   0.0000
    10 H3      -4.1494   9.2989   5.4168   H         1 RES1   0.0000
    11 N7      -2.5214   9.6366   4.2428   N.2       1 RES1   0.0000
    12 N8      -0.3849   9.4242   2.9623   N.ar      1 RES1   0.0000
    13 N9       0.0298   6.9600   2.9651   N.2       1 RES1   0.0000
    14 N10      0.4582   5.6768   2.9396   N.pl3     1 RES1   0.0000
    15 H4       0.0145   5.0272   3.5344   H         1 RES1   0.0000
    16 C1      -0.3439   7.7526   7.7232   C.2       1 RES1   0.0000
    17 H5       0.1277   7.9809   8.4913   H         1 RES1   0.0000
    18 C2      -1.3587   6.8297   7.6472   C.2       1 RES1   0.0000
    19 H6      -1.7070   6.3088   8.3345   H         1 RES1   0.0000
    20 C3      -1.7513   6.8489   6.3057   C.2       1 RES1   0.0000
    21 C4      -2.8129   6.2260   5.5181   C.ar      1 RES1   0.0000
    22 C5      -3.7923   5.3376   5.9590   C.ar      1 RES1   0.0000
    23 H7      -3.8089   5.0410   6.8403   H         1 RES1   0.0000
    24 C6      -4.7458   4.9077   5.0405   C.ar      1 RES1   0.0000
    25 H8      -5.4042   4.3071   5.3066   H         1 RES1   0.0000
    26 C7      -4.7230   5.3683   3.7284   C.ar      1 RES1   0.0000
    27 H9      -5.3576   5.0789   3.1131   H         1 RES1   0.0000
    28 C8      -3.7348   6.2687   3.3554   C.ar      1 RES1   0.0000
    29 C9      -3.5396   6.9069   2.0593   C.2       1 RES1   0.0000
    30 C10     -4.1789   6.8546   0.8046   C.2       1 RES1   0.0000
    31 H10     -4.9182   6.3433   0.5672   H         1 RES1   0.0000
    32 C11     -3.4706   7.7234   0.0074   C.2       1 RES1   0.0000
    33 H11     -3.6380   7.9041  -0.8893   H         1 RES1   0.0000
    34 C12     -3.6211  11.2699   5.2791   C.2       1 RES1   0.0000
    35 H12     -4.2477  11.7007   5.8152   H         1 RES1   0.0000
    36 C13     -2.6219  11.8822   4.5575   C.2       1 RES1   0.0000
    37 H13     -2.4292  12.7905   4.5054   H         1 RES1   0.0000
    38 C14     -1.9588  10.8227   3.9181   C.2       1 RES1   0.0000
    39 C15     -0.7868  10.7173   3.0569   C.ar      1 RES1   0.0000
    40 C16     -0.1454  11.7334   2.3612   C.ar      1 RES1   0.0000
    41 H14     -0.4415  12.6128   2.4217   H         1 RES1   0.0000
    42 C17      0.9520  11.4046   1.5711   C.ar      1 RES1   0.0000
    43 H15      1.4051  12.0685   1.1028   H         1 RES1   0.0000
    44 C18      1.3730  10.0739   1.4830   C.ar      1 RES1   0.0000
    45 H16      2.1025   9.8428   0.9543   H         1 RES1   0.0000
    46 C19      0.6839   9.1037   2.1981   C.ar      1 RES1   0.0000
    47 C20      0.9345   7.6639   2.2427   C.2       1 RES1   0.0000
    48 C21      1.9419   6.8183   1.7654   C.2       1 RES1   0.0000
    49 H17      2.6771   7.0510   1.2450   H         1 RES1   0.0000
    50 C22      1.6084   5.5637   2.2352   C.2       1 RES1   0.0000
    51 H18      2.0889   4.7802   2.0928   H         1 RES1   0.0000
    52 N11      6.4365  13.2192   1.1485   N.ar      2 RES2   1.0000
    53 O1       3.9689   9.4198   3.1520   O.co2     2 RES2   0.0000
    54 O2       3.1355  11.2033   4.2572   O.co2     2 RES2  -1.0000
    55 O3       7.2792  14.0043   0.5119   O.3       2 RES2  -1.0000
    56 C23      3.8487  10.6819   3.3866   C.2       2 RES2   0.0000
    57 C24      4.7020  11.5687   2.5266   C.ar      2 RES2   0.0000
    58 C25      5.6470  11.0358   1.6543   C.ar      2 RES2   0.0000
    59 H19      5.6943  10.1156   1.5279   H         2 RES2   0.0000
    60 C26      4.6196  12.9503   2.6442   C.ar      2 RES2   0.0000
    61 H20      3.9758  13.3283   3.1982   H         2 RES2   0.0000
    62 C27      5.4828  13.7644   1.9485   C.ar      2 RES2   0.0000
    63 H21      5.4144  14.6884   2.0258   H         2 RES2   0.0000
    64 C28      6.5152  11.8669   0.9772   C.ar      2 RES2   0.0000
    65 H22      7.1524  11.5072   0.4041   H         2 RES2   0.0000
    66 N12      1.7146   4.7789   8.3766   N.ar      3 RES3   1.0000
    67 O4       4.5739   8.2940   6.2224   O.co2     3 RES3   0.0000
    68 O5       2.9341   7.8875   4.7326   O.co2     3 RES3   0.0000
    69 O6       1.1266   3.9203   9.1728   O.3       3 RES3  -1.0000
    70 C29      3.5506   7.7046   5.8410   C.2       3 RES3   0.0000
    71 C30      2.9175   6.6651   6.7284   C.ar      3 RES3   0.0000
    72 C31      3.2696   6.5591   8.0701   C.ar      3 RES3   0.0000
    73 H23      3.9163   7.1254   8.4242   H         3 RES3   0.0000
    74 C32      1.9618   5.7829   6.2324   C.ar      3 RES3   0.0000
    75 H24      1.7131   5.8272   5.3374   H         3 RES3   0.0000
    76 C33      1.3803   4.8434   7.0588   C.ar      3 RES3   0.0000
    77 H25      0.7555   4.2487   6.7122   H         3 RES3   0.0000
    78 C34      2.6640   5.6195   8.8788   C.ar      3 RES3   0.0000
    79 H26      2.9060   5.5585   9.7747   H         3 RES3   0.0000
    80 N13     -0.6190  11.8561  -6.4690   N.ar      4 RES4   1.0000
    81 O7      -2.9608   9.4106  -2.7856   O.co2     4 RES4   0.0000
    82 O8      -4.2882   9.0686  -4.5487   O.co2     4 RES4  -1.0000
    83 O9       0.1577  12.6302  -7.2149   O.3       4 RES4  -1.0000
    84 C35     -3.2563   9.5541  -3.9946   C.2       4 RES4   0.0000
    85 C36     -2.3213  10.3592  -4.8766   C.ar      4 RES4   0.0000
    86 C37     -2.5194  10.4506  -6.2499   C.ar      4 RES4   0.0000
    87 H27     -3.2389  10.0110  -6.6414   H         4 RES4   0.0000
    88 C38     -1.2304  11.0272  -4.3318   C.ar      4 RES4   0.0000
    89 H28     -1.0657  10.9748  -3.4180   H         4 RES4   0.0000
    90 C39     -0.3935  11.7656  -5.1366   C.ar      4 RES4   0.0000
    91 H29      0.3339  12.2070  -4.7617   H         4 RES4   0.0000
    92 C40     -1.6597  11.1846  -7.0366   C.ar      4 RES4   0.0000
    93 H30     -1.7904  11.2224  -7.9565   H         4 RES4   0.0000
    94 O10     -2.0962  14.4690   6.9976   O.3       5 RES5   0.0000
    95 H31     -1.5066  13.8677   7.0359   H         5 RES5   0.0000
    96 H32     -2.7986  14.1237   7.1741   H         5 RES5   0.0000
    97 O11     -2.5278  15.5220   4.4716   O.3       6 RES6   0.0000
    98 H33     -3.3190  15.6883   4.4920   H         6 RES6   0.0000
    99 H34     -2.4306  15.2028   5.1338   H         6 RES6   0.0000
   100 O12      1.0663  10.5411   5.8816   O.3       7 RES7   0.0000
   101 H35      0.8291  11.2081   6.3020   H         7 RES7   0.0000
   102 H36      1.7377  10.7196   5.3312   H         7 RES7   0.0000
   103 O13     -1.1056   9.9929  -0.8611   O.3       8 RES8   0.0000
   104 H37     -1.5419   9.8172  -1.5138   H         8 RES8   0.0000
   105 H38     -0.3455  10.0068  -1.2012   H         8 RES8   0.0000
   106 O14      8.9759  15.3881   2.1065   O.3       9 RES9   0.0000
   107 H39      8.4518  14.9303   1.5961   H         9 RES9   0.0000
   108 H40      8.6680  15.4285   2.8302   H         9 RES9   0.0000
@<TRIPOS>BOND
     1     1     4    1
     2     2     3    1
     3     4     2    1
     4     5     1    1
     5     6     1    1
     6     7     6    1
     7     8     7    1
     8     9    10    1
     9    11     1    1
    10    12     1    1
    11    13     1    1
    12    14    13    1
    13    15    14    1
    14    16     2    1
    15    17    16    1
    16    18    16    2
    17    19    18    1
    18    20     4    2
    19    21     5   ar
    20    22    21   ar
    21    23    22    1
    22    24    22   ar
    23    25    24    1
    24    26    24   ar
    25    27    26    1
    26    28     5   ar
    27    29     6    2
    28    30    29    1
    29    31    30    1
    30    32     7    1
    31    33    32    1
    32    34     9    1
    33    35    34    1
    34    36    34    2
    35    37    36    1
    36    38    11    2
    37    39    12   ar
    38    40    39   ar
    39    41    40    1
    40    42    40   ar
    41    43    42    1
    42    44    42   ar
    43    45    44    1
    44    46    12   ar
    45    47    13    2
    46    48    47    1
    47    49    48    1
    48    50    14    1
    49    51    50    1
    50     9    11    1
    51    18    20    1
    52    20    21    1
    53    26    28   ar
    54    28    29    1
    55    30    32    2
    56    36    38    1
    57    38    39    1
    58    44    46   ar
    59    46    47    1
    60    48    50    2
    61    52    55    1
    62    53    56    2
    63    54    56    1
    64    56    57    1
    65    57    58   ar
    66    58    59    1
    67    60    57   ar
    68    61    60    1
    69    62    52   ar
    70    63    62    1
    71    64    52   ar
    72    65    64    1
    73    58    64   ar
    74    60    62   ar
    75    66    69    1
    76    67    70    2
    77    68    70    1
    78    70    71    1
    79    71    72   ar
    80    72    73    1
    81    74    71   ar
    82    75    74    1
    83    76    66   ar
    84    77    76    1
    85    78    66   ar
    86    79    78    1
    87    72    78   ar
    88    74    76   ar
    89    80    83    1
    90    81    84    2
    91    82    84    1
    92    84    85    1
    93    85    86   ar
    94    86    87    1
    95    88    85   ar
    96    89    88    1
    97    90    80   ar
    98    91    90    1
    99    92    80   ar
   100    93    92    1
   101    86    92   ar
   102    88    90   ar
   103    94    95    1
   104    96    94    1
   105    97    98    1
   106    99    97    1
   107   100   101    1
   108   102   100    1
   109   103   104    1
   110   105   103    1
   111   106   107    1
   112   108   106    1
@<TRIPOS>SUBSTRUCTURE
     1 RES1        1 GROUP             0 ****  ****    0  
     2 RES2       52 GROUP             0 ****  ****    0  
     3 RES3       66 GROUP             0 ****  ****    0  
     4 RES4       80 GROUP             0 ****  ****    0  
     5 RES5       94 GROUP             0 ****  ****    0  
     6 RES6       97 GROUP             0 ****  ****    0  
     7 RES7      100 GROUP             0 ****  ****    0  
     8 RES8      103 GROUP             0 ****  ****    0  
     9 RES9      106 GROUP             0 ****  ****    0  
@<TRIPOS>CRYSIN
   10.0080   13.6530   17.1300   76.9550   85.8230  110.5510     2     1
