@<TRIPOS>MOLECULE
LALYAC04
   109   113     9     0     0
SMALL
USER_CHARGES
****
Generated from the CSD

@<TRIPOS>ATOM
     1 Fe1     -1.4650   7.9787   3.6798   Fe        1 RES1   2.0000
     2 N1      -0.1108   8.2396   6.4691   N.pl3     1 RES1   0.0000
     3 H1       0.4877   9.0533   6.1825   H         1 RES1   0.0000
     4 N2      -0.9611   7.7027   5.5911   N.2       1 RES1   0.0000
     5 N3      -2.7495   6.6406   4.2288   N.ar      1 RES1   0.0000
     6 N4      -2.4732   7.7376   2.0084   N.2       1 RES1   0.0000
     7 N5      -2.4422   8.2163   0.7585   N.pl3     1 RES1   0.0000
     8 H2      -1.7277   8.8575   0.4116   H         1 RES1   0.0000
     9 N6      -3.4794   9.8828   5.0604   N.pl3     1 RES1   0.0000
    10 H3      -4.1547   9.1757   5.3887   H         1 RES1   0.0000
    11 N7      -2.4754   9.5912   4.2280   N.2       1 RES1   0.0000
    12 N8      -0.3427   9.3754   2.9512   N.ar      1 RES1   0.0000
    13 N9       0.0651   6.9171   2.9566   N.2       1 RES1   0.0000
    14 N10      0.4818   5.6503   2.9331   N.pl3     1 RES1   0.0000
    15 H4       0.0137   4.9026   3.4864   H         1 RES1   0.0000
    16 C1      -0.2958   7.7278   7.7053   C.2       1 RES1   0.0000
    17 H5       0.3129   8.0746   8.5210   H         1 RES1   0.0000
    18 C2      -1.3176   6.8004   7.6303   C.2       1 RES1   0.0000
    19 H6      -1.7301   6.2217   8.4275   H         1 RES1   0.0000
    20 C3      -1.7083   6.8227   6.2850   C.2       1 RES1   0.0000
    21 C4      -2.7663   6.1954   5.5060   C.ar      1 RES1   0.0000
    22 C5      -3.7425   5.3171   5.9465   C.ar      1 RES1   0.0000
    23 H7      -3.7535   4.9987   6.9778   H         1 RES1   0.0000
    24 C6      -4.7028   4.8816   5.0389   C.ar      1 RES1   0.0000
    25 H8      -5.4757   4.1979   5.3445   H         1 RES1   0.0000
    26 C7      -4.6820   5.3460   3.7182   C.ar      1 RES1   0.0000
    27 H9      -5.4241   5.0161   3.0092   H         1 RES1   0.0000
    28 C8      -3.6919   6.2353   3.3495   C.ar      1 RES1   0.0000
    29 C9      -3.4978   6.8687   2.0610   C.2       1 RES1   0.0000
    30 C10     -4.1375   6.7971   0.8045   C.2       1 RES1   0.0000
    31 H10     -4.9605   6.1971   0.5182   H         1 RES1   0.0000
    32 C11     -3.4284   7.6735   0.0046   C.2       1 RES1   0.0000
    33 H11     -3.5285   7.9600  -1.0233   H         1 RES1   0.0000
    34 C12     -3.5645  11.2119   5.2674   C.2       1 RES1   0.0000
    35 H12     -4.3124  11.6499   5.8807   H         1 RES1   0.0000
    36 C13     -2.5513  11.8290   4.5412   C.2       1 RES1   0.0000
    37 H13     -2.3592  12.8732   4.4802   H         1 RES1   0.0000
    38 C14     -1.9002  10.7636   3.9076   C.2       1 RES1   0.0000
    39 C15     -0.7421  10.6572   3.0489   C.ar      1 RES1   0.0000
    40 C16     -0.0959  11.6735   2.3531   C.ar      1 RES1   0.0000
    41 H14     -0.4582  12.6981   2.4205   H         1 RES1   0.0000
    42 C17      0.9982  11.3413   1.5689   C.ar      1 RES1   0.0000
    43 H15      1.5234  12.0927   0.9987   H         1 RES1   0.0000
    44 C18      1.4136  10.0184   1.4749   C.ar      1 RES1   0.0000
    45 H16      2.2740   9.7487   0.8708   H         1 RES1   0.0000
    46 C19      0.7157   9.0511   2.1888   C.ar      1 RES1   0.0000
    47 C20      0.9678   7.6283   2.2367   C.2       1 RES1   0.0000
    48 C21      1.9776   6.7869   1.7524   C.2       1 RES1   0.0000
    49 H17      2.8229   7.0638   1.1840   H         1 RES1   0.0000
    50 C22      1.6358   5.5303   2.2280   C.2       1 RES1   0.0000
    51 H18      2.1173   4.5814   2.1270   H         1 RES1   0.0000
    52 N11      6.4738  13.1383   1.1392   N.ar      2 RES2   1.0000
    53 O1       3.9958   9.3685   3.1424   O.co2     2 RES2   0.0000
    54 O2       3.1715  11.1446   4.2369   O.co2     2 RES2  -1.0000
    55 O3       7.3061  13.9144   0.5069   O.3       2 RES2  -1.0000
    56 C23      3.8822  10.6252   3.3736   C.2       2 RES2   0.0000
    57 C24      4.7348  11.4944   2.5205   C.ar      2 RES2   0.0000
    58 C25      5.6709  10.9595   1.6491   C.ar      2 RES2   0.0000
    59 H19      5.7474   9.9004   1.5235   H         2 RES2   0.0000
    60 C26      4.6546  12.8801   2.6404   C.ar      2 RES2   0.0000
    61 H20      3.9275  13.3198   3.2946   H         2 RES2   0.0000
    62 C27      5.5256  13.6835   1.9407   C.ar      2 RES2   0.0000
    63 H21      5.5346  14.7589   1.9613   H         2 RES2   0.0000
    64 C28      6.5441  11.7942   0.9700   C.ar      2 RES2   0.0000
    65 H22      7.3216  11.4513   0.3034   H         2 RES2   0.0000
    66 N12      1.7310   4.7680   8.3460   N.ar      3 RES3   1.0000
    67 O4       4.5960   8.2556   6.2007   O.2       3 RES3   0.0000
    68 O5       2.9583   7.8489   4.7134   O.3       3 RES3   0.0000
    69 H23      3.4603   8.6443   3.9686   H         3 RES3   0.0000
    70 O6       1.1455   3.9172   9.1402   O.3       3 RES3  -1.0000
    71 C29      3.5727   7.6724   5.8179   C.2       3 RES3   0.0000
    72 C30      2.9405   6.6435   6.7069   C.ar      3 RES3   0.0000
    73 C31      3.2900   6.5406   8.0447   C.ar      3 RES3   0.0000
    74 H24      4.0494   7.1911   8.4734   H         3 RES3   0.0000
    75 C32      1.9816   5.7665   6.2095   C.ar      3 RES3   0.0000
    76 H25      1.6818   5.8062   5.1690   H         3 RES3   0.0000
    77 C33      1.3909   4.8339   7.0303   C.ar      3 RES3   0.0000
    78 H26      0.6441   4.1184   6.6974   H         3 RES3   0.0000
    79 C34      2.6809   5.6068   8.8498   C.ar      3 RES3   0.0000
    80 H27      2.8890   5.4769   9.9034   H         3 RES3   0.0000
    81 N13     -0.5696  11.7608  -6.4457   N.ar      4 RES4   1.0000
    82 O7      -2.9131   9.3481  -2.7728   O.co2     4 RES4   0.0000
    83 O8      -4.2391   8.9981  -4.5239   O.co2     4 RES4  -1.0000
    84 O9       0.2060  12.5272  -7.1882   O.3       4 RES4  -1.0000
    85 C35     -3.2047   9.4788  -3.9819   C.2       4 RES4   0.0000
    86 C36     -2.2707  10.2768  -4.8512   C.ar      4 RES4   0.0000
    87 C37     -2.4742  10.3669  -6.2236   C.ar      4 RES4   0.0000
    88 H28     -3.3143   9.8795  -6.7023   H         4 RES4   0.0000
    89 C38     -1.1799  10.9419  -4.3075   C.ar      4 RES4   0.0000
    90 H29     -0.9634  10.9116  -3.2569   H         4 RES4   0.0000
    91 C39     -0.3402  11.6773  -5.1106   C.ar      4 RES4   0.0000
    92 H30      0.5163  12.2526  -4.7672   H         4 RES4   0.0000
    93 C40     -1.6065  11.1059  -7.0126   C.ar      4 RES4   0.0000
    94 H31     -1.7225  11.2127  -8.0733   H         4 RES4   0.0000
    95 O10     -2.0291  14.3943   6.9721   O.3       5 RES5   0.0000
    96 H32     -2.8611  13.9977   7.2107   H         5 RES5   0.0000
    97 H33     -1.3396  13.7166   7.0828   H         5 RES5   0.0000
    98 O11     -2.4486  15.4311   4.4607   O.3       6 RES6   0.0000
    99 H34     -2.2703  15.0920   5.3510   H         6 RES6   0.0000
   100 H35     -3.3828  15.6766   4.4622   H         6 RES6   0.0000
   101 O12      1.1144  10.4930   5.8545   O.3       7 RES7   0.0000
   102 H36      0.8080  11.2903   6.3186   H         7 RES7   0.0000
   103 H37      1.8287  10.6938   5.2493   H         7 RES7   0.0000
   104 O13     -1.0638   9.9182  -0.8624   O.3       8 RES8   0.0000
   105 H38     -1.6366   9.7354  -1.6120   H         8 RES8   0.0000
   106 H39     -0.1673   9.9419  -1.2119   H         8 RES8   0.0000
   107 O14      8.9992  15.2973   2.1007   O.3       9 RES9   0.0000
   108 H40      8.3861  14.8056   1.5399   H         9 RES9   0.0000
   109 H41      8.5804  15.3550   2.9568   H         9 RES9   0.0000
@<TRIPOS>BOND
     1     1     4    1
     2     2     3    1
     3     4     2    1
     4     5     1    1
     5     6     1    1
     6     7     6    1
     7     8     7    1
     8     9    10    1
     9    11     1    1
    10    12     1    1
    11    13     1    1
    12    14    13    1
    13    15    14    1
    14    16     2    1
    15    17    16    1
    16    18    16    2
    17    19    18    1
    18    20     4    2
    19    21     5   ar
    20    22    21   ar
    21    23    22    1
    22    24    22   ar
    23    25    24    1
    24    26    24   ar
    25    27    26    1
    26    28     5   ar
    27    29     6    2
    28    30    29    1
    29    31    30    1
    30    32     7    1
    31    33    32    1
    32    34     9    1
    33    35    34    1
    34    36    34    2
    35    37    36    1
    36    38    11    2
    37    39    12   ar
    38    40    39   ar
    39    41    40    1
    40    42    40   ar
    41    43    42    1
    42    44    42   ar
    43    45    44    1
    44    46    12   ar
    45    47    13    2
    46    48    47    1
    47    49    48    1
    48    50    14    1
    49    51    50    1
    50     9    11    1
    51    18    20    1
    52    20    21    1
    53    26    28   ar
    54    28    29    1
    55    30    32    2
    56    36    38    1
    57    38    39    1
    58    44    46   ar
    59    46    47    1
    60    48    50    2
    61    52    55    1
    62    53    56    2
    63    54    56    1
    64    56    57    1
    65    57    58   ar
    66    58    59    1
    67    60    57   ar
    68    61    60    1
    69    62    52   ar
    70    63    62    1
    71    64    52   ar
    72    65    64    1
    73    58    64   ar
    74    60    62   ar
    75    66    70    1
    76    67    71    2
    77    68    69    1
    78    71    68    1
    79    72    71    1
    80    73    72   ar
    81    74    73    1
    82    75    72   ar
    83    76    75    1
    84    77    66   ar
    85    78    77    1
    86    79    66   ar
    87    80    79    1
    88    73    79   ar
    89    75    77   ar
    90    81    84    1
    91    82    85    2
    92    83    85    1
    93    85    86    1
    94    86    87   ar
    95    87    88    1
    96    89    86   ar
    97    90    89    1
    98    91    81   ar
    99    92    91    1
   100    93    81   ar
   101    94    93    1
   102    87    93   ar
   103    89    91   ar
   104    95    96    1
   105    97    95    1
   106    98    99    1
   107   100    98    1
   108   101   102    1
   109   103   101    1
   110   104   105    1
   111   106   104    1
   112   107   108    1
   113   109   107    1
@<TRIPOS>SUBSTRUCTURE
     1 RES1        1 GROUP             0 ****  ****    0  
     2 RES2       52 GROUP             0 ****  ****    0  
     3 RES3       66 GROUP             0 ****  ****    0  
     4 RES4       81 GROUP             0 ****  ****    0  
     5 RES5       95 GROUP             0 ****  ****    0  
     6 RES6       98 GROUP             0 ****  ****    0  
     7 RES7      101 GROUP             0 ****  ****    0  
     8 RES8      104 GROUP             0 ****  ****    0  
     9 RES9      107 GROUP             0 ****  ****    0  
@<TRIPOS>CRYSIN
    9.9677   13.5502   17.0822   76.8760   85.7290  110.3760     2     1
