@<TRIPOS>MOLECULE
LALYAC05
   108   112     9     0     0
SMALL
USER_CHARGES
****
Generated from the CSD

@<TRIPOS>ATOM
     1 Fe1      3.2768   8.0417   3.8982   Fe        1 RES1   2.0000
     2 N1       4.5680   8.2649   6.8856   N.pl3     1 RES1   0.0000
     3 H1       5.1524   9.0626   6.6152   H         1 RES1   0.0000
     4 N2       3.7272   7.7564   5.9811   N.2       1 RES1   0.0000
     5 N3       1.9171   6.5628   4.5743   N.ar      1 RES1   0.0000
     6 N4       2.0315   7.5532   2.1720   N.2       1 RES1   0.0000
     7 N5       1.9319   7.8893   0.8805   N.pl3     1 RES1   0.0000
     8 H2       2.5821   8.5471   0.4390   H         1 RES1   0.0000
     9 N6       1.1717  10.2665   5.1583   N.pl3     1 RES1   0.0000
    10 H3       0.4958   9.5967   5.5244   H         1 RES1   0.0000
    11 N7       2.1715   9.8691   4.3572   N.2       1 RES1   0.0000
    12 N8       4.3636   9.5921   2.9728   N.ar      1 RES1   0.0000
    13 N9       5.0127   7.0782   3.0023   N.2       1 RES1   0.0000
    14 N10      5.5591   5.8633   2.9039   N.pl3     1 RES1   0.0000
    15 H4       5.1457   5.0705   3.4416   H         1 RES1   0.0000
    16 C1       4.3875   7.7084   8.0982   C.2       1 RES1   0.0000
    17 H5       4.9706   8.0259   8.9291   H         1 RES1   0.0000
    18 C2       3.3679   6.7755   7.9823   C.2       1 RES1   0.0000
    19 H6       2.9616   6.1652   8.7549   H         1 RES1   0.0000
    20 C3       2.9865   6.8440   6.6364   C.2       1 RES1   0.0000
    21 C4       1.9349   6.1926   5.8662   C.ar      1 RES1   0.0000
    22 C5       0.9948   5.3089   6.3764   C.ar      1 RES1   0.0000
    23 H7       1.0126   5.0223   7.4161   H         1 RES1   0.0000
    24 C6       0.0127   4.8215   5.5163   C.ar      1 RES1   0.0000
    25 H8      -0.7327   4.1479   5.8779   H         1 RES1   0.0000
    26 C7       0.0007   5.2213   4.1837   C.ar      1 RES1   0.0000
    27 H9      -0.7579   4.8625   3.5103   H         1 RES1   0.0000
    28 C8       0.9797   6.0979   3.7431   C.ar      1 RES1   0.0000
    29 C9       1.0889   6.6278   2.3867   C.2       1 RES1   0.0000
    30 C10      0.3820   6.3625   1.2148   C.2       1 RES1   0.0000
    31 H10     -0.4164   5.6700   1.0456   H         1 RES1   0.0000
    32 C11      0.9534   7.1975   0.2723   C.2       1 RES1   0.0000
    33 H11      0.7714   7.3399  -0.7825   H         1 RES1   0.0000
    34 C12      1.1288  11.6093   5.2616   C.2       1 RES1   0.0000
    35 H12      0.4147  12.1322   5.8595   H         1 RES1   0.0000
    36 C13      2.1517  12.1207   4.4857   C.2       1 RES1   0.0000
    37 H13      2.3794  13.1412   4.3397   H         1 RES1   0.0000
    38 C14      2.7731  10.9937   3.9450   C.2       1 RES1   0.0000
    39 C15      3.9158  10.8452   3.0532   C.ar      1 RES1   0.0000
    40 C16      4.5015  11.8821   2.3260   C.ar      1 RES1   0.0000
    41 H14      4.1152  12.8702   2.3726   H         1 RES1   0.0000
    42 C17      5.6000  11.5759   1.5276   C.ar      1 RES1   0.0000
    43 H15      6.0785  12.3288   0.9484   H         1 RES1   0.0000
    44 C18      6.0673  10.2706   1.4593   C.ar      1 RES1   0.0000
    45 H16      6.9286  10.0229   0.8545   H         1 RES1   0.0000
    46 C19      5.4163   9.2885   2.2009   C.ar      1 RES1   0.0000
    47 C20      5.7789   7.8905   2.2421   C.2       1 RES1   0.0000
    48 C21      6.8262   7.1621   1.6551   C.2       1 RES1   0.0000
    49 H17      7.6086   7.5352   1.0405   H         1 RES1   0.0000
    50 C22      6.6482   5.8642   2.1114   C.2       1 RES1   0.0000
    51 H18      7.2031   4.9774   1.9303   H         1 RES1   0.0000
    52 N11      1.0533  13.2296   1.1892   N.ar      2 RES2   1.0000
    53 O1      -1.3436   9.4750   3.2533   O.co2     2 RES2   0.0000
    54 O2      -2.1986  11.2346   4.3334   O.co2     2 RES2  -1.0000
    55 O3       1.8902  14.0056   0.5620   O.3       2 RES2  -1.0000
    56 C23     -1.4912  10.7235   3.4648   C.2       2 RES2   0.0000
    57 C24     -0.6620  11.5992   2.5878   C.ar      2 RES2   0.0000
    58 C25      0.2907  11.0634   1.7349   C.ar      2 RES2   0.0000
    59 H19      0.3836  10.0023   1.6337   H         2 RES2   0.0000
    60 C26     -0.7600  12.9728   2.6813   C.ar      2 RES2   0.0000
    61 H20     -1.4866  13.4063   3.3176   H         2 RES2   0.0000
    62 C27      0.0910  13.7812   1.9695   C.ar      2 RES2   0.0000
    63 H21      0.0853  14.8472   1.9906   H         2 RES2   0.0000
    64 C28      1.1439  11.8900   1.0466   C.ar      2 RES2   0.0000
    65 H22      1.9200  11.5538   0.3988   H         2 RES2   0.0000
    66 N12     -3.3493   4.8685   8.5233   N.ar      3 RES3   1.0000
    67 O4      -0.6536   8.4695   6.3357   O.co2     3 RES3   0.0000
    68 O5      -2.2605   7.9457   4.8709   O.co2     3 RES3   0.0000
    69 O6      -3.8729   3.9744   9.3053   O.3       3 RES3  -1.0000
    70 C29     -1.6463   7.8326   5.9838   C.2       3 RES3   0.0000
    71 C30     -2.2381   6.8044   6.8794   C.ar      3 RES3   0.0000
    72 C31     -1.8640   6.6973   8.2108   C.ar      3 RES3   0.0000
    73 H23     -1.1244   7.3613   8.6309   H         3 RES3   0.0000
    74 C32     -3.1897   5.9092   6.4002   C.ar      3 RES3   0.0000
    75 H24     -3.5189   5.9602   5.3652   H         3 RES3   0.0000
    76 C33     -3.7243   4.9435   7.2221   C.ar      3 RES3   0.0000
    77 H25     -4.4487   4.2081   6.9117   H         3 RES3   0.0000
    78 C34     -2.4239   5.7316   9.0127   C.ar      3 RES3   0.0000
    79 H26     -2.1957   5.6040  10.0484   H         3 RES3   0.0000
    80 N13      5.7787  13.8540   6.3940   N.ar      4 RES4   1.0000
    81 O7       8.0743  16.3228   2.7287   O.co2     4 RES4   0.0000
    82 O8       9.4263  16.6108   4.4535   O.co2     4 RES4  -1.0000
    83 O9       4.9984  13.0997   7.1324   O.3       4 RES4  -1.0000
    84 C35      8.3845  16.1642   3.9190   C.2       4 RES4   0.0000
    85 C36      7.4579  15.3595   4.7921   C.ar      4 RES4   0.0000
    86 C37      7.6932  15.2257   6.1524   C.ar      4 RES4   0.0000
    87 H27      8.5358  15.6853   6.6185   H         4 RES4   0.0000
    88 C38      6.3415  14.7235   4.2667   C.ar      4 RES4   0.0000
    89 H28      6.0980  14.7997   3.2205   H         4 RES4   0.0000
    90 C39      5.5165  13.9677   5.0730   C.ar      4 RES4   0.0000
    91 H29      4.6820  13.4287   4.7469   H         4 RES4   0.0000
    92 C40      6.8392  14.4763   6.9458   C.ar      4 RES4   0.0000
    93 H30      6.9693  14.3453   7.9824   H         4 RES4   0.0000
    94 O10     12.6227  14.6531   7.0475   O.3       5 RES5   0.0000
    95 H31     11.7737  14.2476   7.3323   H         5 RES5   0.0000
    96 H32     13.2784  13.9888   7.1178   H         5 RES5   0.0000
    97 O11      7.2782   2.8922   4.4654   O.3       6 RES6   0.0000
    98 H33      6.3472   3.1565   4.4554   H         6 RES6   0.0000
    99 H34      7.4470   2.5817   5.3602   H         6 RES6   0.0000
   100 O12      5.7862  10.5325   6.0890   O.3       7 RES7   0.0000
   101 H35      6.4591  10.6984   5.4305   H         7 RES7   0.0000
   102 H36      5.4755  11.3663   6.4225   H         7 RES7   0.0000
   103 O13      1.5148   2.9697   0.7037   O.3       8 RES8   0.0000
   104 H37      0.6152   2.9494   0.9919   H         8 RES8   0.0000
   105 H38      2.0526   3.1782   1.4963   H         8 RES8   0.0000
   106 O14      3.6324  15.4929   2.0325   O.3       9 RES9   0.0000
   107 H39      3.2162  15.5530   2.9105   H         9 RES9   0.0000
   108 H40      3.0150  14.9867   1.5147   H         9 RES9   0.0000
@<TRIPOS>BOND
     1     1     4    1
     2     2     3    1
     3     4     2    1
     4     5     1    1
     5     6     1    1
     6     7     6    1
     7     8     7    1
     8     9    10    1
     9    11     1    1
    10    12     1    1
    11    13     1    1
    12    14    13    1
    13    15    14    1
    14    16     2    1
    15    17    16    1
    16    18    16    2
    17    19    18    1
    18    20     4    2
    19    21     5   ar
    20    22    21   ar
    21    23    22    1
    22    24    22   ar
    23    25    24    1
    24    26    24   ar
    25    27    26    1
    26    28     5   ar
    27    29     6    2
    28    30    29    1
    29    31    30    1
    30    32     7    1
    31    33    32    1
    32    34     9    1
    33    35    34    1
    34    36    34    2
    35    37    36    1
    36    38    11    2
    37    39    12   ar
    38    40    39   ar
    39    41    40    1
    40    42    40   ar
    41    43    42    1
    42    44    42   ar
    43    45    44    1
    44    46    12   ar
    45    47    13    2
    46    48    47    1
    47    49    48    1
    48    50    14    1
    49    51    50    1
    50     9    11    1
    51    18    20    1
    52    20    21    1
    53    26    28   ar
    54    28    29    1
    55    30    32    2
    56    36    38    1
    57    38    39    1
    58    44    46   ar
    59    46    47    1
    60    48    50    2
    61    52    55    1
    62    53    56    2
    63    54    56    1
    64    56    57    1
    65    57    58   ar
    66    58    59    1
    67    60    57   ar
    68    61    60    1
    69    62    52   ar
    70    63    62    1
    71    64    52   ar
    72    65    64    1
    73    58    64   ar
    74    60    62   ar
    75    66    69    1
    76    67    70    2
    77    68    70    1
    78    70    71    1
    79    71    72   ar
    80    72    73    1
    81    74    71   ar
    82    75    74    1
    83    76    66   ar
    84    77    76    1
    85    78    66   ar
    86    79    78    1
    87    72    78   ar
    88    74    76   ar
    89    80    83    1
    90    81    84    2
    91    82    84    1
    92    84    85    1
    93    85    86   ar
    94    86    87    1
    95    88    85   ar
    96    89    88    1
    97    90    80   ar
    98    91    90    1
    99    92    80   ar
   100    93    92    1
   101    86    92   ar
   102    88    90   ar
   103    94    95    1
   104    96    94    1
   105    97    98    1
   106    99    97    1
   107   100   101    1
   108   102   100    1
   109   103   104    1
   110   105   103    1
   111   106   107    1
   112   108   106    1
@<TRIPOS>SUBSTRUCTURE
     1 RES1        1 GROUP             0 ****  ****    0  
     2 RES2       52 GROUP             0 ****  ****    0  
     3 RES3       66 GROUP             0 ****  ****    0  
     4 RES4       80 GROUP             0 ****  ****    0  
     5 RES5       94 GROUP             0 ****  ****    0  
     6 RES6       97 GROUP             0 ****  ****    0  
     7 RES7      100 GROUP             0 ****  ****    0  
     8 RES8      103 GROUP             0 ****  ****    0  
     9 RES9      106 GROUP             0 ****  ****    0  
@<TRIPOS>CRYSIN
    9.9726   13.6198   17.4815   73.5194   85.7393   69.1085     2     1
