@<TRIPOS>MOLECULE
LALYAC06
   109   113     9     0     0
SMALL
USER_CHARGES
****
Generated from the CSD

@<TRIPOS>ATOM
     1 Fe1     -1.4911   8.0064   3.7033   Fe        1 RES1   2.0000
     2 N1      -0.1327   8.2688   6.5079   N.pl3     1 RES1   0.0000
     3 H1       0.4067   9.0574   6.2262   H         1 RES1   0.0000
     4 N2      -0.9900   7.7301   5.6125   N.2       1 RES1   0.0000
     5 N3      -2.7761   6.6620   4.2551   N.ar      1 RES1   0.0000
     6 N4      -2.5135   7.7537   2.0291   N.2       1 RES1   0.0000
     7 N5      -2.4824   8.2357   0.7592   N.pl3     1 RES1   0.0000
     8 H2      -1.7719   8.9221   0.4118   H         1 RES1   0.0000
     9 N6      -3.5220   9.9365   5.0762   N.pl3     1 RES1   0.0000
    10 H3      -4.2178   9.2302   5.3928   H         1 RES1   0.0000
    11 N7      -2.5047   9.6345   4.2414   N.2       1 RES1   0.0000
    12 N8      -0.3674   9.4123   2.9591   N.ar      1 RES1   0.0000
    13 N9       0.0501   6.9549   2.9669   N.2       1 RES1   0.0000
    14 N10      0.4760   5.6746   2.9459   N.pl3     1 RES1   0.0000
    15 H4       0.0329   4.9847   3.4426   H         1 RES1   0.0000
    16 C1      -0.3303   7.7552   7.7370   C.2       1 RES1   0.0000
    17 H5       0.1391   7.9856   8.5059   H         1 RES1   0.0000
    18 C2      -1.3488   6.8298   7.6598   C.2       1 RES1   0.0000
    19 H6      -1.6962   6.3079   8.3470   H         1 RES1   0.0000
    20 C3      -1.7407   6.8483   6.3206   C.2       1 RES1   0.0000
    21 C4      -2.8035   6.2246   5.5326   C.ar      1 RES1   0.0000
    22 C5      -3.7787   5.3395   5.9782   C.ar      1 RES1   0.0000
    23 H7      -3.7918   5.0478   6.8612   H         1 RES1   0.0000
    24 C6      -4.7388   4.9003   5.0632   C.ar      1 RES1   0.0000
    25 H8      -5.3970   4.3012   5.3326   H         1 RES1   0.0000
    26 C7      -4.7116   5.3566   3.7519   C.ar      1 RES1   0.0000
    27 H9      -5.3466   5.0664   3.1375   H         1 RES1   0.0000
    28 C8      -3.7239   6.2516   3.3734   C.ar      1 RES1   0.0000
    29 C9      -3.5334   6.8844   2.0752   C.2       1 RES1   0.0000
    30 C10     -4.1655   6.8179   0.8178   C.2       1 RES1   0.0000
    31 H10     -4.8996   6.2981   0.5798   H         1 RES1   0.0000
    32 C11     -3.4612   7.6863   0.0198   C.2       1 RES1   0.0000
    33 H11     -3.6326   7.8629  -0.8770   H         1 RES1   0.0000
    34 C12     -3.5986  11.2683   5.2717   C.2       1 RES1   0.0000
    35 H12     -4.2234  11.7046   5.8039   H         1 RES1   0.0000
    36 C13     -2.5971  11.8698   4.5529   C.2       1 RES1   0.0000
    37 H13     -2.4020  12.7776   4.4992   H         1 RES1   0.0000
    38 C14     -1.9349  10.8166   3.9197   C.2       1 RES1   0.0000
    39 C15     -0.7743  10.7034   3.0573   C.ar      1 RES1   0.0000
    40 C16     -0.1260  11.7178   2.3615   C.ar      1 RES1   0.0000
    41 H14     -0.4188  12.5983   2.4249   H         1 RES1   0.0000
    42 C17      0.9658  11.3902   1.5704   C.ar      1 RES1   0.0000
    43 H15      1.4167  12.0545   1.1005   H         1 RES1   0.0000
    44 C18      1.3869  10.0654   1.4810   C.ar      1 RES1   0.0000
    45 H16      2.1178   9.8350   0.9542   H         1 RES1   0.0000
    46 C19      0.6955   9.0961   2.1924   C.ar      1 RES1   0.0000
    47 C20      0.9483   7.6589   2.2484   C.2       1 RES1   0.0000
    48 C21      1.9572   6.8207   1.7592   C.2       1 RES1   0.0000
    49 H17      2.6894   7.0523   1.2340   H         1 RES1   0.0000
    50 C22      1.6187   5.5756   2.2337   C.2       1 RES1   0.0000
    51 H18      2.0984   4.7920   2.0877   H         1 RES1   0.0000
    52 N11      6.4513  13.1821   1.1502   N.ar      2 RES2   1.0000
    53 O1       3.9762   9.4044   3.1556   O.3       2 RES2   0.0000
    54 O2       3.1433  11.1855   4.2617   O.2       2 RES2   0.0000
    55 O3       7.2916  13.9619   0.5154   O.3       2 RES2  -1.0000
    56 C23      3.8549  10.6592   3.3910   C.2       2 RES2   0.0000
    57 C24      4.7118  11.5401   2.5295   C.ar      2 RES2   0.0000
    58 C25      5.6518  11.0087   1.6608   C.ar      2 RES2   0.0000
    59 H19      5.6957  10.0881   1.5337   H         2 RES2   0.0000
    60 C26      4.6376  12.9222   2.6488   C.ar      2 RES2   0.0000
    61 H20      3.9996  13.3049   3.2073   H         2 RES2   0.0000
    62 C27      5.4991  13.7250   1.9479   C.ar      2 RES2   0.0000
    63 H21      5.4297  14.6493   2.0200   H         2 RES2   0.0000
    64 C28      6.5229  11.8349   0.9842   C.ar      2 RES2   0.0000
    65 H22      7.1600  11.4709   0.4132   H         2 RES2   0.0000
    66 H23      3.4613   8.7352   3.9532   H         2 RES2   0.0000
    67 N12      1.7233   4.7918   8.3842   N.ar      3 RES3   1.0000
    68 O4       4.5813   8.2958   6.2294   O.co2     3 RES3   0.0000
    69 O5       2.9433   7.8814   4.7399   O.co2     3 RES3  -1.0000
    70 O6       1.1372   3.9361   9.1857   O.3       3 RES3  -1.0000
    71 C29      3.5603   7.7075   5.8537   C.2       3 RES3   0.0000
    72 C30      2.9273   6.6720   6.7385   C.ar      3 RES3   0.0000
    73 C31      3.2820   6.5700   8.0753   C.ar      3 RES3   0.0000
    74 H24      3.9339   7.1326   8.4265   H         3 RES3   0.0000
    75 C32      1.9670   5.7869   6.2457   C.ar      3 RES3   0.0000
    76 H25      1.7167   5.8292   5.3508   H         3 RES3   0.0000
    77 C33      1.3885   4.8564   7.0691   C.ar      3 RES3   0.0000
    78 H26      0.7607   4.2632   6.7243   H         3 RES3   0.0000
    79 C34      2.6710   5.6368   8.8846   C.ar      3 RES3   0.0000
    80 H27      2.9066   5.5824   9.7825   H         3 RES3   0.0000
    81 N13     -0.6073  11.7877  -6.4649   N.ar      4 RES4   1.0000
    82 O7      -2.9510   9.3618  -2.7837   O.co2     4 RES4   0.0000
    83 O8      -4.2784   9.0155  -4.5427   O.co2     4 RES4  -1.0000
    84 O9       0.1761  12.5604  -7.2126   O.3       4 RES4  -1.0000
    85 C35     -3.2427   9.4989  -3.9911   C.2       4 RES4   0.0000
    86 C36     -2.3100  10.3010  -4.8672   C.ar      4 RES4   0.0000
    87 C37     -2.5056  10.3896  -6.2472   C.ar      4 RES4   0.0000
    88 H28     -3.2233   9.9478  -6.6404   H         4 RES4   0.0000
    89 C38     -1.2176  10.9707  -4.3328   C.ar      4 RES4   0.0000
    90 H29     -1.0505  10.9213  -3.4194   H         4 RES4   0.0000
    91 C39     -0.3836  11.7038  -5.1357   C.ar      4 RES4   0.0000
    92 H30      0.3438  12.1473  -4.7618   H         4 RES4   0.0000
    93 C40     -1.6454  11.1241  -7.0292   C.ar      4 RES4   0.0000
    94 H31     -1.7773  11.1660  -7.9490   H         4 RES4   0.0000
    95 O10     -2.0641  14.4599   7.0002   O.3       5 RES5   0.0000
    96 H32     -1.4489  13.9183   7.0597   H         5 RES5   0.0000
    97 H33     -2.7996  14.0280   7.2228   H         5 RES5   0.0000
    98 O11     -2.4938  15.4913   4.4715   O.3       6 RES6   0.0000
    99 H34     -3.2971  15.7025   4.5280   H         6 RES6   0.0000
   100 H35     -2.2986  15.1797   5.2050   H         6 RES6   0.0000
   101 O12      1.0805  10.5271   5.8915   O.3       7 RES7   0.0000
   102 H36      0.8309  11.2482   6.3580   H         7 RES7   0.0000
   103 H37      1.7080  10.6905   5.4191   H         7 RES7   0.0000
   104 O13     -1.0990   9.9459  -0.8544   O.3       8 RES8   0.0000
   105 H38     -1.5709   9.7228  -1.4495   H         8 RES8   0.0000
   106 H39     -0.3006   9.8944  -1.2024   H         8 RES8   0.0000
   107 O14      8.9988  15.3631   2.1026   O.3       9 RES9   0.0000
   108 H40      8.4665  14.9101   1.5813   H         9 RES9   0.0000
   109 H41      8.6194  15.4240   2.8166   H         9 RES9   0.0000
@<TRIPOS>BOND
     1     1     4    1
     2     2     3    1
     3     4     2    1
     4     5     1    1
     5     6     1    1
     6     7     6    1
     7     8     7    1
     8     9    10    1
     9    11     1    1
    10    12     1    1
    11    13     1    1
    12    14    13    1
    13    15    14    1
    14    16     2    1
    15    17    16    1
    16    18    16    2
    17    19    18    1
    18    20     4    2
    19    21     5   ar
    20    22    21   ar
    21    23    22    1
    22    24    22   ar
    23    25    24    1
    24    26    24   ar
    25    27    26    1
    26    28     5   ar
    27    29     6    2
    28    30    29    1
    29    31    30    1
    30    32     7    1
    31    33    32    1
    32    34     9    1
    33    35    34    1
    34    36    34    2
    35    37    36    1
    36    38    11    2
    37    39    12   ar
    38    40    39   ar
    39    41    40    1
    40    42    40   ar
    41    43    42    1
    42    44    42   ar
    43    45    44    1
    44    46    12   ar
    45    47    13    2
    46    48    47    1
    47    49    48    1
    48    50    14    1
    49    51    50    1
    50     9    11    1
    51    18    20    1
    52    20    21    1
    53    26    28   ar
    54    28    29    1
    55    30    32    2
    56    36    38    1
    57    38    39    1
    58    44    46   ar
    59    46    47    1
    60    48    50    2
    61    52    55    1
    62    53    56    1
    63    54    56    2
    64    56    57    1
    65    57    58   ar
    66    58    59    1
    67    60    57   ar
    68    61    60    1
    69    62    52   ar
    70    63    62    1
    71    64    52   ar
    72    65    64    1
    73    66    53    1
    74    58    64   ar
    75    60    62   ar
    76    67    70    1
    77    68    71    2
    78    69    71    1
    79    71    72    1
    80    72    73   ar
    81    73    74    1
    82    75    72   ar
    83    76    75    1
    84    77    67   ar
    85    78    77    1
    86    79    67   ar
    87    80    79    1
    88    73    79   ar
    89    75    77   ar
    90    81    84    1
    91    82    85    2
    92    83    85    1
    93    85    86    1
    94    86    87   ar
    95    87    88    1
    96    89    86   ar
    97    90    89    1
    98    91    81   ar
    99    92    91    1
   100    93    81   ar
   101    94    93    1
   102    87    93   ar
   103    89    91   ar
   104    95    96    1
   105    97    95    1
   106    98    99    1
   107   100    98    1
   108   101   102    1
   109   103   101    1
   110   104   105    1
   111   106   104    1
   112   107   108    1
   113   109   107    1
@<TRIPOS>SUBSTRUCTURE
     1 RES1        1 GROUP             0 ****  ****    0  
     2 RES2       52 GROUP             0 ****  ****    0  
     3 RES3       67 GROUP             0 ****  ****    0  
     4 RES4       81 GROUP             0 ****  ****    0  
     5 RES5       95 GROUP             0 ****  ****    0  
     6 RES6       98 GROUP             0 ****  ****    0  
     7 RES7      101 GROUP             0 ****  ****    0  
     8 RES8      104 GROUP             0 ****  ****    0  
     9 RES9      107 GROUP             0 ****  ****    0  
@<TRIPOS>CRYSIN
    9.9953   13.6057   17.1602   76.8440   85.7700  110.5020     2     1
