@<TRIPOS>MOLECULE
LAQHEQ
    82    85     5     0     0
SMALL
USER_CHARGES
****
Generated from the CSD

@<TRIPOS>ATOM
     1 Fe1      1.0571   3.5801   1.6614   Fe        1 RES1   1.0000
     2 Cl1     -0.1566   1.6206   1.7630   Cl        1 RES1   0.0000
     3 Cl2      3.9223   6.7583   7.6435   Cl        1 RES1   0.0000
     4 Cl3      7.0068   0.7484  -1.7992   Cl        1 RES1   0.0000
     5 O1       1.0677   3.6360   3.6060   O.3       1 RES1   0.0000
     6 O2       2.9223   2.9236   1.7826   O.3       1 RES1   0.0000
     7 N1       1.5178   5.6525   1.8734   N.2       1 RES1   0.0000
     8 N2      -0.6854   4.6023   0.7739   N.3       1 RES1   0.0000
     9 H1      -1.3988   4.4520   1.3191   H         1 RES1   0.0000
    10 N3       1.4143   3.4487  -0.4771   N.2       1 RES1   0.0000
    11 N4       4.4265   2.1816   3.7878   N.2       1 RES1   0.0000
    12 N5       2.2870   1.3879   5.3947   N.3       1 RES1   0.0000
    13 N6       0.1406   2.1397   5.6143   N.4       1 RES1   1.0000
    14 H2      -0.4581   2.3936   6.2367   H         1 RES1   0.0000
    15 H3      -0.0331   2.5859   4.8525   H         1 RES1   0.0000
    16 C1       0.9581   6.4290   0.7557   C.3       1 RES1   0.0000
    17 H4       1.4093   6.2022  -0.0727   H         1 RES1   0.0000
    18 H5       1.0656   7.3780   0.9163   H         1 RES1   0.0000
    19 C2      -0.5022   6.0715   0.6740   C.3       1 RES1   0.0000
    20 H6      -0.9845   6.5079   1.3933   H         1 RES1   0.0000
    21 H7      -0.8667   6.3871  -0.1681   H         1 RES1   0.0000
    22 C3      -0.9701   3.9663  -0.5164   C.3       1 RES1   0.0000
    23 H8      -1.6441   4.4742  -0.9950   H         1 RES1   0.0000
    24 H9      -1.3074   3.0690  -0.3756   H         1 RES1   0.0000
    25 C4       0.2977   3.9170  -1.3176   C.3       1 RES1   0.0000
    26 H10      0.1830   3.3156  -2.0703   H         1 RES1   0.0000
    27 H11      0.4990   4.7995  -1.6644   H         1 RES1   0.0000
    28 C5       2.3937   2.8965  -1.0374   C.2       1 RES1   0.0000
    29 H12      2.3244   2.7905  -1.9598   H         1 RES1   0.0000
    30 C6       3.6106   2.4035  -0.4422   C.ar      1 RES1   0.0000
    31 C7       4.6043   1.8685  -1.2631   C.ar      1 RES1   0.0000
    32 H13      4.4576   1.8192  -2.1809   H         1 RES1   0.0000
    33 C8       5.8082   1.4100  -0.7451   C.ar      1 RES1   0.0000
    34 C9       6.0140   1.4372   0.5907   C.ar      1 RES1   0.0000
    35 H14      6.8186   1.1266   0.9375   H         1 RES1   0.0000
    36 C10      5.0348   1.9302   1.4600   C.ar      1 RES1   0.0000
    37 C11      3.8111   2.4429   0.9647   C.ar      1 RES1   0.0000
    38 C12      5.2859   1.8784   2.8806   C.2       1 RES1   0.0000
    39 H15      6.1289   1.6023   3.1592   H         1 RES1   0.0000
    40 C13      4.6627   2.1027   5.2493   C.3       1 RES1   0.0000
    41 H16      4.5843   2.9852   5.6445   H         1 RES1   0.0000
    42 H17      5.5587   1.7724   5.4204   H         1 RES1   0.0000
    43 C14      3.6452   1.1685   5.8763   C.3       1 RES1   0.0000
    44 H18      3.9017   0.2514   5.6870   H         1 RES1   0.0000
    45 H19      3.6604   1.2868   6.8380   H         1 RES1   0.0000
    46 C15      1.4627   0.1997   5.5355   C.3       1 RES1   0.0000
    47 H20      1.5953  -0.2046   6.4079   H         1 RES1   0.0000
    48 H21      1.6834  -0.4536   4.8525   H         1 RES1   0.0000
    49 C16      0.0453   0.6680   5.3810   C.3       1 RES1   0.0000
    50 H22     -0.2909   0.4758   4.4920   H         1 RES1   0.0000
    51 H23     -0.5346   0.2465   6.0368   H         1 RES1   0.0000
    52 C17      1.5486   2.4429   6.0898   C.3       1 RES1   0.0000
    53 H24      1.6054   2.2975   7.0561   H         1 RES1   0.0000
    54 C18      1.9900   3.8480   5.7718   C.ar      1 RES1   0.0000
    55 C19      2.6330   4.5925   6.7047   C.ar      1 RES1   0.0000
    56 H25      2.7648   4.2474   7.5574   H         1 RES1   0.0000
    57 C20      3.0977   5.8669   6.4033   C.ar      1 RES1   0.0000
    58 C21      2.8709   6.3895   5.1660   C.ar      1 RES1   0.0000
    59 H26      3.1555   7.2548   4.9812   H         1 RES1   0.0000
    60 C22      2.2229   5.6599   4.1664   C.ar      1 RES1   0.0000
    61 C23      1.7500   4.3583   4.4647   C.ar      1 RES1   0.0000
    62 C24      1.9250   6.2885   2.8988   C.2       1 RES1   0.0000
    63 H27      2.0375   7.2104   2.8291   H         1 RES1   0.0000
    64 Cl4      1.8739  10.6579   2.5538   Cl        2 RES2   0.0000
    65 O3       0.7273   9.8752   2.7564   O.3       2 RES2  -1.0000
    66 O4       1.9124  11.5761   3.5818   O.2       2 RES2   0.0000
    67 O5       1.7264  11.3641   1.3434   O.2       2 RES2   0.0000
    68 O6       2.8977   9.8308   2.5247   O.2       2 RES2   0.0000
    69 Cl5      5.9785   7.3928  11.8028   Cl        3 RES3   0.0000
    70 O7       4.8949   6.9836  12.5719   O.3       3 RES3  -1.0000
    71 O8       7.0181   6.5153  11.7828   O.2       3 RES3   0.0000
    72 O9       5.5811   7.6246  10.4970   O.2       3 RES3   0.0000
    73 O10      6.3388   8.6747  12.2008   O.2       3 RES3   0.0000
    74 O11     -0.6278  22.0626   7.5513   O.3       4 RES4   0.0000
    75 H28     -0.3374  21.3009   8.4948   H         4 RES4   0.0000
    76 H29      0.4282  21.8112   6.7123   H         4 RES4   0.0000
    77 C25      2.1166  21.0692   5.4673   C.1       5 RES5   0.0000
    78 C26      2.7099  20.6847   4.2785   C.3       5 RES5   0.0000
    79 H30      2.0450  20.6501   3.5863   H         5 RES5   0.0000
    80 H31      3.1078  19.8169   4.3845   H         5 RES5   0.0000
    81 H32      3.3875  21.3206   4.0392   H         5 RES5   0.0000
    82 N7       1.9518  21.3453   6.5457   N.1       5 RES5   0.0000
@<TRIPOS>BOND
     1     1     2    1
     2     3    57    1
     3     4    33    1
     4     5     1    1
     5     6     1    1
     6     7     1    1
     7     8     1    1
     8     9     8    1
     9    10     1    1
    10    11    38    2
    11    12    43    1
    12    13    14    1
    13    15    13    1
    14    16     7    1
    15    17    16    1
    16    18    16    1
    17    19     8    1
    18    20    19    1
    19    21    19    1
    20    22     8    1
    21    23    22    1
    22    24    22    1
    23    25    10    1
    24    26    25    1
    25    27    25    1
    26    28    10    2
    27    29    28    1
    28    30    28    1
    29    31    30   ar
    30    32    31    1
    31    33    31   ar
    32    34    33   ar
    33    35    34    1
    34    36    34   ar
    35    37     6    1
    36    38    36    1
    37    39    38    1
    38    40    11    1
    39    41    40    1
    40    42    40    1
    41    43    40    1
    42    44    43    1
    43    45    43    1
    44    46    12    1
    45    47    46    1
    46    48    46    1
    47    49    13    1
    48    50    49    1
    49    51    49    1
    50    52    12    1
    51    53    52    1
    52    54    52    1
    53    55    54   ar
    54    56    55    1
    55    57    55   ar
    56    58    57   ar
    57    59    58    1
    58    60    58   ar
    59    61     5    1
    60    62     7    2
    61    63    62    1
    62    13    52    1
    63    16    19    1
    64    22    25    1
    65    30    37   ar
    66    36    37   ar
    67    46    49    1
    68    54    61   ar
    69    60    62    1
    70    60    61   ar
    71    64    65    1
    72    66    64    2
    73    67    64    2
    74    68    64    2
    75    69    70    1
    76    71    69    2
    77    72    69    2
    78    73    69    2
    79    74    75    1
    80    76    74    1
    81    77    78    1
    82    78    79    1
    83    80    78    1
    84    81    78    1
    85    82    77    3
@<TRIPOS>SUBSTRUCTURE
     1 RES1        1 GROUP             0 ****  ****    0  
     2 RES2       64 GROUP             0 ****  ****    0  
     3 RES3       69 GROUP             0 ****  ****    0  
     4 RES4       74 GROUP             0 ****  ****    0  
     5 RES5       77 GROUP             0 ****  ****    0  
@<TRIPOS>CRYSIN
    9.5890   24.6510   15.3250   90.0000   98.7900   90.0000    14     1
