@<TRIPOS>MOLECULE
LAWZOB
    82    91     3     0     0
SMALL
USER_CHARGES
****
Generated from the CSD

@<TRIPOS>ATOM
     1 C1      10.0960   6.5721   9.3700   C.ar      1 RES1   0.0000
     2 C2       9.6802   7.6923   8.6166   C.ar      1 RES1   0.0000
     3 H1       9.0192   8.2543   8.9538   H         1 RES1   0.0000
     4 C3      10.2407   7.9574   7.3970   C.ar      1 RES1   0.0000
     5 H2       9.9644   8.7105   6.9268   H         1 RES1   0.0000
     6 C4      11.2055   7.1341   6.8478   C.ar      1 RES1   0.0000
     7 H3      11.5787   7.3329   6.0193   H         1 RES1   0.0000
     8 C5      11.6123   6.0088   7.5453   C.ar      1 RES1   0.0000
     9 H4      12.2479   5.4340   7.1870   H         1 RES1   0.0000
    10 C6      11.0514   5.7501   8.7920   C.ar      1 RES1   0.0000
    11 C7      12.6628   2.7272  11.2506   C.ar      1 RES1   0.0000
    12 C8      13.4743   1.7523  11.9095   C.ar      1 RES1   0.0000
    13 H5      13.5238   1.7510  12.8383   H         1 RES1   0.0000
    14 C9      14.1722   0.8296  11.1966   C.ar      1 RES1   0.0000
    15 H6      14.6743   0.2014  11.6629   H         1 RES1   0.0000
    16 C10     14.1702   0.7736   9.7920   C.ar      1 RES1   0.0000
    17 C11     14.8914  -0.2039   9.0771   C.ar      1 RES1   0.0000
    18 H7      15.3946  -0.8335   9.5415   H         1 RES1   0.0000
    19 C12     14.8605  -0.2421   7.7361   C.ar      1 RES1   0.0000
    20 H8      15.3658  -0.8768   7.2775   H         1 RES1   0.0000
    21 C13     14.0760   0.6703   7.0251   C.ar      1 RES1   0.0000
    22 H9      14.0281   0.6143   6.0983   H         1 RES1   0.0000
    23 C14     13.3767   1.6503   7.6918   C.ar      1 RES1   0.0000
    24 H10     12.8769   2.2646   7.2043   H         1 RES1   0.0000
    25 C15     13.4005   1.7434   9.0926   C.ar      1 RES1   0.0000
    26 C16     12.6840   2.7476   9.8440   C.ar      1 RES1   0.0000
    27 C17      8.3796   2.6788  11.5492   C.ar      1 RES1   0.0000
    28 C18      7.4737   1.6860  11.1157   C.ar      1 RES1   0.0000
    29 H11      7.4251   1.4707  10.2120   H         1 RES1   0.0000
    30 C19      6.6665   1.0386  12.0117   C.ar      1 RES1   0.0000
    31 H12      6.0749   0.3912  11.7014   H         1 RES1   0.0000
    32 C20      6.6985   1.3177  13.3643   C.ar      1 RES1   0.0000
    33 H13      6.1330   0.8742  13.9539   H         1 RES1   0.0000
    34 C21      7.5915   2.2697  13.8229   C.ar      1 RES1   0.0000
    35 H14      7.6420   2.4532  14.7323   H         1 RES1   0.0000
    36 C22      8.4059   2.9502  12.9462   C.ar      1 RES1   0.0000
    37 C23     11.2723   5.8393  14.1022   C.ar      1 RES1   0.0000
    38 C24     12.2306   6.7339  14.6899   C.ar      1 RES1   0.0000
    39 H15     12.6202   7.3979  14.1697   H         1 RES1   0.0000
    40 C25     12.5744   6.6180  15.9982   C.ar      1 RES1   0.0000
    41 H16     13.1989   7.2080  16.3527   H         1 RES1   0.0000
    42 C26     12.0147   5.6341  16.8383   C.ar      1 RES1   0.0000
    43 C27     12.3888   5.5475  18.2082   C.ar      1 RES1   0.0000
    44 H17     13.0288   6.1299  18.5512   H         1 RES1   0.0000
    45 C28     11.8129   4.6108  19.0214   C.ar      1 RES1   0.0000
    46 H18     12.0633   4.5585  19.9154   H         1 RES1   0.0000
    47 C29     10.8544   3.7276  18.5088   C.ar      1 RES1   0.0000
    48 H19     10.4706   3.0853  19.0637   H         1 RES1   0.0000
    49 C30     10.4714   3.8092  17.1793   C.ar      1 RES1   0.0000
    50 H20      9.8181   3.2306  16.8576   H         1 RES1   0.0000
    51 C31     11.0453   4.7420  16.3123   C.ar      1 RES1   0.0000
    52 C32     10.6805   4.8618  14.9231   C.ar      1 RES1   0.0000
    53 Fe1     10.4444   4.6578  11.5036   Fe        1 RES1   0.0000
    54 N1      11.4398   4.6528   9.6244   N.2       1 RES1   0.0000
    55 N2      12.1658   3.7569   9.0560   N.2       1 RES1   0.0000
    56 N3       9.4140   3.8997  13.2564   N.2       1 RES1   0.0000
    57 N4       9.6954   3.9800  14.5146   N.2       1 RES1   0.0000
    58 O1       9.6037   6.2484  10.5646   O.3       1 RES1   0.0000
    59 O2      11.9776   3.5518  11.9828   O.3       1 RES1   0.0000
    60 O3       9.1833   3.3313  10.7438   O.3       1 RES1  -1.0000
    61 O4      10.9794   6.0177  12.8325   O.3       1 RES1   0.0000
    62 C33      7.5435   8.8163  11.3431   C.3       2 RES2   0.0000
    63 H21      6.9827   8.1982  10.8517   H         2 RES2   0.0000
    64 H22      8.0312   9.3579  10.7014   H         2 RES2   0.0000
    65 C34      6.6783   9.7122  12.2217   C.3       2 RES2   0.0000
    66 H23      6.6928  10.6170  11.8729   H         2 RES2   0.0000
    67 H24      5.7621   9.3962  12.2005   H         2 RES2   0.0000
    68 C35      7.7642   7.3482  13.2525   C.3       2 RES2   0.0000
    69 H25      8.3814   6.8448  13.8036   H         2 RES2   0.0000
    70 H26      7.1332   6.7263  12.8556   H         2 RES2   0.0000
    71 C36      7.0071   8.3792  14.1215   C.3       2 RES2   0.0000
    72 H27      6.0631   8.1485  14.1446   H         2 RES2   0.0000
    73 H28      7.3456   8.3448  15.0290   H         2 RES2   0.0000
    74 C37      9.4044   9.0355  12.8228   C.3       2 RES2   0.0000
    75 H29      9.9261   9.4917  12.1446   H         2 RES2   0.0000
    76 H30     10.0174   8.5780  13.4202   H         2 RES2   0.0000
    77 C38      8.5806  10.0486  13.6090   C.3       2 RES2   0.0000
    78 H31      8.8993  10.0767  14.5261   H         2 RES2   0.0000
    79 H32      8.7063  10.9293  13.2236   H         2 RES2   0.0000
    80 N5       8.5079   8.0555  12.1851   N.3       2 RES2   0.0000
    81 N6       7.1598   9.7186  13.6051   N.3       2 RES2   1.0000
    82 O5       4.7319  11.3549  14.4510   O.3       3 RES3   0.0000
@<TRIPOS>BOND
     1     1     2   ar
     2     2     3    1
     3     4     2   ar
     4     5     4    1
     5     6     4   ar
     6     7     6    1
     7     8     6   ar
     8     9     8    1
     9    10     1   ar
    10    11    12   ar
    11    12    13    1
    12    14    12   ar
    13    15    14    1
    14    16    14   ar
    15    17    16   ar
    16    18    17    1
    17    19    17   ar
    18    20    19    1
    19    21    19   ar
    20    22    21    1
    21    23    21   ar
    22    24    23    1
    23    25    16   ar
    24    26    11   ar
    25    27    28   ar
    26    28    29    1
    27    30    28   ar
    28    31    30    1
    29    32    30   ar
    30    33    32    1
    31    34    32   ar
    32    35    34    1
    33    36    27   ar
    34    37    38   ar
    35    38    39    1
    36    40    38   ar
    37    41    40    1
    38    42    40   ar
    39    43    42   ar
    40    44    43    1
    41    45    43   ar
    42    46    45    1
    43    47    45   ar
    44    48    47    1
    45    49    47   ar
    46    50    49    1
    47    51    42   ar
    48    52    37   ar
    49    53    54    1
    50    54    10    1
    51    55    26    1
    52    56    36    1
    53    57    52    1
    54    58     1    1
    55    59    11    1
    56    60    27    1
    57    61    37    1
    58     8    10   ar
    59    23    25   ar
    60    25    26   ar
    61    34    36   ar
    62    49    51   ar
    63    51    52   ar
    64    53    56    1
    65    53    58    1
    66    53    59    1
    67    53    60    1
    68    53    61    1
    69    54    55    2
    70    56    57    2
    71    62    63    1
    72    64    62    1
    73    65    62    1
    74    66    65    1
    75    67    65    1
    76    68    69    1
    77    70    68    1
    78    71    68    1
    79    72    71    1
    80    73    71    1
    81    74    75    1
    82    76    74    1
    83    77    74    1
    84    78    77    1
    85    79    77    1
    86    80    62    1
    87    81    65    1
    88    68    80    1
    89    71    81    1
    90    74    80    1
    91    77    81    1
@<TRIPOS>SUBSTRUCTURE
     1 RES1        1 GROUP             0 ****  ****    0  
     2 RES2       62 GROUP             0 ****  ****    0  
     3 RES3       82 GROUP             0 ****  ****    0  
@<TRIPOS>CRYSIN
   27.5820   12.7440   22.7410   90.0000  122.0830   90.0000    15     1
