@<TRIPOS>MOLECULE
LAWZUH
    82    91     3     0     0
SMALL
USER_CHARGES
****
Generated from the CSD

@<TRIPOS>ATOM
     1 C1      10.1585   6.5439   9.3155   C.ar      1 RES1   0.0000
     2 C2       9.7536   7.6417   8.5630   C.ar      1 RES1   0.0000
     3 H1       9.0968   8.2071   8.8970   H         1 RES1   0.0000
     4 C3      10.3146   7.9028   7.3288   C.ar      1 RES1   0.0000
     5 H2      10.0555   8.6609   6.8566   H         1 RES1   0.0000
     6 C4      11.2512   7.0535   6.7951   C.ar      1 RES1   0.0000
     7 H3      11.6098   7.2259   5.9544   H         1 RES1   0.0000
     8 C5      11.6575   5.9531   7.4996   C.ar      1 RES1   0.0000
     9 H4      12.2984   5.3839   7.1426   H         1 RES1   0.0000
    10 C6      11.1155   5.6856   8.7396   C.ar      1 RES1   0.0000
    11 C7      12.7226   2.7218  11.2331   C.ar      1 RES1   0.0000
    12 C8      13.5236   1.7596  11.8992   C.ar      1 RES1   0.0000
    13 H5      13.5510   1.7608  12.8282   H         1 RES1   0.0000
    14 C9      14.2464   0.8456  11.2254   C.ar      1 RES1   0.0000
    15 H6      14.7659   0.2409  11.7053   H         1 RES1   0.0000
    16 C10     14.2394   0.7733   9.8222   C.ar      1 RES1   0.0000
    17 C11     14.9828  -0.1990   9.1255   C.ar      1 RES1   0.0000
    18 H7      15.4960  -0.8139   9.5977   H         1 RES1   0.0000
    19 C12     14.9534  -0.2459   7.7933   C.ar      1 RES1   0.0000
    20 H8      15.4717  -0.8785   7.3499   H         1 RES1   0.0000
    21 C13     14.1652   0.6364   7.0504   C.ar      1 RES1   0.0000
    22 H9      14.1305   0.5705   6.1233   H         1 RES1   0.0000
    23 C14     13.4321   1.6087   7.7088   C.ar      1 RES1   0.0000
    24 H10     12.9088   2.1995   7.2174   H         1 RES1   0.0000
    25 C15     13.4692   1.7139   9.0947   C.ar      1 RES1   0.0000
    26 C16     12.7327   2.7243   9.8203   C.ar      1 RES1   0.0000
    27 C17      8.4096   2.6888  11.5402   C.ar      1 RES1   0.0000
    28 C18      7.5061   1.6924  11.1218   C.ar      1 RES1   0.0000
    29 H11      7.4545   1.4680  10.2215   H         1 RES1   0.0000
    30 C19      6.6954   1.0446  12.0316   C.ar      1 RES1   0.0000
    31 H12      6.1062   0.3866  11.7379   H         1 RES1   0.0000
    32 C20      6.7485   1.3615  13.3657   C.ar      1 RES1   0.0000
    33 H13      6.1794   0.9330  13.9608   H         1 RES1   0.0000
    34 C21      7.6337   2.3034  13.8341   C.ar      1 RES1   0.0000
    35 H14      7.6837   2.4961  14.7420   H         1 RES1   0.0000
    36 C22      8.4506   2.9588  12.9300   C.ar      1 RES1   0.0000
    37 C23     11.3400   5.8416  14.0471   C.ar      1 RES1   0.0000
    38 C24     12.2942   6.7201  14.6172   C.ar      1 RES1   0.0000
    39 H15     12.6847   7.3805  14.0913   H         1 RES1   0.0000
    40 C25     12.6486   6.6098  15.9244   C.ar      1 RES1   0.0000
    41 H16     13.2759   7.2005  16.2719   H         1 RES1   0.0000
    42 C26     12.0972   5.6324  16.7671   C.ar      1 RES1   0.0000
    43 C27     12.4646   5.5437  18.1434   C.ar      1 RES1   0.0000
    44 H17     13.0935   6.1331  18.4928   H         1 RES1   0.0000
    45 C28     11.9063   4.6056  18.9458   C.ar      1 RES1   0.0000
    46 H18     12.1695   4.5460  19.8345   H         1 RES1   0.0000
    47 C29     10.9513   3.7423  18.4601   C.ar      1 RES1   0.0000
    48 H19     10.5672   3.1097  19.0245   H         1 RES1   0.0000
    49 C30     10.5605   3.8145  17.1318   C.ar      1 RES1   0.0000
    50 H20      9.9096   3.2301  16.8132   H         1 RES1   0.0000
    51 C31     11.1310   4.7577  16.2623   C.ar      1 RES1   0.0000
    52 C32     10.7542   4.8553  14.8706   C.ar      1 RES1   0.0000
    53 Fe1     10.4912   4.6438  11.4671   Fe        1 RES1   0.0000
    54 N1      11.4741   4.6170   9.5898   N.2       1 RES1   0.0000
    55 N2      12.2063   3.7207   9.0404   N.2       1 RES1   0.0000
    56 N3       9.4669   3.9096  13.2223   N.2       1 RES1   0.0000
    57 N4       9.7721   3.9907  14.4775   N.2       1 RES1   0.0000
    58 O1       9.6678   6.2307  10.5208   O.3       1 RES1   0.0000
    59 O2      12.0294   3.5432  11.9485   O.3       1 RES1   0.0000
    60 O3       9.2260   3.3150  10.7225   O.3       1 RES1  -1.0000
    61 O4      11.0217   6.0114  12.7814   O.3       1 RES1   0.0000
    62 C33      7.6036   8.7623  11.2657   C.3       2 RES2   0.0000
    63 H21      7.0555   8.1310  10.7743   H         2 RES2   0.0000
    64 H22      8.0939   9.3011  10.6246   H         2 RES2   0.0000
    65 C34      6.7072   9.6637  12.1142   C.3       2 RES2   0.0000
    66 H23      6.7239  10.5663  11.7571   H         2 RES2   0.0000
    67 H24      5.7954   9.3404  12.0796   H         2 RES2   0.0000
    68 C35      7.7960   7.3222  13.1795   C.3       2 RES2   0.0000
    69 H25      8.4011   6.8037  13.7343   H         2 RES2   0.0000
    70 H26      7.1602   6.7137  12.7707   H         2 RES2   0.0000
    71 C36      7.0537   8.3516  14.0375   C.3       2 RES2   0.0000
    72 H27      6.1157   8.1082  14.0932   H         2 RES2   0.0000
    73 H28      7.4186   8.3415  14.9359   H         2 RES2   0.0000
    74 C37      9.4426   9.0298  12.7822   C.3       2 RES2   0.0000
    75 H29      9.9702   9.4925  12.1123   H         2 RES2   0.0000
    76 H30     10.0490   8.5874  13.3964   H         2 RES2   0.0000
    77 C38      8.5640  10.0288  13.5404   C.3       2 RES2   0.0000
    78 H31      8.8513  10.0681  14.4656   H         2 RES2   0.0000
    79 H32      8.6816  10.9111  13.1546   H         2 RES2   0.0000
    80 N5       8.5572   8.0283  12.1303   N.3       2 RES2   0.0000
    81 N6       7.1678   9.6776  13.4943   N.3       2 RES2   1.0000
    82 O5       4.7849  11.3497  14.3965   O.3       3 RES3   0.0000
@<TRIPOS>BOND
     1     1     2   ar
     2     2     3    1
     3     4     2   ar
     4     5     4    1
     5     6     4   ar
     6     7     6    1
     7     8     6   ar
     8     9     8    1
     9    10     1   ar
    10    11    12   ar
    11    12    13    1
    12    14    12   ar
    13    15    14    1
    14    16    14   ar
    15    17    16   ar
    16    18    17    1
    17    19    17   ar
    18    20    19    1
    19    21    19   ar
    20    22    21    1
    21    23    21   ar
    22    24    23    1
    23    25    16   ar
    24    26    11   ar
    25    27    28   ar
    26    28    29    1
    27    30    28   ar
    28    31    30    1
    29    32    30   ar
    30    33    32    1
    31    34    32   ar
    32    35    34    1
    33    36    27   ar
    34    37    38   ar
    35    38    39    1
    36    40    38   ar
    37    41    40    1
    38    42    40   ar
    39    43    42   ar
    40    44    43    1
    41    45    43   ar
    42    46    45    1
    43    47    45   ar
    44    48    47    1
    45    49    47   ar
    46    50    49    1
    47    51    42   ar
    48    52    37   ar
    49    53    54    1
    50    54    10    1
    51    55    26    1
    52    56    36    1
    53    57    52    1
    54    58     1    1
    55    59    11    1
    56    60    27    1
    57    61    37    1
    58     8    10   ar
    59    23    25   ar
    60    25    26   ar
    61    34    36   ar
    62    49    51   ar
    63    51    52   ar
    64    53    56    1
    65    53    58    1
    66    53    59    1
    67    53    60    1
    68    53    61    1
    69    54    55    2
    70    56    57    2
    71    62    63    1
    72    64    62    1
    73    65    62    1
    74    66    65    1
    75    67    65    1
    76    68    69    1
    77    70    68    1
    78    71    68    1
    79    72    71    1
    80    73    71    1
    81    74    75    1
    82    76    74    1
    83    77    74    1
    84    78    77    1
    85    79    77    1
    86    80    62    1
    87    81    65    1
    88    68    80    1
    89    71    81    1
    90    74    80    1
    91    77    81    1
@<TRIPOS>SUBSTRUCTURE
     1 RES1        1 GROUP             0 ****  ****    0  
     2 RES2       62 GROUP             0 ****  ****    0  
     3 RES3       82 GROUP             0 ****  ****    0  
@<TRIPOS>CRYSIN
   27.6190   12.6770   22.6550   90.0000  122.0820   90.0000    15     1
