@<TRIPOS>MOLECULE
LAXDAS
    81    88     1     0     0
SMALL
NO_CHARGES
****
Generated from the CSD

@<TRIPOS>ATOM
     1 Sb1      5.2627  13.4010   2.0024   Sb        1 RES1   0.0000
     2 Fe1      5.0247  12.1506   5.5259   Fe        1 RES1   0.0000
     3 O1       3.4849  11.1596   7.7542   O.3       1 RES1   0.0000
     4 O2       4.4155  11.5912   2.7268   O.3       1 RES1   0.0000
     5 O3       5.3660  12.5614   8.3576   O.3       1 RES1   0.0000
     6 O4       4.2401  14.2484   3.6667   O.3       1 RES1   0.0000
     7 O5       5.7567  10.2886   7.5770   O.3       1 RES1   0.0000
     8 O6       6.8133  12.9835   3.3982   O.3       1 RES1   0.0000
     9 N1       3.5311  11.3596   6.4025   N.2       1 RES1   0.0000
    10 N2       4.0657  11.4620   4.0374   N.2       1 RES1   0.0000
    11 N3       5.2620  13.1474   7.1276   N.2       1 RES1   0.0000
    12 N4       4.5961  13.9081   4.9308   N.2       1 RES1   0.0000
    13 N5       6.0539  10.8036   6.3559   N.2       1 RES1   0.0000
    14 N6       6.6169  12.1834   4.4527   N.2       1 RES1   0.0000
    15 C1       1.4400  10.0775   6.2467   C.3       1 RES1   0.0000
    16 H1       1.6143   9.1135   6.2216   H         1 RES1   0.0000
    17 H2       0.6375  10.2791   5.7221   H         1 RES1   0.0000
    18 H3       1.3024  10.3610   7.1759   H         1 RES1   0.0000
    19 C2       2.6215  10.8194   5.6648   C.2       1 RES1   0.0000
    20 C3       2.8904  10.9469   4.2683   C.2       1 RES1   0.0000
    21 C4       1.9788  10.4776   3.1690   C.3       1 RES1   0.0000
    22 H4       1.3013  11.1643   2.9935   H         1 RES1   0.0000
    23 H5       1.5387   9.6475   3.4429   H         1 RES1   0.0000
    24 H6       2.5018  10.3185   2.3562   H         1 RES1   0.0000
    25 C5       5.0551  15.2911   8.3092   C.3       1 RES1   0.0000
    26 H7       4.1308  15.5132   8.5456   H         1 RES1   0.0000
    27 H8       5.5477  16.1148   8.1123   H         1 RES1   0.0000
    28 H9       5.4826  14.8264   9.0594   H         1 RES1   0.0000
    29 C6       5.0635  14.4153   7.1186   C.2       1 RES1   0.0000
    30 C7       4.7610  14.8768   5.7526   C.2       1 RES1   0.0000
    31 C8       4.5940  16.3102   5.3963   C.3       1 RES1   0.0000
    32 H10      5.0152  16.4818   4.5279   H         1 RES1   0.0000
    33 H11      5.0183  16.8677   6.0820   H         1 RES1   0.0000
    34 H12      3.6393  16.5259   5.3461   H         1 RES1   0.0000
    35 C9       8.2060   9.6790   6.6048   C.3       1 RES1   0.0000
    36 H13      8.5852  10.1625   7.3693   H         1 RES1   0.0000
    37 H14      8.9276   9.4128   5.9978   H         1 RES1   0.0000
    38 H15      7.7376   8.8788   6.9253   H         1 RES1   0.0000
    39 C10      7.2597  10.5500   5.8940   C.2       1 RES1   0.0000
    40 C11      7.5254  11.3013   4.7088   C.2       1 RES1   0.0000
    41 C12      8.7458  11.1265   3.8691   C.3       1 RES1   0.0000
    42 H16      8.5673  11.4478   2.9613   H         1 RES1   0.0000
    43 H17      8.9874  10.1767   3.8386   H         1 RES1   0.0000
    44 H18      9.4853  11.6400   4.2576   H         1 RES1   0.0000
    45 C13      4.8062  10.5957   9.8329   C.ar      1 RES1   0.0000
    46 C14      5.9731  10.3673  10.5150   C.ar      1 RES1   0.0000
    47 H19      6.7996  10.5579  10.0889   H         1 RES1   0.0000
    48 C15      5.9888   9.8743  11.7844   C.ar      1 RES1   0.0000
    49 H20      6.8164   9.7499  12.2338   H         1 RES1   0.0000
    50 C16      4.8072   9.5546  12.4218   C.ar      1 RES1   0.0000
    51 C17      3.6057   9.7483  11.7468   C.ar      1 RES1   0.0000
    52 H21      2.7833   9.5199  12.1658   H         1 RES1   0.0000
    53 C18      3.6078  10.2681  10.4703   C.ar      1 RES1   0.0000
    54 H22      2.7833  10.4067  10.0191   H         1 RES1   0.0000
    55 C19      4.7316   9.0584  13.8219   C.2       1 RES1   0.0000
    56 H23      3.8735   8.8111  14.1460   H         1 RES1   0.0000
    57 C20      5.7420   8.9308  14.6562   C.2       1 RES1   0.0000
    58 H24      6.6200   9.1671  14.3787   H         1 RES1   0.0000
    59 H25      5.5939   8.6032  15.5353   H         1 RES1   0.0000
    60 C21      6.1968  12.0527   0.6177   C.3       1 RES1   0.0000
    61 H26      6.7660  12.5787   0.0018   H         1 RES1   0.0000
    62 H27      6.7891  11.4431   1.1244   H         1 RES1   0.0000
    63 C22      5.2368  11.2194  -0.2077   C.3       1 RES1   0.0000
    64 H28      5.7441  10.6619  -0.8343   H         1 RES1   0.0000
    65 H29      4.6371  11.8117  -0.7072   H         1 RES1   0.0000
    66 H30      4.7095  10.6461   0.3867   H         1 RES1   0.0000
    67 C23      6.3323  15.2249   1.7814   C.3       1 RES1   0.0000
    68 H31      5.6790  15.9495   1.6096   H         1 RES1   0.0000
    69 H32      6.7797  15.4281   2.6408   H         1 RES1   0.0000
    70 C24      7.3668  15.2548   0.6929   C.3       1 RES1   0.0000
    71 H33      6.9645  14.9508  -0.1468   H         1 RES1   0.0000
    72 H34      8.1094  14.6610   0.9328   H         1 RES1   0.0000
    73 H35      7.6997  16.1684   0.5837   H         1 RES1   0.0000
    74 C25      3.4859  13.8388   0.9149   C.3       1 RES1   0.0000
    75 H36      3.0207  12.9914   0.6965   H         1 RES1   0.0000
    76 H37      2.8810  14.3807   1.4825   H         1 RES1   0.0000
    77 C26      3.7821  14.5949  -0.3688   C.3       1 RES1   0.0000
    78 H38      2.9671  14.6500  -0.9095   H         1 RES1   0.0000
    79 H39      4.4785  14.1239  -0.8719   H         1 RES1   0.0000
    80 H40      4.0909  15.4990  -0.1504   H         1 RES1   0.0000
    81 B1       4.8492  11.1942   8.3468   B         1 RES1   0.0000
@<TRIPOS>BOND
     1     1     4    1
     2     2     9    1
     3     3     9    1
     4     4    10    1
     5     5    11    1
     6     6     1    1
     7     7    13    1
     8     8     1    1
     9     9    19    2
    10    10     2    1
    11    11     2    1
    12    12     2    1
    13    13     2    1
    14    14     2    1
    15    15    16    1
    16    17    15    1
    17    18    15    1
    18    19    15    1
    19    20    10    2
    20    21    20    1
    21    22    21    1
    22    23    21    1
    23    24    21    1
    24    25    26    1
    25    27    25    1
    26    28    25    1
    27    29    11    2
    28    30    12    2
    29    31    30    1
    30    32    31    1
    31    33    31    1
    32    34    31    1
    33    35    36    1
    34    37    35    1
    35    38    35    1
    36    39    13    2
    37    40    14    2
    38    41    40    1
    39    42    41    1
    40    43    41    1
    41    44    41    1
    42    45    46   ar
    43    46    47    1
    44    48    46   ar
    45    49    48    1
    46    50    48   ar
    47    51    50   ar
    48    52    51    1
    49    53    45   ar
    50    54    53    1
    51    55    50    1
    52    56    55    1
    53    57    55    2
    54    58    57    1
    55    59    57    1
    56    60     1    1
    57    61    60    1
    58    62    60    1
    59    63    60    1
    60    64    63    1
    61    65    63    1
    62    66    63    1
    63    67     1    1
    64    68    67    1
    65    69    67    1
    66    70    67    1
    67    71    70    1
    68    72    70    1
    69    73    70    1
    70    74     1    1
    71    75    74    1
    72    76    74    1
    73    77    74    1
    74    78    77    1
    75    79    77    1
    76    80    77    1
    77    81     3    1
    78     5    81    1
    79     6    12    1
    80     7    81    1
    81     8    14    1
    82    19    20    1
    83    25    29    1
    84    29    30    1
    85    35    39    1
    86    39    40    1
    87    45    81    1
    88    51    53   ar
@<TRIPOS>SUBSTRUCTURE
     1 RES1        1 GROUP             0 ****  ****    0  
@<TRIPOS>CRYSIN
   10.5030   15.7510   17.9040   90.0000   90.0000   90.0000    19     1
