@<TRIPOS>MOLECULE
LAXFOI
    82    91     3     0     0
SMALL
USER_CHARGES
****
Generated from the CSD

@<TRIPOS>ATOM
     1 C1      10.0070   6.5396   9.1693   C.ar      1 RES1   0.0000
     2 C2       9.6196   7.6573   8.4177   C.ar      1 RES1   0.0000
     3 H1       8.9632   8.2497   8.7688   H         1 RES1   0.0000
     4 C3      10.1722   7.9135   7.1764   C.ar      1 RES1   0.0000
     5 H2       9.9164   8.6912   6.6962   H         1 RES1   0.0000
     6 C4      11.1050   7.0369   6.6279   C.ar      1 RES1   0.0000
     7 H3      11.4742   7.2082   5.7681   H         1 RES1   0.0000
     8 C5      11.4898   5.9155   7.3396   C.ar      1 RES1   0.0000
     9 H4      12.1191   5.3104   6.9619   H         1 RES1   0.0000
    10 C6      10.9636   5.6681   8.5999   C.ar      1 RES1   0.0000
    11 C7      12.6204   2.7554  11.1186   C.ar      1 RES1   0.0000
    12 C8      13.4630   1.8217  11.8113   C.ar      1 RES1   0.0000
    13 H5      13.5302   1.8699  12.7565   H         1 RES1   0.0000
    14 C9      14.1628   0.8791  11.1470   C.ar      1 RES1   0.0000
    15 H6      14.6984   0.2689  11.6405   H         1 RES1   0.0000
    16 C10     14.1240   0.7726   9.7235   C.ar      1 RES1   0.0000
    17 C11     14.8661  -0.2220   9.0478   C.ar      1 RES1   0.0000
    18 H7      15.4126  -0.8221   9.5413   H         1 RES1   0.0000
    19 C12     14.8007  -0.3210   7.6851   C.ar      1 RES1   0.0000
    20 H8      15.3180  -0.9794   7.2333   H         1 RES1   0.0000
    21 C13     13.9762   0.5468   6.9505   C.ar      1 RES1   0.0000
    22 H9      13.9133   0.4542   6.0072   H         1 RES1   0.0000
    23 C14     13.2481   1.5413   7.6034   C.ar      1 RES1   0.0000
    24 H10     12.6912   2.1236   7.1005   H         1 RES1   0.0000
    25 C15     13.3324   1.6872   8.9928   C.ar      1 RES1   0.0000
    26 C16     12.5933   2.7161   9.7121   C.ar      1 RES1   0.0000
    27 C17      8.3035   2.6717  11.4545   C.ar      1 RES1   0.0000
    28 C18      7.4122   1.6606  11.0313   C.ar      1 RES1   0.0000
    29 H11      7.3613   1.4221  10.1126   H         1 RES1   0.0000
    30 C19      6.6178   1.0174  11.9594   C.ar      1 RES1   0.0000
    31 H12      6.0162   0.3451  11.6614   H         1 RES1   0.0000
    32 C20      6.6639   1.3206  13.3051   C.ar      1 RES1   0.0000
    33 H13      6.1062   0.8626  13.9238   H         1 RES1   0.0000
    34 C21      7.5497   2.3165  13.7416   C.ar      1 RES1   0.0000
    35 H14      7.6022   2.5385  14.6622   H         1 RES1   0.0000
    36 C22      8.3507   2.9736  12.8230   C.ar      1 RES1   0.0000
    37 C23     11.2185   5.9066  13.9029   C.ar      1 RES1   0.0000
    38 C24     12.1874   6.7984  14.4780   C.ar      1 RES1   0.0000
    39 H15     12.5710   7.4797  13.9390   H         1 RES1   0.0000
    40 C25     12.5619   6.6855  15.7801   C.ar      1 RES1   0.0000
    41 H16     13.2103   7.2868  16.1255   H         1 RES1   0.0000
    42 C26     12.0199   5.7011  16.6380   C.ar      1 RES1   0.0000
    43 C27     12.4063   5.5971  18.0046   C.ar      1 RES1   0.0000
    44 H17     13.0602   6.1933  18.3500   H         1 RES1   0.0000
    45 C28     11.8539   4.6558  18.8264   C.ar      1 RES1   0.0000
    46 H18     12.1386   4.5847  19.7317   H         1 RES1   0.0000
    47 C29     10.8639   3.7944  18.3253   C.ar      1 RES1   0.0000
    48 H19     10.4701   3.1461  18.8985   H         1 RES1   0.0000
    49 C30     10.4561   3.8794  17.0157   C.ar      1 RES1   0.0000
    50 H20      9.7819   3.2907  16.6987   H         1 RES1   0.0000
    51 C31     11.0197   4.8219  16.1331   C.ar      1 RES1   0.0000
    52 C32     10.6411   4.9184  14.7514   C.ar      1 RES1   0.0000
    53 Fe1     10.3705   4.6676  11.3463   Fe        1 RES1   0.0000
    54 N1      11.3215   4.6101   9.4426   N.2       1 RES1   0.0000
    55 N2      12.0489   3.6916   8.9131   N.2       1 RES1   0.0000
    56 N3       9.3646   3.9390  13.1172   N.2       1 RES1   0.0000
    57 N4       9.6508   4.0291  14.3623   N.2       1 RES1   0.0000
    58 O1       9.5335   6.2402  10.3810   O.3       1 RES1   0.0000
    59 O2      11.9411   3.6066  11.8421   O.3       1 RES1   0.0000
    60 O3       9.1261   3.3060  10.6120   O.3       1 RES1  -1.0000
    61 O4      10.8909   6.0639  12.6487   O.3       1 RES1   0.0000
    62 C33      7.5817   8.8472  11.0825   C.3       2 RES2   0.0000
    63 H21      7.0544   8.2116  10.5359   H         2 RES2   0.0000
    64 H22      8.0982   9.4308  10.4732   H         2 RES2   0.0000
    65 C34      6.6400   9.6984  11.9499   C.3       2 RES2   0.0000
    66 H23      6.5908  10.6156  11.5798   H         2 RES2   0.0000
    67 H24      5.7295   9.3090  11.9328   H         2 RES2   0.0000
    68 C35      7.7249   7.3655  13.0204   C.3       2 RES2   0.0000
    69 H25      8.3201   6.7946  13.5670   H         2 RES2   0.0000
    70 H26      7.0448   6.7870  12.5895   H         2 RES2   0.0000
    71 C36      7.0307   8.4222  13.9181   C.3       2 RES2   0.0000
    72 H27      6.0764   8.1799  14.0339   H         2 RES2   0.0000
    73 H28      7.4555   8.4248  14.8121   H         2 RES2   0.0000
    74 C37      9.4339   9.0870  12.6408   C.3       2 RES2   0.0000
    75 H29     10.0185   9.5132  11.9651   H         2 RES2   0.0000
    76 H30     10.0059   8.6303  13.3089   H         2 RES2   0.0000
    77 C38      8.5489  10.1628  13.3411   C.3       2 RES2   0.0000
    78 H31      8.8540  10.2845  14.2750   H         2 RES2   0.0000
    79 H32      8.6486  11.0279  12.8704   H         2 RES2   0.0000
    80 N5       8.5163   8.0949  11.9803   N.3       2 RES2   0.0000
    81 N6       7.1231   9.7555  13.3335   N.3       2 RES2   1.0000
    82 O5       4.8169  11.3984  14.2351   O.3       3 RES3   0.0000
@<TRIPOS>BOND
     1     1     2   ar
     2     2     3    1
     3     4     2   ar
     4     5     4    1
     5     6     4   ar
     6     7     6    1
     7     8     6   ar
     8     9     8    1
     9    10     1   ar
    10    11    12   ar
    11    12    13    1
    12    14    12   ar
    13    15    14    1
    14    16    14   ar
    15    17    16   ar
    16    18    17    1
    17    19    17   ar
    18    20    19    1
    19    21    19   ar
    20    22    21    1
    21    23    21   ar
    22    24    23    1
    23    25    16   ar
    24    26    11   ar
    25    27    28   ar
    26    28    29    1
    27    30    28   ar
    28    31    30    1
    29    32    30   ar
    30    33    32    1
    31    34    32   ar
    32    35    34    1
    33    36    27   ar
    34    37    38   ar
    35    38    39    1
    36    40    38   ar
    37    41    40    1
    38    42    40   ar
    39    43    42   ar
    40    44    43    1
    41    45    43   ar
    42    46    45    1
    43    47    45   ar
    44    48    47    1
    45    49    47   ar
    46    50    49    1
    47    51    42   ar
    48    52    37   ar
    49    53    54    1
    50    54    10    1
    51    55    26    1
    52    56    36    1
    53    57    52    1
    54    58     1    1
    55    59    11    1
    56    60    27    1
    57    61    37    1
    58     8    10   ar
    59    23    25   ar
    60    25    26   ar
    61    34    36   ar
    62    49    51   ar
    63    51    52   ar
    64    53    56    1
    65    53    58    1
    66    53    59    1
    67    53    60    1
    68    53    61    1
    69    54    55    2
    70    56    57    2
    71    62    63    1
    72    64    62    1
    73    65    62    1
    74    66    65    1
    75    67    65    1
    76    68    69    1
    77    70    68    1
    78    71    68    1
    79    72    71    1
    80    73    71    1
    81    74    75    1
    82    76    74    1
    83    77    74    1
    84    78    77    1
    85    79    77    1
    86    80    62    1
    87    81    65    1
    88    68    80    1
    89    71    81    1
    90    74    80    1
    91    77    81    1
@<TRIPOS>SUBSTRUCTURE
     1 RES1        1 GROUP             0 ****  ****    0  
     2 RES2       62 GROUP             0 ****  ****    0  
     3 RES3       82 GROUP             0 ****  ****    0  
@<TRIPOS>CRYSIN
   27.1680   12.6860   22.2910   90.0000  121.6280   90.0000    15     1
