@<TRIPOS>MOLECULE
LECLUD05
    76    84     2     0     0
SMALL
USER_CHARGES
****
Generated from the CSD

@<TRIPOS>ATOM
     1 I1      -5.8447  -0.6105 -10.6868   I         1 RES1   0.0000
     2 I2     -16.5080  -4.0526  -6.0478   I         1 RES1   0.0000
     3 Fe1     -9.3681  -3.8194  -4.9620   Fe        1 RES1   1.0000
     4 O1      -9.1914  -3.7745  -6.8328   O.3       1 RES1   0.0000
     5 O2     -10.9346  -2.7034  -5.7223   O.3       1 RES1   0.0000
     6 N1      -8.1955  -2.1238  -4.9673   N.2       1 RES1   0.0000
     7 N2      -9.0972  -3.6541  -2.8203   N.ar      1 RES1   0.0000
     8 N3     -10.3907  -5.6351  -4.6105   N.2       1 RES1   0.0000
     9 N4      -7.9020  -5.4520  -3.9585   N.ar      1 RES1   0.0000
    10 C1      -8.3976  -3.1389  -7.5527   C.ar      1 RES1   0.0000
    11 C2      -8.3498  -3.5055  -8.7951   C.ar      1 RES1   0.0000
    12 H1      -8.8219  -4.2547  -9.0791   H         1 RES1   0.0000
    13 C3      -7.6255  -2.8068  -9.6607   C.ar      1 RES1   0.0000
    14 H2      -7.6047  -3.0875 -10.5464   H         1 RES1   0.0000
    15 C4      -6.9123  -1.7051  -9.3177   C.ar      1 RES1   0.0000
    16 C5      -6.9202  -1.3294  -8.1092   C.ar      1 RES1   0.0000
    17 H3      -6.4459  -0.5742  -7.8492   H         1 RES1   0.0000
    18 C6      -7.6432  -2.0560  -7.1821   C.ar      1 RES1   0.0000
    19 C7      -7.5960  -1.6128  -5.9597   C.2       1 RES1   0.0000
    20 H4      -7.0774  -0.8568  -5.8014   H         1 RES1   0.0000
    21 C8      -8.0477  -1.6010  -3.7512   C.ar      1 RES1   0.0000
    22 C9      -7.4898  -0.3647  -3.5565   C.ar      1 RES1   0.0000
    23 H5      -7.2112   0.1738  -4.2613   H         1 RES1   0.0000
    24 C10     -7.3800  -0.0006  -2.3178   C.ar      1 RES1   0.0000
    25 H6      -7.0025   0.8284  -2.1306   H         1 RES1   0.0000
    26 C11     -7.8217  -0.8322  -1.2010   C.ar      1 RES1   0.0000
    27 H7      -7.7060  -0.4933  -0.3430   H         1 RES1   0.0000
    28 C12     -8.4019  -2.0899  -1.3229   C.ar      1 RES1   0.0000
    29 C13     -8.5278  -2.4546  -2.6206   C.ar      1 RES1   0.0000
    30 C14     -8.8545  -3.0286  -0.2224   C.ar      1 RES1   0.0000
    31 H8      -8.7518  -2.7434   0.6570   H         1 RES1   0.0000
    32 C15     -9.3867  -4.2257  -0.4208   C.ar      1 RES1   0.0000
    33 H9      -9.6437  -4.8060   0.2588   H         1 RES1   0.0000
    34 C16     -9.5072  -4.4940  -1.7500   C.ar      1 RES1   0.0000
    35 H10     -9.8964  -5.3074  -1.9799   H         1 RES1   0.0000
    36 C17    -12.0871  -3.0239  -5.7148   C.ar      1 RES1   0.0000
    37 C18    -13.0418  -1.9387  -6.2009   C.ar      1 RES1   0.0000
    38 H11    -12.7329  -1.0925  -6.4321   H         1 RES1   0.0000
    39 C19    -14.2658  -2.2314  -6.2788   C.ar      1 RES1   0.0000
    40 H12    -14.9054  -1.6234  -6.5741   H         1 RES1   0.0000
    41 C20    -14.6201  -3.6266  -5.8605   C.ar      1 RES1   0.0000
    42 C21    -13.7243  -4.7036  -5.3781   C.ar      1 RES1   0.0000
    43 H13    -14.0595  -5.5405  -5.1507   H         1 RES1   0.0000
    44 C22    -12.4481  -4.4399  -5.2814   C.ar      1 RES1   0.0000
    45 C23    -11.5977  -5.6528  -4.7977   C.2       1 RES1   0.0000
    46 H14    -12.0445  -6.4539  -4.6407   H         1 RES1   0.0000
    47 C24     -9.6523  -6.9253  -4.1206   C.ar      1 RES1   0.0000
    48 C25    -10.1191  -8.2474  -3.9572   C.ar      1 RES1   0.0000
    49 H15    -11.0162  -8.4059  -4.1432   H         1 RES1   0.0000
    50 C26     -9.2849  -9.4345  -3.5037   C.ar      1 RES1   0.0000
    51 H16     -9.6877 -10.2703  -3.4459   H         1 RES1   0.0000
    52 C27     -8.0194  -9.3233  -3.1909   C.ar      1 RES1   0.0000
    53 H17     -7.5019 -10.0417  -2.9070   H         1 RES1   0.0000
    54 C28     -7.5020  -7.9880  -3.3279   C.ar      1 RES1   0.0000
    55 C29     -8.3380  -6.7804  -3.8015   C.ar      1 RES1   0.0000
    56 C30     -6.1971  -7.7646  -2.9912   C.ar      1 RES1   0.0000
    57 H18     -5.6312  -8.4379  -2.6884   H         1 RES1   0.0000
    58 C31     -5.7858  -6.4324  -3.1432   C.ar      1 RES1   0.0000
    59 H19     -4.9047  -6.2285  -2.9309   H         1 RES1   0.0000
    60 C32     -6.6737  -5.2925  -3.6319   C.ar      1 RES1   0.0000
    61 H20     -6.3066  -4.4413  -3.6947   H         1 RES1   0.0000
    62 S1      -4.3368  -2.0957  -1.7781   S.o2      2 RES2   0.0000
    63 S2      -5.1272  -4.2581   0.3153   S.o2      2 RES2   0.0000
    64 F1      -2.5844  -1.6777  -3.0691   F         2 RES2   0.0000
    65 F2      -1.8945  -2.4929  -0.6997   F         2 RES2   0.0000
    66 F3      -2.7709  -3.8182  -1.9761   F         2 RES2   0.0000
    67 F4      -3.7223  -5.9755  -0.1495   F         2 RES2   0.0000
    68 F5      -2.9284  -5.5594   1.9108   F         2 RES2   0.0000
    69 F6      -4.4504  -6.9144   1.6583   F         2 RES2   0.0000
    70 O3      -4.2527  -0.6711  -1.8166   O.2       2 RES2   0.0000
    71 O4      -5.1905  -2.4371  -2.9610   O.2       2 RES2   0.0000
    72 O5      -5.3578  -4.2659   1.6771   O.2       2 RES2   0.0000
    73 O6      -6.1477  -4.5483  -0.7877   O.2       2 RES2   0.0000
    74 N5      -4.3288  -2.9821  -0.1520   N.2       2 RES2  -1.0000
    75 C33     -2.7859  -2.5085  -1.8404   C.3       2 RES2   0.0000
    76 C34     -3.9817  -5.7485   0.9736   C.3       2 RES2   0.0000
@<TRIPOS>BOND
     1     1    15    1
     2     2    41    1
     3     3     4    1
     4     4    10    1
     5     5     3    1
     6     6     3    1
     7     7     3    1
     8     8     3    1
     9     9     3    1
    10    10    11   ar
    11    11    12    1
    12    13    11   ar
    13    14    13    1
    14    15    13   ar
    15    16    15   ar
    16    17    16    1
    17    18    10   ar
    18    19     6    2
    19    20    19    1
    20    21     6    1
    21    22    21   ar
    22    23    22    1
    23    24    22   ar
    24    25    24    1
    25    26    24   ar
    26    27    26    1
    27    28    26   ar
    28    29     7   ar
    29    30    28   ar
    30    31    30    1
    31    32    30   ar
    32    33    32    1
    33    34     7   ar
    34    35    34    1
    35    36     5    1
    36    37    36   ar
    37    38    37    1
    38    39    37   ar
    39    40    39    1
    40    41    39   ar
    41    42    41   ar
    42    43    42    1
    43    44    36   ar
    44    45     8    2
    45    46    45    1
    46    47     8    1
    47    48    47   ar
    48    49    48    1
    49    50    48   ar
    50    51    50    1
    51    52    50   ar
    52    53    52    1
    53    54    52   ar
    54    55     9   ar
    55    56    54   ar
    56    57    56    1
    57    58    56   ar
    58    59    58    1
    59    60     9   ar
    60    61    60    1
    61    16    18   ar
    62    18    19    1
    63    21    29   ar
    64    28    29   ar
    65    32    34   ar
    66    42    44   ar
    67    44    45    1
    68    47    55   ar
    69    54    55   ar
    70    58    60   ar
    71    62    70    2
    72    63    72    2
    73    64    75    1
    74    65    75    1
    75    66    75    1
    76    67    76    1
    77    68    76    1
    78    69    76    1
    79    71    62    2
    80    73    63    2
    81    74    62    1
    82    75    62    1
    83    76    63    1
    84    63    74    1
@<TRIPOS>SUBSTRUCTURE
     1 RES1        1 GROUP             0 ****  ****    0  
     2 RES2       62 GROUP             0 ****  ****    0  
@<TRIPOS>CRYSIN
   12.3210   12.7800   13.7130   79.3000   66.5300   69.0000     2     1
