@<TRIPOS>MOLECULE
LECLUD01
    76    84     2     0     0
SMALL
USER_CHARGES
****
Generated from the CSD

@<TRIPOS>ATOM
     1 I1      12.3827  13.8417  -0.1199   I         1 RES1   0.0000
     2 I2      11.7327  21.3583  11.5497   I         1 RES1   0.0000
     3 Fe1     14.8865  16.3076   6.7153   Fe        1 RES1   1.0000
     4 O1      14.2850  16.8590   4.9703   O.3       1 RES1   0.0000
     5 O2      13.3071  16.7698   7.6840   O.3       1 RES1   0.0000
     6 N1      15.5010  15.2222   8.4549   N.ar      1 RES1   0.0000
     7 N2      14.3487  14.3369   6.2276   N.2       1 RES1   0.0000
     8 N3      16.8755  16.1296   6.0093   N.ar      1 RES1   0.0000
     9 N4      15.7138  18.1553   7.2602   N.2       1 RES1   0.0000
    10 C1      16.0954  15.7182   9.5246   C.ar      1 RES1   0.0000
    11 H1      16.3812  16.6032   9.5080   H         1 RES1   0.0000
    12 C2      16.3086  14.9614  10.6784   C.ar      1 RES1   0.0000
    13 H2      16.7335  15.3412  11.4136   H         1 RES1   0.0000
    14 C3      15.8942  13.6686  10.7231   C.ar      1 RES1   0.0000
    15 H3      16.0334  13.1615  11.4902   H         1 RES1   0.0000
    16 C4      15.2527  13.0956   9.6050   C.ar      1 RES1   0.0000
    17 C5      14.8061  11.7620   9.5411   C.ar      1 RES1   0.0000
    18 H4      14.9015  11.2056  10.2802   H         1 RES1   0.0000
    19 C6      14.2374  11.2819   8.4102   C.ar      1 RES1   0.0000
    20 H5      13.9480  10.3990   8.3873   H         1 RES1   0.0000
    21 C7      14.0771  12.0841   7.2768   C.ar      1 RES1   0.0000
    22 H6      13.6945  11.7268   6.5071   H         1 RES1   0.0000
    23 C8      14.4823  13.4017   7.2959   C.ar      1 RES1   0.0000
    24 C9      15.0901  13.9136   8.4626   C.ar      1 RES1   0.0000
    25 C10     13.9325  13.9482   5.0648   C.2       1 RES1   0.0000
    26 H7      13.7269  13.0458   4.9729   H         1 RES1   0.0000
    27 C11     13.7587  14.7766   3.9045   C.ar      1 RES1   0.0000
    28 C12     13.3145  14.1290   2.7315   C.ar      1 RES1   0.0000
    29 H8      13.1753  13.2107   2.7430   H         1 RES1   0.0000
    30 C13     13.0882  14.8234   1.5840   C.ar      1 RES1   0.0000
    31 C14     13.2896  16.2071   1.5623   C.ar      1 RES1   0.0000
    32 H9      13.1465  16.6848   0.7773   H         1 RES1   0.0000
    33 C15     13.6973  16.8634   2.6983   C.ar      1 RES1   0.0000
    34 H10     13.8134  17.7869   2.6741   H         1 RES1   0.0000
    35 C16     13.9456  16.1705   3.8994   C.ar      1 RES1   0.0000
    36 C17     17.4281  15.0660   5.4515   C.ar      1 RES1   0.0000
    37 H11     16.9416  14.2744   5.4247   H         1 RES1   0.0000
    38 C18     18.7058  15.0820   4.9052   C.ar      1 RES1   0.0000
    39 H12     19.0744  14.3037   4.5529   H         1 RES1   0.0000
    40 C19     19.4088  16.2447   4.8886   C.ar      1 RES1   0.0000
    41 H13     20.2519  16.2727   4.4981   H         1 RES1   0.0000
    42 C20     18.8603  17.4091   5.4643   C.ar      1 RES1   0.0000
    43 C21     19.5312  18.6579   5.5090   C.ar      1 RES1   0.0000
    44 H14     20.3762  18.7483   5.1299   H         1 RES1   0.0000
    45 C22     18.9306  19.7191   6.1089   C.ar      1 RES1   0.0000
    46 H15     19.3704  20.5378   6.1255   H         1 RES1   0.0000
    47 C23     17.6690  19.6153   6.7011   C.ar      1 RES1   0.0000
    48 H16     17.2882  20.3581   7.1121   H         1 RES1   0.0000
    49 C24     16.9862  18.4157   6.6807   C.ar      1 RES1   0.0000
    50 C25     17.5809  17.3071   6.0336   C.ar      1 RES1   0.0000
    51 C26     15.1758  18.9953   8.0822   C.2       1 RES1   0.0000
    52 H17     15.6473  19.7768   8.2545   H         1 RES1   0.0000
    53 C27     13.9181  18.8315   8.7510   C.ar      1 RES1   0.0000
    54 C28     13.5079  19.8699   9.6165   C.ar      1 RES1   0.0000
    55 H18     14.0505  20.6158   9.7275   H         1 RES1   0.0000
    56 C29     12.3322  19.7928  10.2853   C.ar      1 RES1   0.0000
    57 C30     11.4997  18.6836  10.1423   C.ar      1 RES1   0.0000
    58 H19     10.7026  18.6290  10.6184   H         1 RES1   0.0000
    59 C31     11.8700  17.6733   9.2910   C.ar      1 RES1   0.0000
    60 H20     11.3127  16.9341   9.1965   H         1 RES1   0.0000
    61 C32     13.0580  17.7238   8.5634   C.ar      1 RES1   0.0000
    62 S1      14.2152   7.1783   9.8763   S.o2      2 RES2   0.0000
    63 S2      15.1345   4.6716   9.0093   S.o2      2 RES2   0.0000
    64 F1      13.6126   8.3967  12.0761   F         2 RES2   0.0000
    65 F2      15.5157   7.4454  12.1118   F         2 RES2   0.0000
    66 F3      13.7715   6.2961  12.2599   F         2 RES2   0.0000
    67 F4      14.4303   3.7834  11.3549   F         2 RES2   0.0000
    68 F5      16.5395   4.0174  11.1150   F         2 RES2   0.0000
    69 F6      15.5278   2.3838  10.1793   F         2 RES2   0.0000
    70 O3      14.7069   8.4109   9.4046   O.2       2 RES2   0.0000
    71 O4      12.8918   6.8123   9.6356   O.2       2 RES2   0.0000
    72 O5      13.8669   4.2718   8.5417   O.2       2 RES2   0.0000
    73 O6      16.2681   4.3212   8.1907   O.2       2 RES2   0.0000
    74 N5      15.3325   6.1213   9.5348   N.2       2 RES2  -1.0000
    75 C33     14.3430   7.3699  11.6638   C.3       2 RES2   0.0000
    76 C34     15.4266   3.6714  10.5023   C.3       2 RES2   0.0000
@<TRIPOS>BOND
     1     1    30    1
     2     2    56    1
     3     3     4    1
     4     4    35    1
     5     5     3    1
     6     6     3    1
     7     7     3    1
     8     8     3    1
     9     9     3    1
    10    10     6   ar
    11    11    10    1
    12    12    10   ar
    13    13    12    1
    14    14    12   ar
    15    15    14    1
    16    16    14   ar
    17    17    16   ar
    18    18    17    1
    19    19    17   ar
    20    20    19    1
    21    21    19   ar
    22    22    21    1
    23    23     7    1
    24    24     6   ar
    25    25     7    2
    26    26    25    1
    27    27    25    1
    28    28    27   ar
    29    29    28    1
    30    30    28   ar
    31    31    30   ar
    32    32    31    1
    33    33    31   ar
    34    34    33    1
    35    35    27   ar
    36    36     8   ar
    37    37    36    1
    38    38    36   ar
    39    39    38    1
    40    40    38   ar
    41    41    40    1
    42    42    40   ar
    43    43    42   ar
    44    44    43    1
    45    45    43   ar
    46    46    45    1
    47    47    45   ar
    48    48    47    1
    49    49     9    1
    50    50     8   ar
    51    51     9    2
    52    52    51    1
    53    53    51    1
    54    54    53   ar
    55    55    54    1
    56    56    54   ar
    57    57    56   ar
    58    58    57    1
    59    59    57   ar
    60    60    59    1
    61    61     5    1
    62    16    24   ar
    63    21    23   ar
    64    23    24   ar
    65    33    35   ar
    66    42    50   ar
    67    47    49   ar
    68    49    50   ar
    69    53    61   ar
    70    59    61   ar
    71    62    70    2
    72    63    72    2
    73    64    75    1
    74    65    75    1
    75    66    75    1
    76    67    76    1
    77    68    76    1
    78    69    76    1
    79    71    62    2
    80    73    63    2
    81    74    62    1
    82    75    62    1
    83    76    63    1
    84    63    74    1
@<TRIPOS>SUBSTRUCTURE
     1 RES1        1 GROUP             0 ****  ****    0  
     2 RES2       62 GROUP             0 ****  ****    0  
@<TRIPOS>CRYSIN
   12.3138   12.7727   13.6913   68.9750   79.3250   66.5480     2     1
