@<TRIPOS>MOLECULE
LECLUD11
    76    84     2     0     0
SMALL
USER_CHARGES
****
Generated from the CSD

@<TRIPOS>ATOM
     1 I1       4.5400   2.1503  10.3862   I         1 RES1   0.0000
     2 I2      11.1622  12.3967   6.2067   I         1 RES1   0.0000
     3 Fe1      7.7793   5.7835   4.5354   Fe        1 RES1   1.0000
     4 O1       8.1956   5.0018   6.2091   O.3       1 RES1   0.0000
     5 O2       7.3979   7.5053   5.2329   O.3       1 RES1   0.0000
     6 N1       9.7072   6.1670   4.3251   N.2       1 RES1   0.0000
     7 N2       5.8526   5.3786   4.6769   N.2       1 RES1   0.0000
     8 N3       7.2125   6.4263   2.7221   N.ar      1 RES1   0.0000
     9 N4       8.3099   4.0691   3.6371   N.ar      1 RES1   0.0000
    10 C1      10.3038   7.2633   4.6962   C.2       1 RES1   0.0000
    11 H1      11.2523   7.2905   4.6337   H         1 RES1   0.0000
    12 C2       9.6424   8.4239   5.1897   C.ar      1 RES1   0.0000
    13 C3       9.6550   3.9711   3.4198   C.ar      1 RES1   0.0000
    14 C4      10.4533   5.0867   3.7788   C.ar      1 RES1   0.0000
    15 C5       5.2820   4.8522   5.7288   C.2       1 RES1   0.0000
    16 H2       4.3334   4.8124   5.7360   H         1 RES1   0.0000
    17 C6       8.2471   8.5133   5.4190   C.ar      1 RES1   0.0000
    18 C7       7.3692   4.4081   7.0400   C.ar      1 RES1   0.0000
    19 C8       5.0745   5.7997   3.5578   C.ar      1 RES1   0.0000
    20 C9       5.8555   6.3657   2.5264   C.ar      1 RES1   0.0000
    21 C10      5.7357   3.1511   8.9661   C.ar      1 RES1   0.0000
    22 C11      5.1569   3.7205   7.8710   C.ar      1 RES1   0.0000
    23 H3       4.2118   3.7083   7.7761   H         1 RES1   0.0000
    24 C12      7.9863   6.9253   1.7603   C.ar      1 RES1   0.0000
    25 H4       8.9262   6.9551   1.8972   H         1 RES1   0.0000
    26 C13      5.9636   4.3338   6.8659   C.ar      1 RES1   0.0000
    27 C14      7.7271   9.7395   5.8837   C.ar      1 RES1   0.0000
    28 H5       6.7952   9.8147   6.0530   H         1 RES1   0.0000
    29 C15      3.0932   6.1978   2.2370   C.ar      1 RES1   0.0000
    30 H6       2.1485   6.1514   2.1458   H         1 RES1   0.0000
    31 C16     11.8232   5.0382   3.5867   C.ar      1 RES1   0.0000
    32 H7      12.3654   5.7823   3.8208   H         1 RES1   0.0000
    33 C17      7.5238   3.0816   3.2733   C.ar      1 RES1   0.0000
    34 H8       6.5881   3.1641   3.4138   H         1 RES1   0.0000
    35 C18      9.9067  10.7389   5.8705   C.ar      1 RES1   0.0000
    36 C19     10.2651   2.8261   2.8374   C.ar      1 RES1   0.0000
    37 C20      5.2551   6.8269   1.3412   C.ar      1 RES1   0.0000
    38 C21      7.1099   3.1971   9.1426   C.ar      1 RES1   0.0000
    39 H9       7.5027   2.8057   9.9134   H         1 RES1   0.0000
    40 C22      9.3714   1.7795   2.4784   C.ar      1 RES1   0.0000
    41 H10      9.7166   0.9820   2.0941   H         1 RES1   0.0000
    42 C23     10.4613   9.5593   5.4538   C.ar      1 RES1   0.0000
    43 H11     11.4020   9.4979   5.3386   H         1 RES1   0.0000
    44 C24      7.9074   3.8140   8.1976   C.ar      1 RES1   0.0000
    45 H12      8.8477   3.8365   8.3333   H         1 RES1   0.0000
    46 C25     12.4111   3.8783   3.0415   C.ar      1 RES1   0.0000
    47 H13     13.3530   3.8414   2.9202   H         1 RES1   0.0000
    48 C26      3.7042   5.7070   3.4077   C.ar      1 RES1   0.0000
    49 H14      3.1765   5.3135   4.0922   H         1 RES1   0.0000
    50 C27      8.5384  10.8315   6.0950   C.ar      1 RES1   0.0000
    51 H15      8.1619  11.6498   6.3952   H         1 RES1   0.0000
    52 C28      8.0232   1.9023   2.6777   C.ar      1 RES1   0.0000
    53 H16      7.4320   1.2040   2.4207   H         1 RES1   0.0000
    54 C29      3.8435   6.7396   1.2296   C.ar      1 RES1   0.0000
    55 H17      3.4134   7.0609   0.4455   H         1 RES1   0.0000
    56 C30      7.4615   7.4093   0.5487   C.ar      1 RES1   0.0000
    57 H18      8.0364   7.7599  -0.1213   H         1 RES1   0.0000
    58 C31     11.6367   2.7984   2.6825   C.ar      1 RES1   0.0000
    59 H19     12.0511   2.0231   2.3235   H         1 RES1   0.0000
    60 C32      6.1116   7.3655   0.3542   C.ar      1 RES1   0.0000
    61 H20      5.7425   7.7003  -0.4551   H         1 RES1   0.0000
    62 S1       5.5390   3.3858  -0.1927   S.o2      2 RES2   0.0000
    63 S2       3.4797   2.0747   1.1498   S.o2      2 RES2   0.0000
    64 F1       5.4123   1.2346  -1.6967   F         2 RES2   0.0000
    65 F2       7.1448   1.3430  -0.4551   F         2 RES2   0.0000
    66 O3       6.6614   4.1366   0.2606   O.2       2 RES2   0.0000
    67 F3       3.9971   2.3398   3.7031   F         2 RES2   0.0000
    68 F4       4.5925   0.4315   2.8842   F         2 RES2   0.0000
    69 F5       6.9859   2.5729  -2.1806   F         2 RES2   0.0000
    70 O4       3.2215   0.9155   0.3266   O.2       2 RES2   0.0000
    71 O5       2.4620   3.0606   1.2668   O.2       2 RES2   0.0000
    72 O6       4.5950   3.9790  -1.0627   O.2       2 RES2   0.0000
    73 F6       2.5237   0.8625   3.2216   F         2 RES2   0.0000
    74 N5       4.9486   2.6611   1.0579   N.2       2 RES2  -1.0000
    75 C33      6.3096   2.0592  -1.1647   C.3       2 RES2   0.0000
    76 C34      3.6716   1.4065   2.8182   C.3       2 RES2   0.0000
@<TRIPOS>BOND
     1     1    21    1
     2     2    35    1
     3     3     4    1
     4     4    18    1
     5     5     3    1
     6     6     3    1
     7     7     3    1
     8     8     3    1
     9     9     3    1
    10    10     6    2
    11    11    10    1
    12    12    10    1
    13    13     9   ar
    14    14     6    1
    15    15     7    2
    16    16    15    1
    17    17     5    1
    18    18    26   ar
    19    19     7    1
    20    20     8   ar
    21    21    22   ar
    22    22    23    1
    23    24     8   ar
    24    25    24    1
    25    26    15    1
    26    27    17   ar
    27    28    27    1
    28    29    30    1
    29    31    14   ar
    30    32    31    1
    31    33     9   ar
    32    34    33    1
    33    35    42   ar
    34    36    13   ar
    35    37    20   ar
    36    38    21   ar
    37    39    38    1
    38    40    36   ar
    39    41    40    1
    40    42    12   ar
    41    43    42    1
    42    44    18   ar
    43    45    44    1
    44    46    31   ar
    45    47    46    1
    46    48    19   ar
    47    49    48    1
    48    50    27   ar
    49    51    50    1
    50    52    33   ar
    51    53    52    1
    52    54    29   ar
    53    55    54    1
    54    56    24   ar
    55    57    56    1
    56    58    36   ar
    57    59    58    1
    58    60    37   ar
    59    61    60    1
    60    12    17   ar
    61    13    14   ar
    62    19    20   ar
    63    22    26   ar
    64    29    48   ar
    65    35    50   ar
    66    37    54   ar
    67    38    44   ar
    68    40    52   ar
    69    46    58   ar
    70    56    60   ar
    71    62    66    2
    72    63    70    2
    73    64    75    1
    74    65    75    1
    75    67    76    1
    76    68    76    1
    77    69    75    1
    78    71    63    2
    79    72    62    2
    80    73    76    1
    81    74    62    1
    82    75    62    1
    83    76    63    1
    84    63    74    1
@<TRIPOS>SUBSTRUCTURE
     1 RES1        1 GROUP             0 ****  ****    0  
     2 RES2       62 GROUP             0 ****  ****    0  
@<TRIPOS>CRYSIN
   12.4920   12.7780   12.9490   78.3500   68.4600   68.5900     2     1
