@<TRIPOS>MOLECULE
LECLUD09
    76    84     2     0     0
SMALL
USER_CHARGES
****
Generated from the CSD

@<TRIPOS>ATOM
     1 I1       2.7262   4.8242  10.4244   I         1 RES1   0.0000
     2 I2      10.0420  13.9627   6.2335   I         1 RES1   0.0000
     3 Fe1      6.9698   6.9271   4.5423   Fe        1 RES1   1.0000
     4 O1       7.1142   6.5734   6.2099   O.3       1 RES1   0.0000
     5 O2       6.4626   8.8194   5.2370   O.3       1 RES1   0.0000
     6 N1       6.7289   7.1093   2.7383   N.ar      1 RES1   0.0000
     7 N2       7.6487   4.9924   3.6474   N.ar      1 RES1   0.0000
     8 N3       5.0064   6.5498   4.7059   N.2       1 RES1   0.0000
     9 N4       8.9237   7.2667   4.3374   N.2       1 RES1   0.0000
    10 C1       6.1508   6.2096   7.0384   C.ar      1 RES1   0.0000
    11 C2       4.3114   6.3352   5.8065   C.2       1 RES1   0.0000
    12 H1       3.3849   6.3690   5.7271   H         1 RES1   0.0000
    13 C3       5.4047   6.9822   2.5143   C.ar      1 RES1   0.0000
    14 C4       7.2659   9.8791   5.4320   C.ar      1 RES1   0.0000
    15 C5       9.0296   4.8297   3.4162   C.ar      1 RES1   0.0000
    16 C6       4.7509   6.0977   6.9059   C.ar      1 RES1   0.0000
    17 C7       8.7077   9.7135   5.1960   C.ar      1 RES1   0.0000
    18 C8       9.7690   6.0276   3.7835   C.ar      1 RES1   0.0000
    19 C9       4.4286   6.7092   3.5716   C.ar      1 RES1   0.0000
    20 C10      9.4278   8.4608   4.7252   C.2       1 RES1   0.0000
    21 H2      10.3544   8.5242   4.6987   H         1 RES1   0.0000
    22 C11      6.9440   3.8842   3.2754   C.ar      1 RES1   0.0000
    23 H3       6.0225   3.9107   3.3970   H         1 RES1   0.0000
    24 C12      3.7613   5.7478   7.8572   C.ar      1 RES1   0.0000
    25 H4       2.8564   5.7242   7.6417   H         1 RES1   0.0000
    26 C13      6.6882  11.2059   5.8728   C.ar      1 RES1   0.0000
    27 H5       5.7696  11.2573   6.0016   H         1 RES1   0.0000
    28 C14      4.1883   5.4646   9.0325   C.ar      1 RES1   0.0000
    29 C15      2.6925   6.7360   2.2109   C.ar      1 RES1   0.0000
    30 H6       1.7889   6.6741   1.9977   H         1 RES1   0.0000
    31 C16      9.4681  10.9299   5.4802   C.ar      1 RES1   0.0000
    32 H7      10.3949  10.8993   5.4067   H         1 RES1   0.0000
    33 C17      8.8449  12.1920   5.8764   C.ar      1 RES1   0.0000
    34 C18      6.4876   5.9197   8.2257   C.ar      1 RES1   0.0000
    35 H8       7.3845   5.9447   8.4702   H         1 RES1   0.0000
    36 C19      7.4350  12.3495   6.0991   C.ar      1 RES1   0.0000
    37 H9       7.0550  13.1533   6.3725   H         1 RES1   0.0000
    38 C20      5.0105   7.1318   1.3294   C.ar      1 RES1   0.0000
    39 C21      7.6647   7.3706   1.7701   C.ar      1 RES1   0.0000
    40 H10      8.5618   7.4193   2.0110   H         1 RES1   0.0000
    41 C22     11.1632   5.9189   3.5896   C.ar      1 RES1   0.0000
    42 H11     11.6989   6.6491   3.7992   H         1 RES1   0.0000
    43 C23     11.8307   4.6554   3.0514   C.ar      1 RES1   0.0000
    44 H12     12.7551   4.6598   2.9514   H         1 RES1   0.0000
    45 C24      3.0634   6.5495   3.3813   C.ar      1 RES1   0.0000
    46 H13      2.4790   6.3223   4.0689   H         1 RES1   0.0000
    47 C25      5.5092   5.5596   9.1782   C.ar      1 RES1   0.0000
    48 H14      5.8316   5.3603  10.0272   H         1 RES1   0.0000
    49 C26      3.6088   7.0347   1.2234   C.ar      1 RES1   0.0000
    50 H15      3.2554   7.1926   0.3781   H         1 RES1   0.0000
    51 C27      8.9217   2.4071   2.4674   C.ar      1 RES1   0.0000
    52 H16      9.2918   1.6316   2.1121   H         1 RES1   0.0000
    53 C28      9.6949   3.5642   2.8756   C.ar      1 RES1   0.0000
    54 C29      6.0192   7.4430   0.3721   C.ar      1 RES1   0.0000
    55 H17      5.7167   7.5924  -0.4949   H         1 RES1   0.0000
    56 C30     11.1232   3.4639   2.6925   C.ar      1 RES1   0.0000
    57 H18     11.5443   2.6996   2.3710   H         1 RES1   0.0000
    58 C31      7.5226   2.6045   2.6781   C.ar      1 RES1   0.0000
    59 H19      6.9383   1.9218   2.4409   H         1 RES1   0.0000
    60 C32      7.3423   7.5504   0.5443   C.ar      1 RES1   0.0000
    61 H20      7.9476   7.7311  -0.1373   H         1 RES1   0.0000
    62 S1       5.5493   3.3212  -0.1794   S.o2      2 RES2   0.0000
    63 S2       3.2644   2.3497   1.1632   S.o2      2 RES2   0.0000
    64 F1       5.6779   0.7899  -1.6654   F         2 RES2   0.0000
    65 F2       3.3389   3.2630   3.7173   F         2 RES2   0.0000
    66 F3       7.2318   1.2474  -0.4371   F         2 RES2   0.0000
    67 F4       4.0873   1.1479   2.9081   F         2 RES2   0.0000
    68 O3       6.5950   4.1925   0.2637   O.2       2 RES2   0.0000
    69 O4       3.1350   0.9887   0.3372   O.2       2 RES2   0.0000
    70 O5       4.7320   3.6922  -1.0537   O.2       2 RES2   0.0000
    71 F5       1.9481   1.6582   3.2465   F         2 RES2   0.0000
    72 F6       7.3250   2.0222  -2.1832   F         2 RES2   0.0000
    73 O6       2.2275   3.3670   1.2812   O.2       2 RES2   0.0000
    74 N5       4.7493   2.9017   1.0524   N.2       2 RES2  -1.0000
    75 C33      6.4778   1.7866  -1.1452   C.3       2 RES2   0.0000
    76 C34      3.1744   2.1055   2.8479   C.3       2 RES2   0.0000
@<TRIPOS>BOND
     1     1    28    1
     2     2    33    1
     3     3     4    1
     4     4    10    1
     5     5     3    1
     6     6     3    1
     7     7     3    1
     8     8     3    1
     9     9     3    1
    10    10    16   ar
    11    11     8    2
    12    12    11    1
    13    13     6   ar
    14    14     5    1
    15    15     7   ar
    16    16    11    1
    17    17    14   ar
    18    18     9    1
    19    19     8    1
    20    20     9    2
    21    21    20    1
    22    22     7   ar
    23    23    22    1
    24    24    16   ar
    25    25    24    1
    26    26    14   ar
    27    27    26    1
    28    28    24   ar
    29    29    30    1
    30    31    17   ar
    31    32    31    1
    32    33    31   ar
    33    34    10   ar
    34    35    34    1
    35    36    26   ar
    36    37    36    1
    37    38    13   ar
    38    39     6   ar
    39    40    39    1
    40    41    18   ar
    41    42    41    1
    42    43    41   ar
    43    44    43    1
    44    45    19   ar
    45    46    45    1
    46    47    28   ar
    47    48    47    1
    48    49    29   ar
    49    50    49    1
    50    51    52    1
    51    53    15   ar
    52    54    38   ar
    53    55    54    1
    54    56    43   ar
    55    57    56    1
    56    58    22   ar
    57    59    58    1
    58    60    39   ar
    59    61    60    1
    60    13    19   ar
    61    15    18   ar
    62    17    20    1
    63    29    45   ar
    64    33    36   ar
    65    34    47   ar
    66    38    49   ar
    67    51    53   ar
    68    51    58   ar
    69    53    56   ar
    70    54    60   ar
    71    62    68    2
    72    63    69    2
    73    64    75    1
    74    65    76    1
    75    66    75    1
    76    67    76    1
    77    70    62    2
    78    71    76    1
    79    72    75    1
    80    73    63    2
    81    74    62    1
    82    75    62    1
    83    76    63    1
    84    63    74    1
@<TRIPOS>SUBSTRUCTURE
     1 RES1        1 GROUP             0 ****  ****    0  
     2 RES2       62 GROUP             0 ****  ****    0  
@<TRIPOS>CRYSIN
   12.4700   12.7310   12.9720   68.6600   78.2200   68.5800     2     1
