@<TRIPOS>MOLECULE
LECLUD
    76    84     2     0     0
SMALL
USER_CHARGES
****
Generated from the CSD

@<TRIPOS>ATOM
     1 I1       4.8586  12.3916   6.2137   I         1 RES1   0.0000
     2 I2      -1.7252   2.2352  10.3996   I         1 RES1   0.0000
     3 Fe1      1.5027   5.7955   4.5349   Fe        1 RES1   1.0000
     4 O1       1.1135   7.5136   5.2344   O.3       1 RES1   0.0000
     5 O2       1.9269   5.0335   6.2065   O.3       1 RES1   0.0000
     6 N1       2.0241   4.0861   3.6326   N.ar      1 RES1   0.0000
     7 N2       3.4184   6.1783   4.3247   N.2       1 RES1   0.0000
     8 N3       0.9433   6.4184   2.7145   N.ar      1 RES1   0.0000
     9 N4      -0.4176   5.3856   4.6864   N.2       1 RES1   0.0000
    10 C1       1.2518   3.0810   3.2817   C.ar      1 RES1   0.0000
    11 H1       0.3375   3.1411   3.4415   H         1 RES1   0.0000
    12 C2       1.7603   1.9188   2.6749   C.ar      1 RES1   0.0000
    13 H2       1.1826   1.2354   2.4189   H         1 RES1   0.0000
    14 C3       3.0947   1.7974   2.4634   C.ar      1 RES1   0.0000
    15 H3       3.4359   1.0293   2.0632   H         1 RES1   0.0000
    16 C4       3.9645   2.8354   2.8527   C.ar      1 RES1   0.0000
    17 C5       5.3517   2.8058   2.7025   C.ar      1 RES1   0.0000
    18 H4       5.7620   2.0431   2.3648   H         1 RES1   0.0000
    19 C6       6.1224   3.8946   3.0510   C.ar      1 RES1   0.0000
    20 H5       7.0435   3.8648   2.9260   H         1 RES1   0.0000
    21 C7       5.5344   5.0413   3.5881   C.ar      1 RES1   0.0000
    22 H6       6.0580   5.7724   3.8212   H         1 RES1   0.0000
    23 C8       4.1691   5.0750   3.7708   C.ar      1 RES1   0.0000
    24 C9       3.3765   3.9787   3.4319   C.ar      1 RES1   0.0000
    25 C10      4.0047   7.2611   4.6996   C.2       1 RES1   0.0000
    26 H7       4.9327   7.2851   4.6359   H         1 RES1   0.0000
    27 C11      3.3557   8.4286   5.2031   C.ar      1 RES1   0.0000
    28 C12      4.1626   9.5607   5.4518   C.ar      1 RES1   0.0000
    29 H8       5.0815   9.5088   5.3173   H         1 RES1   0.0000
    30 C13      3.6117  10.7280   5.8856   C.ar      1 RES1   0.0000
    31 C14      2.2415  10.8247   6.0863   C.ar      1 RES1   0.0000
    32 H9       1.8699  11.6298   6.3675   H         1 RES1   0.0000
    33 C15      1.4436   9.7514   5.8748   C.ar      1 RES1   0.0000
    34 H10      0.5324   9.8308   6.0395   H         1 RES1   0.0000
    35 C16      1.9510   8.5081   5.4098   C.ar      1 RES1   0.0000
    36 C17      1.7185   6.9006   1.7496   C.ar      1 RES1   0.0000
    37 H11      2.6386   6.9223   1.8758   H         1 RES1   0.0000
    38 C18      1.1877   7.3721   0.5540   C.ar      1 RES1   0.0000
    39 H12      1.7525   7.7208  -0.0973   H         1 RES1   0.0000
    40 C19     -0.1490   7.3234   0.3353   C.ar      1 RES1   0.0000
    41 H13     -0.5043   7.6317  -0.4674   H         1 RES1   0.0000
    42 C20     -0.9940   6.8018   1.3362   C.ar      1 RES1   0.0000
    43 C21     -2.4035   6.7075   1.2317   C.ar      1 RES1   0.0000
    44 H14     -2.8275   7.0154   0.4638   H         1 RES1   0.0000
    45 C22     -3.1388   6.1806   2.2254   C.ar      1 RES1   0.0000
    46 H15     -4.0629   6.1308   2.1293   H         1 RES1   0.0000
    47 C23     -2.5462   5.7030   3.4055   C.ar      1 RES1   0.0000
    48 H16     -3.0688   5.3313   4.0784   H         1 RES1   0.0000
    49 C24     -1.1875   5.7912   3.5484   C.ar      1 RES1   0.0000
    50 C25     -0.4190   6.3445   2.5319   C.ar      1 RES1   0.0000
    51 C26     -0.9799   4.8785   5.7318   C.2       1 RES1   0.0000
    52 H17     -1.9083   4.8340   5.7366   H         1 RES1   0.0000
    53 C27     -0.3035   4.3855   6.8710   C.ar      1 RES1   0.0000
    54 C28     -1.0945   3.7648   7.8744   C.ar      1 RES1   0.0000
    55 H18     -2.0177   3.7241   7.7602   H         1 RES1   0.0000
    56 C29     -0.5432   3.2267   8.9979   C.ar      1 RES1   0.0000
    57 C30      0.8635   3.2604   9.1541   C.ar      1 RES1   0.0000
    58 H19      1.2632   2.8775   9.9015   H         1 RES1   0.0000
    59 C31      1.6380   3.8709   8.1820   C.ar      1 RES1   0.0000
    60 H20      2.5611   3.8975   8.2973   H         1 RES1   0.0000
    61 C32      1.0969   4.4372   7.0560   C.ar      1 RES1   0.0000
    62 S1       9.6694   2.0617   1.1560   S.o2      2 RES2   0.0000
    63 S2      11.7223   3.3595  -0.1802   S.o2      2 RES2   0.0000
    64 F1       8.7116   0.8690   3.2204   F         2 RES2   0.0000
    65 F2      10.1913   2.3534   3.7107   F         2 RES2   0.0000
    66 F3      10.7773   0.4361   2.8948   F         2 RES2   0.0000
    67 F4      13.3363   1.3468  -0.4626   F         2 RES2   0.0000
    68 F5      13.1422   2.5472  -2.1810   F         2 RES2   0.0000
    69 F6      11.6045   1.1976  -1.6559   F         2 RES2   0.0000
    70 O3       8.6513   3.0451   1.2725   O.2       2 RES2   0.0000
    71 O4       9.4067   0.9302   0.3329   O.2       2 RES2   0.0000
    72 O5      10.7551   3.9423  -1.0478   O.2       2 RES2   0.0000
    73 O6      12.8365   4.1320   0.2584   O.2       2 RES2   0.0000
    74 N5      11.1444   2.6195   1.0707   N.2       2 RES2  -1.0000
    75 C33      9.8516   1.4019   2.8503   C.3       2 RES2   0.0000
    76 C34     12.4904   2.0309  -1.1464   C.3       2 RES2   0.0000
@<TRIPOS>BOND
     1     1    30    1
     2     2    56    1
     3     3     4    1
     4     4    35    1
     5     5     3    1
     6     6     3    1
     7     7     3    1
     8     8     3    1
     9     9     3    1
    10    10     6   ar
    11    11    10    1
    12    12    10   ar
    13    13    12    1
    14    14    12   ar
    15    15    14    1
    16    16    14   ar
    17    17    16   ar
    18    18    17    1
    19    19    17   ar
    20    20    19    1
    21    21    19   ar
    22    22    21    1
    23    23     7    1
    24    24     6   ar
    25    25     7    2
    26    26    25    1
    27    27    25    1
    28    28    27   ar
    29    29    28    1
    30    30    28   ar
    31    31    30   ar
    32    32    31    1
    33    33    31   ar
    34    34    33    1
    35    35    27   ar
    36    36     8   ar
    37    37    36    1
    38    38    36   ar
    39    39    38    1
    40    40    38   ar
    41    41    40    1
    42    42    40   ar
    43    43    42   ar
    44    44    43    1
    45    45    43   ar
    46    46    45    1
    47    47    45   ar
    48    48    47    1
    49    49     9    1
    50    50     8   ar
    51    51     9    2
    52    52    51    1
    53    53    51    1
    54    54    53   ar
    55    55    54    1
    56    56    54   ar
    57    57    56   ar
    58    58    57    1
    59    59    57   ar
    60    60    59    1
    61    61     5    1
    62    16    24   ar
    63    21    23   ar
    64    23    24   ar
    65    33    35   ar
    66    42    50   ar
    67    47    49   ar
    68    49    50   ar
    69    53    61   ar
    70    59    61   ar
    71    62    70    2
    72    63    72    2
    73    64    75    1
    74    65    75    1
    75    66    75    1
    76    67    76    1
    77    68    76    1
    78    69    76    1
    79    71    62    2
    80    73    63    2
    81    74    62    1
    82    75    62    1
    83    76    63    1
    84    63    74    1
@<TRIPOS>SUBSTRUCTURE
     1 RES1        1 GROUP             0 ****  ****    0  
     2 RES2       62 GROUP             0 ****  ****    0  
@<TRIPOS>CRYSIN
   12.4339   12.7007   12.9423   78.0120   68.7480   68.6090     2     1
