@<TRIPOS>MOLECULE
LECLUD17
    76    84     2     0     0
SMALL
USER_CHARGES
****
Generated from the CSD

@<TRIPOS>ATOM
     1 I1       4.6709   1.8684  10.3673   I         1 RES1   0.0000
     2 I2      11.4263  12.2556   6.1355   I         1 RES1   0.0000
     3 Fe1      7.9491   5.7256   4.6101   Fe        1 RES1   1.0000
     4 O1       7.6745   7.4545   5.3251   O.3       1 RES1   0.0000
     5 O2       8.2792   4.8859   6.3154   O.3       1 RES1   0.0000
     6 N1       9.9422   6.1124   4.3468   N.2       1 RES1   0.0000
     7 N2       5.9604   5.2876   4.7131   N.2       1 RES1   0.0000
     8 N3       7.2806   6.3778   2.7192   N.ar      1 RES1   0.0000
     9 N4       8.5716   4.0163   3.6348   N.ar      1 RES1   0.0000
    10 C1       9.9139   3.9442   3.4324   C.ar      1 RES1   0.0000
    11 C2      10.5083   7.2010   4.6709   C.2       1 RES1   0.0000
    12 H1      11.4313   7.2443   4.5685   H         1 RES1   0.0000
    13 C3       9.8666   8.3448   5.1709   C.ar      1 RES1   0.0000
    14 C4      10.7055   5.0680   3.8095   C.ar      1 RES1   0.0000
    15 C5       8.5044   8.4608   5.4552   C.ar      1 RES1   0.0000
    16 C6       5.3857   4.6755   5.7275   C.2       1 RES1   0.0000
    17 H2       4.4614   4.5819   5.6974   H         1 RES1   0.0000
    18 C7      12.0692   4.9992   3.6227   C.ar      1 RES1   0.0000
    19 H3      12.5981   5.7252   3.8649   H         1 RES1   0.0000
    20 C8       5.9274   6.3193   2.5469   C.ar      1 RES1   0.0000
    21 C9       6.0677   4.1314   6.8937   C.ar      1 RES1   0.0000
    22 C10      5.1719   5.7338   3.5890   C.ar      1 RES1   0.0000
    23 C11      5.2665   3.4571   7.8635   C.ar      1 RES1   0.0000
    24 H4       4.3469   3.3882   7.7406   H         1 RES1   0.0000
    25 C12     10.1605  10.6421   5.8323   C.ar      1 RES1   0.0000
    26 C13      7.9928   9.6695   5.8998   C.ar      1 RES1   0.0000
    27 H5       7.0803   9.7432   6.0660   H         1 RES1   0.0000
    28 C14      7.4902   4.2452   7.0937   C.ar      1 RES1   0.0000
    29 C15     10.6886   9.4762   5.4058   C.ar      1 RES1   0.0000
    30 H6      11.6047   9.4134   5.2636   H         1 RES1   0.0000
    31 C16      5.8608   2.9048   8.9888   C.ar      1 RES1   0.0000
    32 C17      5.3172   6.8044   1.3493   C.ar      1 RES1   0.0000
    33 C18     12.6663   3.8798   3.0878   C.ar      1 RES1   0.0000
    34 H7      13.5912   3.8596   2.9830   H         1 RES1   0.0000
    35 C19     10.5314   2.8180   2.8601   C.ar      1 RES1   0.0000
    36 C20      8.0421   6.8781   1.7325   C.ar      1 RES1   0.0000
    37 H8       8.9663   6.8781   1.8397   H         1 RES1   0.0000
    38 C21      7.8051   3.0308   3.2541   C.ar      1 RES1   0.0000
    39 H9       6.8870   3.0919   3.3866   H         1 RES1   0.0000
    40 C22      8.7839  10.7344   6.0973   C.ar      1 RES1   0.0000
    41 H10      8.4218  11.5323   6.4082   H         1 RES1   0.0000
    42 C23     11.9352   2.8172   2.7168   C.ar      1 RES1   0.0000
    43 H11     12.3583   2.0693   2.3601   H         1 RES1   0.0000
    44 C24      3.7992   5.6837   3.4613   C.ar      1 RES1   0.0000
    45 H12      3.2817   5.3193   4.1432   H         1 RES1   0.0000
    46 C25      3.1714   6.1932   2.2746   C.ar      1 RES1   0.0000
    47 H13      2.2456   6.1415   2.2023   H         1 RES1   0.0000
    48 C26      8.3369   1.8849   2.6505   C.ar      1 RES1   0.0000
    49 H14      7.7713   1.1946   2.3854   H         1 RES1   0.0000
    50 C27      9.6804   1.7783   2.4505   C.ar      1 RES1   0.0000
    51 H15     10.0330   1.0193   2.0445   H         1 RES1   0.0000
    52 C28      7.2128   2.9276   9.1840   C.ar      1 RES1   0.0000
    53 H16      7.5932   2.4942   9.9141   H         1 RES1   0.0000
    54 C29      8.0170   3.6166   8.2647   C.ar      1 RES1   0.0000
    55 H17      8.9323   3.6672   8.4238   H         1 RES1   0.0000
    56 C30      7.4968   7.4072   0.5337   C.ar      1 RES1   0.0000
    57 H18      8.0450   7.7829  -0.1169   H         1 RES1   0.0000
    58 C31      3.8826   6.7542   1.2409   C.ar      1 RES1   0.0000
    59 H19      3.4487   7.0934   0.4915   H         1 RES1   0.0000
    60 C32      6.1353   7.3466   0.3650   C.ar      1 RES1   0.0000
    61 H20      5.7547   7.6731  -0.4193   H         1 RES1   0.0000
    62 S1       5.6545   3.4189  -0.2723   S.o2      2 RES2   0.0000
    63 S2       3.6181   2.1761   1.1216   S.o2      2 RES2   0.0000
    64 F1       5.5568   1.3405  -1.8493   F         2 RES2   0.0000
    65 F2       7.1166   1.3098  -0.4012   F         2 RES2   0.0000
    66 O3       6.7623   4.1125   0.2687   O.2       2 RES2   0.0000
    67 F3       4.1620   2.4189   3.6709   F         2 RES2   0.0000
    68 F4       7.2803   2.4981  -2.0903   F         2 RES2   0.0000
    69 O4       2.5651   3.0848   1.2361   O.2       2 RES2   0.0000
    70 F5       4.7507   0.5149   2.7854   F         2 RES2   0.0000
    71 O5       3.3403   0.9055   0.2940   O.2       2 RES2   0.0000
    72 O6       4.8112   4.0280  -1.1915   O.2       2 RES2   0.0000
    73 F6       2.7426   0.8695   3.1517   F         2 RES2   0.0000
    74 C33      6.4259   2.0681  -1.1915   C.3       2 RES2   0.0000
    75 N5       5.0482   2.7578   1.0216   N.2       2 RES2  -1.0000
    76 C34      3.8226   1.4515   2.7565   C.3       2 RES2   0.0000
@<TRIPOS>BOND
     1     1    31    1
     2     2    25    1
     3     3     4    1
     4     4    15    1
     5     5     3    1
     6     6     3    1
     7     7     3    1
     8     8     3    1
     9     9     3    1
    10    10     9   ar
    11    11     6    2
    12    12    11    1
    13    13    11    1
    14    14     6    1
    15    15    13   ar
    16    16     7    2
    17    17    16    1
    18    18    14   ar
    19    19    18    1
    20    20     8   ar
    21    21    16    1
    22    22     7    1
    23    23    21   ar
    24    24    23    1
    25    25    29   ar
    26    26    15   ar
    27    27    26    1
    28    28     5    1
    29    29    13   ar
    30    30    29    1
    31    31    23   ar
    32    32    20   ar
    33    33    18   ar
    34    34    33    1
    35    35    10   ar
    36    36     8   ar
    37    37    36    1
    38    38     9   ar
    39    39    38    1
    40    40    25   ar
    41    41    40    1
    42    42    33   ar
    43    43    42    1
    44    44    22   ar
    45    45    44    1
    46    46    44   ar
    47    47    46    1
    48    48    38   ar
    49    49    48    1
    50    50    35   ar
    51    51    50    1
    52    52    31   ar
    53    53    52    1
    54    54    28   ar
    55    55    54    1
    56    56    36   ar
    57    57    56    1
    58    58    32   ar
    59    59    58    1
    60    60    32   ar
    61    61    60    1
    62    10    14   ar
    63    20    22   ar
    64    21    28   ar
    65    26    40   ar
    66    35    42   ar
    67    46    58   ar
    68    48    50   ar
    69    52    54   ar
    70    56    60   ar
    71    62    66    2
    72    63    69    2
    73    64    74    1
    74    65    74    1
    75    67    76    1
    76    68    74    1
    77    70    76    1
    78    71    63    2
    79    72    62    2
    80    73    76    1
    81    74    62    1
    82    75    62    1
    83    76    63    1
    84    63    75    1
@<TRIPOS>SUBSTRUCTURE
     1 RES1        1 GROUP             0 ****  ****    0  
     2 RES2       62 GROUP             0 ****  ****    0  
@<TRIPOS>CRYSIN
   12.6350   12.8260   13.0670   79.1600   67.4300   68.5300     2     1
