@<TRIPOS>MOLECULE
LECLUD02
    76    84     2     0     0
SMALL
USER_CHARGES
****
Generated from the CSD

@<TRIPOS>ATOM
     1 I1       7.5744   2.1984  12.8781   I         1 RES1   0.0000
     2 I2       8.1904  -5.3882   1.2229   I         1 RES1   0.0000
     3 Fe1      5.0539  -0.3229   6.0637   Fe        1 RES1   1.0000
     4 O1       5.6629  -0.8518   7.8132   O.3       1 RES1   0.0000
     5 O2       6.6288  -0.8039   5.0877   O.3       1 RES1   0.0000
     6 N1       4.4218   0.7677   4.3254   N.ar      1 RES1   0.0000
     7 N2       5.5911   1.6606   6.5457   N.2       1 RES1   0.0000
     8 N3       3.0555  -0.1528   6.7747   N.ar      1 RES1   0.0000
     9 N4       4.2168  -2.1798   5.5162   N.2       1 RES1   0.0000
    10 C1       3.8333   0.2698   3.2614   C.ar      1 RES1   0.0000
    11 H1       3.5518  -0.6170   3.2793   H         1 RES1   0.0000
    12 C2       3.6111   1.0293   2.0949   C.ar      1 RES1   0.0000
    13 H2       3.1884   0.6465   1.3608   H         1 RES1   0.0000
    14 C3       4.0172   2.3197   2.0527   C.ar      1 RES1   0.0000
    15 H3       3.8679   2.8292   1.2892   H         1 RES1   0.0000
    16 C4       4.6685   2.8928   3.1731   C.ar      1 RES1   0.0000
    17 C5       5.1184   4.2375   3.2371   C.ar      1 RES1   0.0000
    18 H4       5.0221   4.7923   2.4965   H         1 RES1   0.0000
    19 C6       5.6809   4.7110   4.3613   C.ar      1 RES1   0.0000
    20 H5       5.9616   5.5963   4.3881   H         1 RES1   0.0000
    21 C7       5.8562   3.9081   5.4893   C.ar      1 RES1   0.0000
    22 H6       6.2484   4.2625   6.2541   H         1 RES1   0.0000
    23 C8       5.4504   2.5938   5.4740   C.ar      1 RES1   0.0000
    24 C9       4.8377   2.0749   4.3088   C.ar      1 RES1   0.0000
    25 C10      6.0102   2.0447   7.7045   C.2       1 RES1   0.0000
    26 H7       6.2123   2.9491   7.7953   H         1 RES1   0.0000
    27 C11      6.1959   1.2371   8.8568   C.ar      1 RES1   0.0000
    28 C12      6.6330   1.8906  10.0386   C.ar      1 RES1   0.0000
    29 H8       6.7664   2.8112  10.0271   H         1 RES1   0.0000
    30 C13      6.8590   1.1993  11.1845   C.ar      1 RES1   0.0000
    31 C14      6.6503  -0.1787  11.2139   C.ar      1 RES1   0.0000
    32 H9       6.7892  -0.6499  12.0043   H         1 RES1   0.0000
    33 C15      6.2437  -0.8427  10.0884   C.ar      1 RES1   0.0000
    34 H10      6.1196  -1.7645  10.1243   H         1 RES1   0.0000
    35 C16      6.0054  -0.1668   8.8824   C.ar      1 RES1   0.0000
    36 C17      2.5007   0.9072   7.3233   C.ar      1 RES1   0.0000
    37 H11      2.9805   1.7040   7.3310   H         1 RES1   0.0000
    38 C18      1.2321   0.8902   7.8899   C.ar      1 RES1   0.0000
    39 H12      0.8696   1.6623   8.2621   H         1 RES1   0.0000
    40 C19      0.5268  -0.2821   7.8925   C.ar      1 RES1   0.0000
    41 H13     -0.3189  -0.3140   8.2774   H         1 RES1   0.0000
    42 C20      1.0732  -1.4347   7.3157   C.ar      1 RES1   0.0000
    43 C21      0.4109  -2.6871   7.2683   C.ar      1 RES1   0.0000
    44 H14     -0.4304  -2.7831   7.6546   H         1 RES1   0.0000
    45 C22      1.0006  -3.7448   6.6596   C.ar      1 RES1   0.0000
    46 H15      0.5546  -4.5606   6.6301   H         1 RES1   0.0000
    47 C23      2.2637  -3.6360   6.0763   C.ar      1 RES1   0.0000
    48 H16      2.6474  -4.3779   5.6684   H         1 RES1   0.0000
    49 C24      2.9463  -2.4423   6.0994   C.ar      1 RES1   0.0000
    50 C25      2.3495  -1.3335   6.7414   C.ar      1 RES1   0.0000
    51 C26      4.7537  -3.0143   4.6874   C.2       1 RES1   0.0000
    52 H17      4.2787  -3.7944   4.5122   H         1 RES1   0.0000
    53 C27      6.0071  -2.8574   4.0134   C.ar      1 RES1   0.0000
    54 C28      6.4220  -3.8987   3.1590   C.ar      1 RES1   0.0000
    55 H18      5.8835  -4.6485   3.0567   H         1 RES1   0.0000
    56 C29      7.6044  -3.8220   2.4799   C.ar      1 RES1   0.0000
    57 C30      8.4264  -2.7168   2.6206   C.ar      1 RES1   0.0000
    58 H19      9.2204  -2.6587   2.1384   H         1 RES1   0.0000
    59 C31      8.0650  -1.7115   3.4724   C.ar      1 RES1   0.0000
    60 H20      8.6302  -0.9787   3.5657   H         1 RES1   0.0000
    61 C32      6.8781  -1.7454   4.2091   C.ar      1 RES1   0.0000
    62 S1       5.7303   8.8152   2.8855   S.o2      2 RES2   0.0000
    63 S2       4.7955  11.3006   3.7623   S.o2      2 RES2   0.0000
    64 F1       4.4319   8.5486   0.6689   F         2 RES2   0.0000
    65 F2       6.3269   7.5875   0.6894   F         2 RES2   0.0000
    66 F3       6.1806   9.6843   0.5218   F         2 RES2   0.0000
    67 F4       5.4851  12.2166   1.4286   F         2 RES2   0.0000
    68 F5       3.3871  11.9567   1.6652   F         2 RES2   0.0000
    69 F6       4.3665  13.5808   2.6027   F         2 RES2   0.0000
    70 O3       5.2361   7.5974   3.3560   O.2       2 RES2   0.0000
    71 O4       7.0509   9.1878   3.1092   O.2       2 RES2   0.0000
    72 O5       3.6522  11.6316   4.5684   O.2       2 RES2   0.0000
    73 O6       6.0369  11.7224   4.2436   O.2       2 RES2   0.0000
    74 N5       4.6009   9.8664   3.2371   N.2       2 RES2  -1.0000
    75 C33      5.5930   8.6073   1.1216   C.3       2 RES2   0.0000
    76 C34      4.4874  12.3122   2.2753   C.3       2 RES2   0.0000
@<TRIPOS>BOND
     1     1    30    1
     2     2    56    1
     3     3     4    1
     4     4    35    1
     5     5     3    1
     6     6     3    1
     7     7     3    1
     8     8     3    1
     9     9     3    1
    10    10     6   ar
    11    11    10    1
    12    12    10   ar
    13    13    12    1
    14    14    12   ar
    15    15    14    1
    16    16    14   ar
    17    17    16   ar
    18    18    17    1
    19    19    17   ar
    20    20    19    1
    21    21    19   ar
    22    22    21    1
    23    23     7    1
    24    24     6   ar
    25    25     7    2
    26    26    25    1
    27    27    25    1
    28    28    27   ar
    29    29    28    1
    30    30    28   ar
    31    31    30   ar
    32    32    31    1
    33    33    31   ar
    34    34    33    1
    35    35    27   ar
    36    36     8   ar
    37    37    36    1
    38    38    36   ar
    39    39    38    1
    40    40    38   ar
    41    41    40    1
    42    42    40   ar
    43    43    42   ar
    44    44    43    1
    45    45    43   ar
    46    46    45    1
    47    47    45   ar
    48    48    47    1
    49    49     9    1
    50    50     8   ar
    51    51     9    2
    52    52    51    1
    53    53    51    1
    54    54    53   ar
    55    55    54    1
    56    56    54   ar
    57    57    56   ar
    58    58    57    1
    59    59    57   ar
    60    60    59    1
    61    61     5    1
    62    16    24   ar
    63    21    23   ar
    64    23    24   ar
    65    33    35   ar
    66    42    50   ar
    67    47    49   ar
    68    49    50   ar
    69    53    61   ar
    70    59    61   ar
    71    62    70    2
    72    63    72    2
    73    64    75    1
    74    65    75    1
    75    66    75    1
    76    67    76    1
    77    68    76    1
    78    69    76    1
    79    71    62    2
    80    73    63    2
    81    74    62    1
    82    75    62    1
    83    76    63    1
    84    63    74    1
@<TRIPOS>SUBSTRUCTURE
     1 RES1        1 GROUP             0 ****  ****    0  
     2 RES2       62 GROUP             0 ****  ****    0  
@<TRIPOS>CRYSIN
   12.3597   12.7897   13.7188   68.9560   79.4360   66.5310     2     1
