@<TRIPOS>MOLECULE
LECLUD15
    76    84     2     0     0
SMALL
USER_CHARGES
****
Generated from the CSD

@<TRIPOS>ATOM
     1 I1       4.5216   2.0520  10.2989   I         1 RES1   0.0000
     2 I2      11.2746  12.4047   6.1314   I         1 RES1   0.0000
     3 Fe1      7.8306   5.7890   4.5260   Fe        1 RES1   1.0000
     4 O1       7.4913   7.5355   5.2214   O.3       1 RES1   0.0000
     5 O2       8.1933   4.9784   6.1960   O.3       1 RES1   0.0000
     6 N1       9.8022   6.1752   4.3028   N.2       1 RES1   0.0000
     7 N2       7.2258   6.4370   2.7007   N.ar      1 RES1   0.0000
     8 N3       5.8633   5.3790   4.6607   N.2       1 RES1   0.0000
     9 N4       8.4085   4.0587   3.5954   N.ar      1 RES1   0.0000
    10 C1      10.5350   5.0953   3.7612   C.ar      1 RES1   0.0000
    11 C2      10.3836   7.2706   4.6571   C.2       1 RES1   0.0000
    12 H1      11.3098   7.2994   4.5891   H         1 RES1   0.0000
    13 C3       5.2982   4.8145   5.6890   C.2       1 RES1   0.0000
    14 H2       4.3706   4.7500   5.6735   H         1 RES1   0.0000
    15 C4       9.7569   3.9752   3.3795   C.ar      1 RES1   0.0000
    16 C5       8.3461   8.5422   5.3872   C.ar      1 RES1   0.0000
    17 C6       5.1522   3.6378   7.7992   C.ar      1 RES1   0.0000
    18 H3       4.2302   3.6001   7.6895   H         1 RES1   0.0000
    19 C7       9.7177   8.4584   5.1498   C.ar      1 RES1   0.0000
    20 C8       5.1077   5.8021   3.5620   C.ar      1 RES1   0.0000
    21 C9       5.8632   6.3737   2.5158   C.ar      1 RES1   0.0000
    22 C10      5.9573   4.2870   6.8342   C.ar      1 RES1   0.0000
    23 C11     11.9028   5.0240   3.5811   C.ar      1 RES1   0.0000
    24 H4      12.4319   5.7507   3.8185   H         1 RES1   0.0000
    25 C12     10.3379   2.8446   2.8141   C.ar      1 RES1   0.0000
    26 C13      7.8400   9.7700   5.8357   C.ar      1 RES1   0.0000
    27 H5       6.9264   9.8508   5.9968   H         1 RES1   0.0000
    28 C14      8.6532  10.8526   6.0421   C.ar      1 RES1   0.0000
    29 H6       8.2908  11.6564   6.3355   H         1 RES1   0.0000
    30 C15      9.4693   1.7847   2.4383   C.ar      1 RES1   0.0000
    31 H7       9.8138   1.0106   2.0554   H         1 RES1   0.0000
    32 C16      3.1174   6.2545   2.2176   C.ar      1 RES1   0.0000
    33 H8       2.1920   6.2305   2.1317   H         1 RES1   0.0000
    34 C17      7.3649   4.3637   7.0048   C.ar      1 RES1   0.0000
    35 C18      7.9999   6.9496   1.7333   C.ar      1 RES1   0.0000
    36 H9       8.9215   6.9794   1.8502   H         1 RES1   0.0000
    37 C19      5.7398   3.0640   8.8991   C.ar      1 RES1   0.0000
    38 C20      3.7351   5.7232   3.3938   C.ar      1 RES1   0.0000
    39 H10      3.2116   5.3215   4.0487   H         1 RES1   0.0000
    40 C21      7.0934   3.1124   9.0757   C.ar      1 RES1   0.0000
    41 H11      7.4677   2.7140   9.8284   H         1 RES1   0.0000
    42 C22     12.5069   3.8874   3.0503   C.ar      1 RES1   0.0000
    43 H12     13.4312   3.8605   2.9584   H         1 RES1   0.0000
    44 C23      5.2934   6.8418   1.3432   C.ar      1 RES1   0.0000
    45 C24      8.1471   1.9103   2.6399   C.ar      1 RES1   0.0000
    46 H13      7.5734   1.2253   2.3834   H         1 RES1   0.0000
    47 C25     10.0165  10.7490   5.8131   C.ar      1 RES1   0.0000
    48 C26     11.7556   2.8027   2.6626   C.ar      1 RES1   0.0000
    49 H14     12.1674   2.0494   2.3035   H         1 RES1   0.0000
    50 C27      3.8732   6.7985   1.2215   C.ar      1 RES1   0.0000
    51 H15      3.4625   7.1412   0.4605   H         1 RES1   0.0000
    52 C28     10.5539   9.5584   5.3824   C.ar      1 RES1   0.0000
    53 H16     11.4706   9.4842   5.2464   H         1 RES1   0.0000
    54 C29      7.9163   3.7324   8.1726   C.ar      1 RES1   0.0000
    55 H17      8.8342   3.7437   8.3158   H         1 RES1   0.0000
    56 C30      6.0977   7.3967   0.3483   C.ar      1 RES1   0.0000
    57 H18      5.7228   7.7295  -0.4342   H         1 RES1   0.0000
    58 C31      7.4368   7.4418   0.5464   C.ar      1 RES1   0.0000
    59 H19      7.9879   7.8014  -0.1109   H         1 RES1   0.0000
    60 C32      7.6318   3.0631   3.2304   C.ar      1 RES1   0.0000
    61 H20      6.7145   3.1292   3.3700   H         1 RES1   0.0000
    62 S1       5.5961   3.4139  -0.2171   S.o2      2 RES2   0.0000
    63 O3       6.7139   4.1451   0.2529   O.2       2 RES2   0.0000
    64 F1       5.4797   1.2701  -1.7369   F         2 RES2   0.0000
    65 O4       4.6459   4.0127  -1.0987   O.2       2 RES2   0.0000
    66 F2       7.1534   1.3329  -0.4378   F         2 RES2   0.0000
    67 F3       7.0993   2.5738  -2.1472   F         2 RES2   0.0000
    68 C33      6.3601   2.0706  -1.1834   C.3       2 RES2   0.0000
    69 S2       3.5339   2.1218   1.1225   S.o2      2 RES2   0.0000
    70 N5       4.9932   2.7098   1.0390   N.2       2 RES2  -1.0000
    71 O5       2.5107   3.0863   1.2323   O.2       2 RES2   0.0000
    72 O6       3.2687   0.9410   0.3042   O.2       2 RES2   0.0000
    73 F4       4.0439   2.3802   3.6670   F         2 RES2   0.0000
    74 F5       4.6450   0.4823   2.8332   F         2 RES2   0.0000
    75 F6       2.5942   0.8993   3.1767   F         2 RES2   0.0000
    76 C34      3.7003   1.4243   2.7771   C.3       2 RES2   0.0000
@<TRIPOS>BOND
     1     1    37    1
     2     2    47    1
     3     3     4    1
     4     4    16    1
     5     5     3    1
     6     6     3    1
     7     7     3    1
     8     8     3    1
     9     9     3    1
    10    10     6    1
    11    11     6    2
    12    12    11    1
    13    13     8    2
    14    14    13    1
    15    15     9   ar
    16    16    19   ar
    17    17    18    1
    18    19    11    1
    19    20     8    1
    20    21     7   ar
    21    22    13    1
    22    23    10   ar
    23    24    23    1
    24    25    15   ar
    25    26    16   ar
    26    27    26    1
    27    28    26   ar
    28    29    28    1
    29    30    25   ar
    30    31    30    1
    31    32    33    1
    32    34     5    1
    33    35     7   ar
    34    36    35    1
    35    37    17   ar
    36    38    20   ar
    37    39    38    1
    38    40    37   ar
    39    41    40    1
    40    42    23   ar
    41    43    42    1
    42    44    21   ar
    43    45    30   ar
    44    46    45    1
    45    47    28   ar
    46    48    25   ar
    47    49    48    1
    48    50    32   ar
    49    51    50    1
    50    52    19   ar
    51    53    52    1
    52    54    34   ar
    53    55    54    1
    54    56    44   ar
    55    57    56    1
    56    58    35   ar
    57    59    58    1
    58    60     9   ar
    59    61    60    1
    60    10    15   ar
    61    17    22   ar
    62    20    21   ar
    63    22    34   ar
    64    32    38   ar
    65    40    54   ar
    66    42    48   ar
    67    44    50   ar
    68    45    60   ar
    69    47    52   ar
    70    56    58   ar
    71    62    63    2
    72    64    68    1
    73    65    62    2
    74    66    68    1
    75    67    68    1
    76    68    62    1
    77    69    70    1
    78    70    62    1
    79    71    69    2
    80    72    69    2
    81    73    76    1
    82    74    76    1
    83    75    76    1
    84    76    69    1
@<TRIPOS>SUBSTRUCTURE
     1 RES1        1 GROUP             0 ****  ****    0  
     2 RES2       62 GROUP             0 ****  ****    0  
@<TRIPOS>CRYSIN
   12.5370   12.8700   12.8780   78.6500   68.2200   68.4900     2     1
