@<TRIPOS>MOLECULE
LECLUD13
    76    84     2     0     0
SMALL
USER_CHARGES
****
Generated from the CSD

@<TRIPOS>ATOM
     1 I1       4.5764   2.0066  10.2745   I         1 RES1   0.0000
     2 I2      11.3309  12.4335   6.1105   I         1 RES1   0.0000
     3 Fe1      7.8760   5.8015   4.5294   Fe        1 RES1   1.0000
     4 O1       7.5560   7.5424   5.2288   O.3       1 RES1   0.0000
     5 O2       8.2346   4.9842   6.2007   O.3       1 RES1   0.0000
     6 N1       7.2611   6.4541   2.7001   N.ar      1 RES1   0.0000
     7 N2       5.9116   5.3746   4.6571   N.2       1 RES1   0.0000
     8 N3       9.8453   6.1908   4.2902   N.2       1 RES1   0.0000
     9 N4       8.4501   4.0753   3.5994   N.ar      1 RES1   0.0000
    10 C1       5.3239   4.7988   5.6730   C.2       1 RES1   0.0000
    11 H1       4.3968   4.7350   5.6552   H         1 RES1   0.0000
    12 C2       9.7968   3.9911   3.3826   C.ar      1 RES1   0.0000
    13 C3      10.4251   7.2867   4.6404   C.2       1 RES1   0.0000
    14 H2      11.3509   7.3087   4.5725   H         1 RES1   0.0000
    15 C4      10.5877   5.1072   3.7447   C.ar      1 RES1   0.0000
    16 C5       5.1297   5.8177   3.5458   C.ar      1 RES1   0.0000
    17 C6       9.7832   8.4733   5.1228   C.ar      1 RES1   0.0000
    18 C7       5.9100   6.3983   2.5120   C.ar      1 RES1   0.0000
    19 C8       8.3992   8.5649   5.3788   C.ar      1 RES1   0.0000
    20 C9       6.0066   4.2543   6.8165   C.ar      1 RES1   0.0000
    21 C10      5.7695   3.0351   8.8829   C.ar      1 RES1   0.0000
    22 C11      5.2090   3.6056   7.7860   C.ar      1 RES1   0.0000
    23 H3       4.2873   3.5691   7.6716   H         1 RES1   0.0000
    24 C12     11.9573   5.0497   3.5672   C.ar      1 RES1   0.0000
    25 H4      12.4836   5.7801   3.7971   H         1 RES1   0.0000
    26 C13      7.4116   4.3468   6.9963   C.ar      1 RES1   0.0000
    27 C14      8.0331   6.9777   1.7330   C.ar      1 RES1   0.0000
    28 H5       8.9548   7.0016   1.8569   H         1 RES1   0.0000
    29 C15      5.3123   6.8784   1.3411   C.ar      1 RES1   0.0000
    30 C16      7.8882   9.7863   5.8422   C.ar      1 RES1   0.0000
    31 H6       6.9793   9.8598   6.0244   H         1 RES1   0.0000
    32 C17      3.1426   6.2599   2.2392   C.ar      1 RES1   0.0000
    33 H7       2.2166   6.2231   2.1570   H         1 RES1   0.0000
    34 C18     12.5544   3.9026   3.0455   C.ar      1 RES1   0.0000
    35 H8      13.4796   3.8680   2.9586   H         1 RES1   0.0000
    36 C19      7.6875   3.0775   3.2230   C.ar      1 RES1   0.0000
    37 H9       6.7701   3.1489   3.3552   H         1 RES1   0.0000
    38 C20      8.6982  10.8753   6.0315   C.ar      1 RES1   0.0000
    39 H10      8.3316  11.6785   6.3245   H         1 RES1   0.0000
    40 C21     10.0675  10.7846   5.7886   C.ar      1 RES1   0.0000
    41 C22     10.5908   9.5901   5.3693   C.ar      1 RES1   0.0000
    42 H11     11.5099   9.5192   5.2442   H         1 RES1   0.0000
    43 C23     10.4049   2.8408   2.8109   C.ar      1 RES1   0.0000
    44 C24      3.7521   5.7421   3.4041   C.ar      1 RES1   0.0000
    45 H12      3.2331   5.3539   4.0711   H         1 RES1   0.0000
    46 C25      7.9413   3.7290   8.1600   C.ar      1 RES1   0.0000
    47 H13      8.8586   3.7653   8.3089   H         1 RES1   0.0000
    48 C26      7.1472   3.0793   9.0771   C.ar      1 RES1   0.0000
    49 H14      7.5279   2.6721   9.8215   H         1 RES1   0.0000
    50 C27      3.8823   6.8109   1.2316   C.ar      1 RES1   0.0000
    51 H15      3.4586   7.1437   0.4740   H         1 RES1   0.0000
    52 C28      9.5386   1.8007   2.4500   C.ar      1 RES1   0.0000
    53 H16      9.8867   1.0213   2.0808   H         1 RES1   0.0000
    54 C29      8.1880   1.9126   2.6311   C.ar      1 RES1   0.0000
    55 H17      7.6141   1.2293   2.3666   H         1 RES1   0.0000
    56 C30     11.8003   2.8236   2.6596   C.ar      1 RES1   0.0000
    57 H18     12.2167   2.0758   2.2952   H         1 RES1   0.0000
    58 C31      6.1222   7.4272   0.3549   C.ar      1 RES1   0.0000
    59 H19      5.7486   7.7533  -0.4324   H         1 RES1   0.0000
    60 C32      7.4990   7.4849   0.5527   C.ar      1 RES1   0.0000
    61 H20      8.0536   7.8575  -0.0941   H         1 RES1   0.0000
    62 S1       5.6204   3.4414  -0.2334   S.o2      2 RES2   0.0000
    63 S2       3.5549   2.1485   1.1172   S.o2      2 RES2   0.0000
    64 F1       7.1460   1.3497  -0.4383   F         2 RES2   0.0000
    65 O3       6.7391   4.1584   0.2477   O.2       2 RES2   0.0000
    66 F2       4.0717   2.4099   3.6506   F         2 RES2   0.0000
    67 F3       5.4965   1.3049  -1.7532   F         2 RES2   0.0000
    68 F4       4.6757   0.4794   2.8252   F         2 RES2   0.0000
    69 O4       2.5279   3.1080   1.2256   O.2       2 RES2   0.0000
    70 O5       3.2954   0.9304   0.3049   O.2       2 RES2   0.0000
    71 F5       7.1599   2.5709  -2.1094   F         2 RES2   0.0000
    72 F6       2.6348   0.8781   3.1563   F         2 RES2   0.0000
    73 N5       5.0068   2.7402   1.0350   N.2       2 RES2  -1.0000
    74 O6       4.6976   4.0305  -1.1029   O.2       2 RES2   0.0000
    75 C33      6.3925   2.0906  -1.1780   C.3       2 RES2   0.0000
    76 C34      3.7353   1.4617   2.7680   C.3       2 RES2   0.0000
@<TRIPOS>BOND
     1     1    21    1
     2     2    40    1
     3     3     4    1
     4     4    19    1
     5     5     3    1
     6     6     3    1
     7     7     3    1
     8     8     3    1
     9     9     3    1
    10    10     7    2
    11    11    10    1
    12    12     9   ar
    13    13     8    2
    14    14    13    1
    15    15     8    1
    16    16     7    1
    17    17    13    1
    18    18     6   ar
    19    19    17   ar
    20    20    10    1
    21    21    22   ar
    22    22    20   ar
    23    23    22    1
    24    24    15   ar
    25    25    24    1
    26    26     5    1
    27    27     6   ar
    28    28    27    1
    29    29    18   ar
    30    30    19   ar
    31    31    30    1
    32    32    33    1
    33    34    24   ar
    34    35    34    1
    35    36     9   ar
    36    37    36    1
    37    38    30   ar
    38    39    38    1
    39    40    38   ar
    40    41    17   ar
    41    42    41    1
    42    43    12   ar
    43    44    16   ar
    44    45    44    1
    45    46    26   ar
    46    47    46    1
    47    48    21   ar
    48    49    48    1
    49    50    29   ar
    50    51    50    1
    51    52    43   ar
    52    53    52    1
    53    54    36   ar
    54    55    54    1
    55    56    34   ar
    56    57    56    1
    57    58    29   ar
    58    59    58    1
    59    60    27   ar
    60    61    60    1
    61    12    15   ar
    62    16    18   ar
    63    20    26   ar
    64    32    44   ar
    65    32    50   ar
    66    40    41   ar
    67    43    56   ar
    68    46    48   ar
    69    52    54   ar
    70    58    60   ar
    71    62    65    2
    72    63    69    2
    73    64    75    1
    74    66    76    1
    75    67    75    1
    76    68    76    1
    77    70    63    2
    78    71    75    1
    79    72    76    1
    80    73    62    1
    81    74    62    2
    82    75    62    1
    83    76    63    1
    84    63    73    1
@<TRIPOS>SUBSTRUCTURE
     1 RES1        1 GROUP             0 ****  ****    0  
     2 RES2       62 GROUP             0 ****  ****    0  
@<TRIPOS>CRYSIN
   12.5740   12.9340   12.8850   78.7900   67.8800   68.5800     2     1
