@<TRIPOS>MOLECULE
LECLUD21
    76    84     2     0     0
SMALL
USER_CHARGES
****
Generated from the CSD

@<TRIPOS>ATOM
     1 I1      -3.3453  -4.1860 -10.6348   I         1 RES1   0.0000
     2 I2     -15.0850  -6.1380  -6.0447   I         1 RES1   0.0000
     3 Fe1     -8.2150  -5.4868  -4.9641   Fe        1 RES1   1.0000
     4 O1      -7.5872  -6.0493  -6.8254   O.3       1 RES1   0.0000
     5 O2      -9.6074  -4.6401  -5.7203   O.3       1 RES1   0.0000
     6 N1      -7.0345  -3.7839  -4.9605   N.2       1 RES1   0.0000
     7 N2      -8.4374  -4.5933  -2.8156   N.ar      1 RES1   0.0000
     8 N3      -9.3209  -7.1971  -4.6064   N.2       1 RES1   0.0000
     9 N4      -6.9905  -6.7886  -3.9383   N.ar      1 RES1   0.0000
    10 C1      -6.6331  -5.6668  -7.5437   C.ar      1 RES1   0.0000
    11 C2      -6.2784  -6.4305  -8.7669   C.ar      1 RES1   0.0000
    12 H1      -6.7236  -7.2286  -8.9327   H         1 RES1   0.0000
    13 C3      -5.3637  -6.0318  -9.6284   C.ar      1 RES1   0.0000
    14 H2      -5.1556  -6.5087 -10.3995   H         1 RES1   0.0000
    15 C4      -4.7301  -4.8263  -9.2843   C.ar      1 RES1   0.0000
    16 C5      -5.0293  -4.0544  -8.0737   C.ar      1 RES1   0.0000
    17 H3      -4.5730  -3.2570  -7.9255   H         1 RES1   0.0000
    18 C6      -5.9594  -4.4660  -7.1532   C.ar      1 RES1   0.0000
    19 C7      -6.2103  -3.5971  -5.9200   C.2       1 RES1   0.0000
    20 H4      -5.6925  -2.8266  -5.8597   H         1 RES1   0.0000
    21 C8      -7.1719  -2.8640  -3.7461   C.ar      1 RES1   0.0000
    22 C9      -6.6601  -1.5920  -3.5816   C.ar      1 RES1   0.0000
    23 H5      -6.1780  -1.2129  -4.2811   H         1 RES1   0.0000
    24 C10     -6.8443  -0.7960  -2.3270   C.ar      1 RES1   0.0000
    25 H6      -6.4675   0.0540  -2.2956   H         1 RES1   0.0000
    26 C11     -7.5345  -1.2317  -1.2131   C.ar      1 RES1   0.0000
    27 H7      -7.6283  -0.7165  -0.4446   H         1 RES1   0.0000
    28 C12     -8.0874  -2.5260  -1.3400   C.ar      1 RES1   0.0000
    29 C13     -7.9163  -3.3275  -2.6146   C.ar      1 RES1   0.0000
    30 C14     -8.8076  -3.0951  -0.2411   C.ar      1 RES1   0.0000
    31 H8      -8.9379  -2.6374   0.5576   H         1 RES1   0.0000
    32 C15     -9.2917  -4.3504  -0.4458   C.ar      1 RES1   0.0000
    33 H9      -9.7543  -4.7758   0.2386   H         1 RES1   0.0000
    34 C16     -9.0955  -5.0634  -1.7506   C.ar      1 RES1   0.0000
    35 H10     -9.4661  -5.9136  -1.8260   H         1 RES1   0.0000
    36 C17    -10.7787  -4.9791  -5.7002   C.ar      1 RES1   0.0000
    37 C18    -11.5989  -4.0627  -6.1749   C.ar      1 RES1   0.0000
    38 H11    -11.2946  -3.2261  -6.4399   H         1 RES1   0.0000
    39 C19    -12.8093  -4.3748  -6.2515   C.ar      1 RES1   0.0000
    40 H12    -13.4217  -3.7603  -6.5855   H         1 RES1   0.0000
    41 C20    -13.2512  -5.6332  -5.8446   C.ar      1 RES1   0.0000
    42 C21    -12.4722  -6.5370  -5.3774   C.ar      1 RES1   0.0000
    43 H13    -12.7962  -7.3694  -5.1200   H         1 RES1   0.0000
    44 C22    -11.2114  -6.2415  -5.2757   C.ar      1 RES1   0.0000
    45 C23    -10.4741  -7.2744  -4.7972   C.2       1 RES1   0.0000
    46 H14    -10.9033  -8.0790  -4.6126   H         1 RES1   0.0000
    47 C24     -8.7007  -8.3122  -4.1153   C.ar      1 RES1   0.0000
    48 C25     -9.1812  -9.5811  -3.9420   C.ar      1 RES1   0.0000
    49 H15    -10.0694  -9.7433  -4.1643   H         1 RES1   0.0000
    50 C26     -8.4674 -10.5929  -3.4799   C.ar      1 RES1   0.0000
    51 H16     -8.8430 -11.4379  -3.3844   H         1 RES1   0.0000
    52 C27     -7.2860 -10.3841  -3.1772   C.ar      1 RES1   0.0000
    53 H17     -6.7570 -11.0817  -2.8608   H         1 RES1   0.0000
    54 C28     -6.7393  -9.0925  -3.3104   C.ar      1 RES1   0.0000
    55 C29     -7.4667  -8.0600  -3.7838   C.ar      1 RES1   0.0000
    56 C30     -5.4919  -8.7620  -2.9700   C.ar      1 RES1   0.0000
    57 H18     -4.9130  -9.4067  -2.6310   H         1 RES1   0.0000
    58 C31     -5.0753  -7.4955  -3.1220   C.ar      1 RES1   0.0000
    59 H19     -4.2055  -7.2859  -2.8696   H         1 RES1   0.0000
    60 C32     -5.8422  -6.5216  -3.6143   C.ar      1 RES1   0.0000
    61 H20     -5.5095  -5.6571  -3.7084   H         1 RES1   0.0000
    62 S1      -3.9132  -2.7051  -1.7870   S.o2      2 RES2   0.0000
    63 S2      -5.1951  -4.1264   0.3064   S.o2      2 RES2   0.0000
    64 F1      -1.8727  -2.6949  -3.0466   F         2 RES2   0.0000
    65 F2      -1.7534  -2.7204  -0.7146   F         2 RES2   0.0000
    66 F3      -2.3086  -4.4435  -1.9842   F         2 RES2   0.0000
    67 F4      -3.6981  -6.0130  -0.1319   F         2 RES2   0.0000
    68 F5      -3.3786  -4.8859   1.9051   F         2 RES2   0.0000
    69 F6      -4.8435  -6.3066   1.6828   F         2 RES2   0.0000
    70 O3      -4.4714  -3.4587  -2.9386   O.2       2 RES2   0.0000
    71 O4      -3.8427  -1.3101  -1.7921   O.2       2 RES2   0.0000
    72 O5      -5.9677  -4.8018  -0.7472   O.2       2 RES2   0.0000
    73 O6      -5.7223  -3.6726   1.6652   O.2       2 RES2   0.0000
    74 N5      -4.2849  -3.0216  -0.1620   N.2       2 RES2  -1.0000
    75 C33     -2.3525  -3.0886  -1.8209   C.3       2 RES2   0.0000
    76 C34     -4.2116  -5.3894   0.9695   C.3       2 RES2   0.0000
@<TRIPOS>BOND
     1     1    15    1
     2     2    41    1
     3     3     4    1
     4     4    10    1
     5     5     3    1
     6     6     3    1
     7     7     3    1
     8     8     3    1
     9     9     3    1
    10    10    11   ar
    11    11    12    1
    12    13    11   ar
    13    14    13    1
    14    15    13   ar
    15    16    15   ar
    16    17    16    1
    17    18    10   ar
    18    19     6    2
    19    20    19    1
    20    21     6    1
    21    22    21   ar
    22    23    22    1
    23    24    22   ar
    24    25    24    1
    25    26    24   ar
    26    27    26    1
    27    28    26   ar
    28    29     7   ar
    29    30    28   ar
    30    31    30    1
    31    32    30   ar
    32    33    32    1
    33    34     7   ar
    34    35    34    1
    35    36     5    1
    36    37    36   ar
    37    38    37    1
    38    39    37   ar
    39    40    39    1
    40    41    39   ar
    41    42    41   ar
    42    43    42    1
    43    44    36   ar
    44    45     8    2
    45    46    45    1
    46    47     8    1
    47    48    47   ar
    48    49    48    1
    49    50    48   ar
    50    51    50    1
    51    52    50   ar
    52    53    52    1
    53    54    52   ar
    54    55     9   ar
    55    56    54   ar
    56    57    56    1
    57    58    56   ar
    58    59    58    1
    59    60     9   ar
    60    61    60    1
    61    16    18   ar
    62    18    19    1
    63    21    29   ar
    64    28    29   ar
    65    32    34   ar
    66    42    44   ar
    67    44    45    1
    68    47    55   ar
    69    54    55   ar
    70    58    60   ar
    71    62    70    2
    72    63    72    2
    73    64    75    1
    74    65    75    1
    75    66    75    1
    76    67    76    1
    77    68    76    1
    78    69    76    1
    79    71    62    2
    80    73    63    2
    81    74    62    1
    82    75    62    1
    83    76    63    1
    84    63    74    1
@<TRIPOS>SUBSTRUCTURE
     1 RES1        1 GROUP             0 ****  ****    0  
     2 RES2       62 GROUP             0 ****  ****    0  
@<TRIPOS>CRYSIN
   12.3157   12.7691   13.6998   66.6040   79.3550   68.9500     2     1
