@<TRIPOS>MOLECULE
LECLUD08
    76    84     2     0     0
SMALL
USER_CHARGES
****
Generated from the CSD

@<TRIPOS>ATOM
     1 I1       2.7310   4.8094  10.4211   I         1 RES1   0.0000
     2 I2      10.0317  13.9526   6.2324   I         1 RES1   0.0000
     3 Fe1      6.9614   6.9191   4.5400   Fe        1 RES1   1.0000
     4 O1       7.1046   6.5588   6.2074   O.3       1 RES1   0.0000
     5 O2       6.4499   8.8112   5.2382   O.3       1 RES1   0.0000
     6 N1       8.9172   7.2493   4.3353   N.2       1 RES1   0.0000
     7 N2       5.0203   6.5472   4.6989   N.2       1 RES1   0.0000
     8 N3       6.7140   7.1053   2.7317   N.ar      1 RES1   0.0000
     9 N4       7.6349   4.9897   3.6563   N.ar      1 RES1   0.0000
    10 C1       9.4268   8.4433   4.7182   C.2       1 RES1   0.0000
    11 H1      10.3644   8.5087   4.6796   H         1 RES1   0.0000
    12 C2       4.2921   6.3191   5.7836   C.2       1 RES1   0.0000
    13 H2       3.3566   6.3403   5.6909   H         1 RES1   0.0000
    14 C3       4.4298   6.6877   3.5576   C.ar      1 RES1   0.0000
    15 C4       6.1369   6.1967   7.0538   C.ar      1 RES1   0.0000
    16 C5       8.7035   9.7118   5.2106   C.ar      1 RES1   0.0000
    17 C6       7.2546   9.8691   5.4369   C.ar      1 RES1   0.0000
    18 C7       4.1910   5.4380   9.0161   C.ar      1 RES1   0.0000
    19 C8       3.7718   5.7365   7.8724   C.ar      1 RES1   0.0000
    20 H3       2.8542   5.7302   7.6690   H         1 RES1   0.0000
    21 C9       9.0229   4.8246   3.4239   C.ar      1 RES1   0.0000
    22 C10      4.7456   6.0837   6.8960   C.ar      1 RES1   0.0000
    23 C11      9.7522   6.0342   3.7863   C.ar      1 RES1   0.0000
    24 C12      5.3905   6.9793   2.5246   C.ar      1 RES1   0.0000
    25 C13      6.6673  11.1993   5.8835   C.ar      1 RES1   0.0000
    26 H4       5.7382  11.2510   6.0208   H         1 RES1   0.0000
    27 C14      2.6920   6.7392   2.2345   C.ar      1 RES1   0.0000
    28 H5       1.7732   6.7124   2.0370   H         1 RES1   0.0000
    29 C15      8.8389  12.2040   5.8908   C.ar      1 RES1   0.0000
    30 C16      7.6530   7.3593   1.7601   C.ar      1 RES1   0.0000
    31 H6       8.5600   7.4065   2.0009   H         1 RES1   0.0000
    32 C17      6.4772   5.8980   8.2216   C.ar      1 RES1   0.0000
    33 H7       7.3842   5.9286   8.4659   H         1 RES1   0.0000
    34 C18      6.9264   3.8842   3.2795   C.ar      1 RES1   0.0000
    35 H8       5.9947   3.9157   3.3914   H         1 RES1   0.0000
    36 C19      9.7125   3.5462   2.8629   C.ar      1 RES1   0.0000
    37 C20     11.1531   5.9210   3.5961   C.ar      1 RES1   0.0000
    38 H9      11.6936   6.6619   3.8032   H         1 RES1   0.0000
    39 C21      5.5176   5.5218   9.1642   C.ar      1 RES1   0.0000
    40 H10      5.8467   5.2959  10.0142   H         1 RES1   0.0000
    41 C22      8.9046   2.4059   2.4740   C.ar      1 RES1   0.0000
    42 H11      9.2685   1.6176   2.1141   H         1 RES1   0.0000
    43 C23      9.4707  10.9222   5.4790   C.ar      1 RES1   0.0000
    44 H12     10.4059  10.8916   5.3875   H         1 RES1   0.0000
    45 C24     11.8310   4.6527   3.0688   C.ar      1 RES1   0.0000
    46 H13     12.7682   4.6523   2.9929   H         1 RES1   0.0000
    47 C25      7.4315  12.3501   6.1015   C.ar      1 RES1   0.0000
    48 H14      7.0473  13.1648   6.3699   H         1 RES1   0.0000
    49 C26      3.0681   6.5263   3.3577   C.ar      1 RES1   0.0000
    50 H15      2.4831   6.2707   4.0476   H         1 RES1   0.0000
    51 C27      7.5160   2.5903   2.6859   C.ar      1 RES1   0.0000
    52 H16      6.9292   1.8924   2.4548   H         1 RES1   0.0000
    53 C28      4.9999   7.1456   1.3327   C.ar      1 RES1   0.0000
    54 C29      3.6111   7.0242   1.2244   C.ar      1 RES1   0.0000
    55 H17      3.2527   7.1493   0.3636   H         1 RES1   0.0000
    56 C30      6.0145   7.4304   0.3612   C.ar      1 RES1   0.0000
    57 H18      5.7111   7.5606  -0.5201   H         1 RES1   0.0000
    58 C31      7.3242   7.5330   0.5442   C.ar      1 RES1   0.0000
    59 H19      7.9378   7.7120  -0.1445   H         1 RES1   0.0000
    60 C32     11.1256   3.4678   2.6847   C.ar      1 RES1   0.0000
    61 H20     11.5573   2.7045   2.3464   H         1 RES1   0.0000
    62 S1       5.5432   3.3201  -0.1790   S.o2      2 RES2   0.0000
    63 S2       3.2602   2.3457   1.1609   S.o2      2 RES2   0.0000
    64 F1       3.3442   3.2564   3.7165   F         2 RES2   0.0000
    65 F2       5.6770   0.7868  -1.6759   F         2 RES2   0.0000
    66 F3       7.2306   1.2335  -0.4575   F         2 RES2   0.0000
    67 O3       6.5930   4.1916   0.2625   O.2       2 RES2   0.0000
    68 F4       4.0810   1.1433   2.8978   F         2 RES2   0.0000
    69 F5       7.3105   2.0227  -2.1935   F         2 RES2   0.0000
    70 O4       2.2238   3.3683   1.2786   O.2       2 RES2   0.0000
    71 O5       4.7429   3.6929  -1.0619   O.2       2 RES2   0.0000
    72 O6       3.1344   0.9931   0.3347   O.2       2 RES2   0.0000
    73 F6       1.9463   1.6622   3.2458   F         2 RES2   0.0000
    74 N5       4.7407   2.9011   1.0643   N.2       2 RES2  -1.0000
    75 C33      6.4738   1.7584  -1.1606   C.3       2 RES2   0.0000
    76 C34      3.1569   2.1039   2.8437   C.3       2 RES2   0.0000
@<TRIPOS>BOND
     1     1    18    1
     2     2    29    1
     3     3     4    1
     4     4    15    1
     5     5     3    1
     6     6     3    1
     7     7     3    1
     8     8     3    1
     9     9     3    1
    10    10     6    2
    11    11    10    1
    12    12     7    2
    13    13    12    1
    14    14     7    1
    15    15    22   ar
    16    16    10    1
    17    17     5    1
    18    18    19   ar
    19    19    20    1
    20    21     9   ar
    21    22    12    1
    22    23     6    1
    23    24     8   ar
    24    25    17   ar
    25    26    25    1
    26    27    28    1
    27    29    43   ar
    28    30     8   ar
    29    31    30    1
    30    32    15   ar
    31    33    32    1
    32    34     9   ar
    33    35    34    1
    34    36    21   ar
    35    37    23   ar
    36    38    37    1
    37    39    18   ar
    38    40    39    1
    39    41    36   ar
    40    42    41    1
    41    43    16   ar
    42    44    43    1
    43    45    37   ar
    44    46    45    1
    45    47    25   ar
    46    48    47    1
    47    49    14   ar
    48    50    49    1
    49    51    34   ar
    50    52    51    1
    51    53    24   ar
    52    54    27   ar
    53    55    54    1
    54    56    53   ar
    55    57    56    1
    56    58    30   ar
    57    59    58    1
    58    60    36   ar
    59    61    60    1
    60    14    24   ar
    61    16    17   ar
    62    19    22   ar
    63    21    23   ar
    64    27    49   ar
    65    29    47   ar
    66    32    39   ar
    67    41    51   ar
    68    45    60   ar
    69    53    54   ar
    70    56    58   ar
    71    62    67    2
    72    63    70    2
    73    64    76    1
    74    65    75    1
    75    66    75    1
    76    68    76    1
    77    69    75    1
    78    71    62    2
    79    72    63    2
    80    73    76    1
    81    74    62    1
    82    75    62    1
    83    76    63    1
    84    63    74    1
@<TRIPOS>SUBSTRUCTURE
     1 RES1        1 GROUP             0 ****  ****    0  
     2 RES2       62 GROUP             0 ****  ****    0  
@<TRIPOS>CRYSIN
   12.4560   12.7240   12.9660   68.7100   78.1900   68.6100     2     1
