@<TRIPOS>MOLECULE
LECLUD14
    76    84     2     0     0
SMALL
USER_CHARGES
****
Generated from the CSD

@<TRIPOS>ATOM
     1 I1       4.5181   2.1261  10.3469   I         1 RES1   0.0000
     2 I2      11.2011  12.3998   6.1713   I         1 RES1   0.0000
     3 Fe1      7.7875   5.7913   4.5289   Fe        1 RES1   1.0000
     4 O1       7.4328   7.5192   5.2265   O.3       1 RES1   0.0000
     5 O2       8.1835   4.9978   6.1974   O.3       1 RES1   0.0000
     6 N1       9.7211   6.1750   4.3072   N.2       1 RES1   0.0000
     7 N2       5.8419   5.3768   4.6747   N.2       1 RES1   0.0000
     8 N3       7.2076   6.4276   2.7066   N.ar      1 RES1   0.0000
     9 N4       8.3321   4.0840   3.6200   N.ar      1 RES1   0.0000
    10 C1       9.6684   8.4478   5.1739   C.ar      1 RES1   0.0000
    11 C2       5.0740   5.8076   3.5458   C.ar      1 RES1   0.0000
    12 C3      10.3164   7.2780   4.6639   C.2       1 RES1   0.0000
    13 H1      11.2417   7.3073   4.5801   H         1 RES1   0.0000
    14 C4      10.4788   5.0918   3.7613   C.ar      1 RES1   0.0000
    15 C5       7.3588   4.3912   7.0246   C.ar      1 RES1   0.0000
    16 C6       8.2721   8.5220   5.3953   C.ar      1 RES1   0.0000
    17 C7       5.9532   4.3206   6.8510   C.ar      1 RES1   0.0000
    18 C8       5.8603   6.3781   2.5127   C.ar      1 RES1   0.0000
    19 C9       5.7171   3.1193   8.9376   C.ar      1 RES1   0.0000
    20 C10      5.2779   4.8404   5.7018   C.2       1 RES1   0.0000
    21 H2       4.3486   4.7863   5.6958   H         1 RES1   0.0000
    22 C11      5.1561   3.6932   7.8410   C.ar      1 RES1   0.0000
    23 H3       4.2325   3.6758   7.7393   H         1 RES1   0.0000
    24 C12      7.5486   3.0764   3.2501   C.ar      1 RES1   0.0000
    25 H4       6.6326   3.1477   3.3878   H         1 RES1   0.0000
    26 C13      9.6972   3.9756   3.4046   C.ar      1 RES1   0.0000
    27 C14      5.2534   6.8433   1.3360   C.ar      1 RES1   0.0000
    28 C15      3.1153   6.2089   2.2194   C.ar      1 RES1   0.0000
    29 H5       2.1922   6.1502   2.1225   H         1 RES1   0.0000
    30 C16      7.7729   9.7696   5.8490   C.ar      1 RES1   0.0000
    31 H6       6.8609   9.8523   6.0095   H         1 RES1   0.0000
    32 C17      7.8974   3.7863   8.1822   C.ar      1 RES1   0.0000
    33 H7       8.8168   3.8052   8.3187   H         1 RES1   0.0000
    34 C18      9.3946   1.7839   2.4624   C.ar      1 RES1   0.0000
    35 H8       9.7355   1.0075   2.0794   H         1 RES1   0.0000
    36 C19      7.0849   3.1678   9.1171   C.ar      1 RES1   0.0000
    37 H9       7.4645   2.7820   9.8737   H         1 RES1   0.0000
    38 C20      7.9741   6.9275   1.7466   C.ar      1 RES1   0.0000
    39 H10      8.8930   6.9580   1.8795   H         1 RES1   0.0000
    40 C21      3.8515   6.7539   1.2270   C.ar      1 RES1   0.0000
    41 H11      3.4283   7.0737   0.4633   H         1 RES1   0.0000
    42 C22     12.4381   3.8860   3.0466   C.ar      1 RES1   0.0000
    43 H12     13.3601   3.8555   2.9293   H         1 RES1   0.0000
    44 C23      9.9356  10.7469   5.8419   C.ar      1 RES1   0.0000
    45 C24      3.7175   5.7296   3.3986   C.ar      1 RES1   0.0000
    46 H13      3.1948   5.3602   4.0749   H         1 RES1   0.0000
    47 C25     10.4850   9.5620   5.4133   C.ar      1 RES1   0.0000
    48 H14     11.4031   9.4981   5.2804   H         1 RES1   0.0000
    49 C26      8.0613   1.9014   2.6564   C.ar      1 RES1   0.0000
    50 H15      7.4875   1.2147   2.4014   H         1 RES1   0.0000
    51 C27     10.2878   2.8350   2.8395   C.ar      1 RES1   0.0000
    52 C28     11.6691   2.8068   2.6911   C.ar      1 RES1   0.0000
    53 H16     12.0774   2.0464   2.3451   H         1 RES1   0.0000
    54 C29      6.0932   7.3613   0.3484   C.ar      1 RES1   0.0000
    55 H17      5.7308   7.6786  -0.4477   H         1 RES1   0.0000
    56 C30      7.4542   7.4054   0.5483   C.ar      1 RES1   0.0000
    57 H18      8.0172   7.7490  -0.1065   H         1 RES1   0.0000
    58 C31     11.8378   5.0451   3.5889   C.ar      1 RES1   0.0000
    59 H19     12.3641   5.7747   3.8283   H         1 RES1   0.0000
    60 C32      8.5685  10.8447   6.0597   C.ar      1 RES1   0.0000
    61 H20      8.1982  11.6471   6.3482   H         1 RES1   0.0000
    62 S1       5.5576   3.3862  -0.1946   S.o2      2 RES2   0.0000
    63 O3       4.6079   3.9808  -1.0738   O.2       2 RES2   0.0000
    64 O4       6.6846   4.1380   0.2502   O.2       2 RES2   0.0000
    65 N5       4.9777   2.6602   1.0558   N.2       2 RES2  -1.0000
    66 C33      6.3302   2.0574  -1.1648   C.3       2 RES2   0.0000
    67 S2       3.4989   2.0882   1.1442   S.o2      2 RES2   0.0000
    68 F1       5.4335   1.2373  -1.6975   F         2 RES2   0.0000
    69 F2       7.1461   1.3311  -0.4537   F         2 RES2   0.0000
    70 F3       7.0026   2.5764  -2.1703   F         2 RES2   0.0000
    71 O5       2.4843   3.0711   1.2558   O.2       2 RES2   0.0000
    72 F4       4.0172   2.3533   3.6955   F         2 RES2   0.0000
    73 F5       4.6010   0.4519   2.8730   F         2 RES2   0.0000
    74 O6       3.2320   0.9294   0.3136   O.2       2 RES2   0.0000
    75 F6       2.5447   0.8789   3.2190   F         2 RES2   0.0000
    76 C34      3.6761   1.3925   2.8216   C.3       2 RES2   0.0000
@<TRIPOS>BOND
     1     1    19    1
     2     2    44    1
     3     3     4    1
     4     4    16    1
     5     5     3    1
     6     6     3    1
     7     7     3    1
     8     8     3    1
     9     9     3    1
    10    10    12    1
    11    11     7    1
    12    12     6    2
    13    13    12    1
    14    14     6    1
    15    15     5    1
    16    16    10   ar
    17    17    15   ar
    18    18     8   ar
    19    19    22   ar
    20    20     7    2
    21    21    20    1
    22    22    17   ar
    23    23    22    1
    24    24     9   ar
    25    25    24    1
    26    26     9   ar
    27    27    18   ar
    28    28    29    1
    29    30    16   ar
    30    31    30    1
    31    32    15   ar
    32    33    32    1
    33    34    35    1
    34    36    19   ar
    35    37    36    1
    36    38     8   ar
    37    39    38    1
    38    40    27   ar
    39    41    40    1
    40    42    43    1
    41    44    47   ar
    42    45    11   ar
    43    46    45    1
    44    47    10   ar
    45    48    47    1
    46    49    24   ar
    47    50    49    1
    48    51    26   ar
    49    52    42   ar
    50    53    52    1
    51    54    27   ar
    52    55    54    1
    53    56    38   ar
    54    57    56    1
    55    58    14   ar
    56    59    58    1
    57    60    30   ar
    58    61    60    1
    59    11    18   ar
    60    14    26   ar
    61    17    20    1
    62    28    40   ar
    63    28    45   ar
    64    32    36   ar
    65    34    49   ar
    66    34    51   ar
    67    42    58   ar
    68    44    60   ar
    69    51    52   ar
    70    54    56   ar
    71    62    63    2
    72    64    62    2
    73    65    62    1
    74    66    62    1
    75    67    65    1
    76    68    66    1
    77    69    66    1
    78    70    66    1
    79    71    67    2
    80    72    76    1
    81    73    76    1
    82    74    67    2
    83    75    76    1
    84    76    67    1
@<TRIPOS>SUBSTRUCTURE
     1 RES1        1 GROUP             0 ****  ****    0  
     2 RES2       62 GROUP             0 ****  ****    0  
@<TRIPOS>CRYSIN
   12.4930   12.8020   12.9100   78.3800   68.4400   68.4900     2     1
