@<TRIPOS>MOLECULE
LECLUD16
    76    84     2     0     0
SMALL
USER_CHARGES
****
Generated from the CSD

@<TRIPOS>ATOM
     1 I1       4.6119   1.9184  10.3556   I         1 RES1   0.0000
     2 I2      11.3728  12.2756   6.1325   I         1 RES1   0.0000
     3 Fe1      7.9027   5.7344   4.5891   Fe        1 RES1   1.0000
     4 O1       7.6095   7.4668   5.2912   O.3       1 RES1   0.0000
     5 N1       9.8996   6.1086   4.3489   N.2       1 RES1   0.0000
     6 O2       8.2466   4.8974   6.2853   O.3       1 RES1   0.0000
     7 N2       5.9284   5.3025   4.7046   N.2       1 RES1   0.0000
     8 N3       8.5348   4.0172   3.6240   N.ar      1 RES1   0.0000
     9 N4       7.2727   6.3863   2.7117   N.ar      1 RES1   0.0000
    10 C1      10.4776   7.2071   4.6770   C.2       1 RES1   0.0000
    11 H1      11.4016   7.2490   4.5796   H         1 RES1   0.0000
    12 C2      10.6497   5.0491   3.7959   C.ar      1 RES1   0.0000
    13 C3       9.8223   8.3576   5.1770   C.ar      1 RES1   0.0000
    14 C4       9.8746   3.9607   3.3969   C.ar      1 RES1   0.0000
    15 C5       5.9990   4.1723   6.8791   C.ar      1 RES1   0.0000
    16 C6       8.4191   8.4890   5.4403   C.ar      1 RES1   0.0000
    17 C7      12.0123   4.9834   3.6144   C.ar      1 RES1   0.0000
    18 H2      12.5361   5.7130   3.8536   H         1 RES1   0.0000
    19 C8      10.4832   2.8358   2.8475   C.ar      1 RES1   0.0000
    20 C9       5.7821   2.9315   8.9597   C.ar      1 RES1   0.0000
    21 C10      5.2485   3.4920   7.8647   C.ar      1 RES1   0.0000
    22 H3       4.3280   3.4288   7.7457   H         1 RES1   0.0000
    23 C11      5.1421   5.7474   3.5916   C.ar      1 RES1   0.0000
    24 C12      7.4478   4.2809   7.0810   C.ar      1 RES1   0.0000
    25 C13      8.7421  10.7443   6.0737   C.ar      1 RES1   0.0000
    26 H4       8.3847  11.5552   6.3562   H         1 RES1   0.0000
    27 C14      5.3585   4.7016   5.7215   C.2       1 RES1   0.0000
    28 H5       4.4340   4.6099   5.6831   H         1 RES1   0.0000
    29 C15     10.1063  10.6570   5.8502   C.ar      1 RES1   0.0000
    30 C16     12.6164   3.8672   3.0904   C.ar      1 RES1   0.0000
    31 H6      13.5431   3.8466   3.0050   H         1 RES1   0.0000
    32 C17      5.9251   6.3329   2.5362   C.ar      1 RES1   0.0000
    33 C18      3.8028   5.6857   3.4558   C.ar      1 RES1   0.0000
    34 H7       3.2867   5.3100   4.1313   H         1 RES1   0.0000
    35 C19      7.9190   9.7001   5.8958   C.ar      1 RES1   0.0000
    36 H8       7.0118   9.7885   6.0797   H         1 RES1   0.0000
    37 C20      5.3121   6.7891   1.3715   C.ar      1 RES1   0.0000
    38 C21      3.8841   6.7639   1.2489   C.ar      1 RES1   0.0000
    39 H9       3.4656   7.1222   0.5012   H         1 RES1   0.0000
    40 C22     11.8862   2.7944   2.6937   C.ar      1 RES1   0.0000
    41 H10     12.3018   2.0466   2.3283   H         1 RES1   0.0000
    42 C23      3.1584   6.2051   2.2526   C.ar      1 RES1   0.0000
    43 H11      2.2343   6.1526   2.1720   H         1 RES1   0.0000
    44 C24     10.6327   9.4562   5.4066   C.ar      1 RES1   0.0000
    45 H12     11.5487   9.3855   5.2600   H         1 RES1   0.0000
    46 C25      6.1361   7.3567   0.3558   C.ar      1 RES1   0.0000
    47 H13      5.7553   7.6831  -0.4279   H         1 RES1   0.0000
    48 C26      9.5984   1.7530   2.4425   C.ar      1 RES1   0.0000
    49 H14      9.9439   0.9972   2.0242   H         1 RES1   0.0000
    50 C27      7.7585   3.0353   3.2334   C.ar      1 RES1   0.0000
    51 H15      6.8376   3.1232   3.3271   H         1 RES1   0.0000
    52 C28      8.0165   6.8735   1.7465   C.ar      1 RES1   0.0000
    53 H16      8.9415   6.8700   1.8475   H         1 RES1   0.0000
    54 C29      8.2800   1.8553   2.6781   C.ar      1 RES1   0.0000
    55 H17      7.7138   1.1468   2.4737   H         1 RES1   0.0000
    56 C30      7.4511   7.4129   0.5385   C.ar      1 RES1   0.0000
    57 H18      7.9996   7.7964  -0.1070   H         1 RES1   0.0000
    58 C31      7.9800   3.6500   8.2542   C.ar      1 RES1   0.0000
    59 H19      8.8949   3.6872   8.4176   H         1 RES1   0.0000
    60 C32      7.1491   2.9779   9.1569   C.ar      1 RES1   0.0000
    61 H20      7.5218   2.5572   9.8985   H         1 RES1   0.0000
    62 S1       5.6337   3.4098  -0.2560   S.o2      2 RES2   0.0000
    63 S2       3.5804   2.1698   1.1179   S.o2      2 RES2   0.0000
    64 F1       7.1590   1.3289  -0.4051   F         2 RES2   0.0000
    65 O3       6.7416   4.1286   0.2416   O.2       2 RES2   0.0000
    66 F2       5.5322   1.3134  -1.8222   F         2 RES2   0.0000
    67 O4       2.5409   3.0641   1.2212   O.2       2 RES2   0.0000
    68 F3       7.2198   2.5222  -2.1023   F         2 RES2   0.0000
    69 F4       4.1152   2.4093   3.6709   F         2 RES2   0.0000
    70 F5       4.7183   0.5097   2.7850   F         2 RES2   0.0000
    71 O5       3.3152   0.9282   0.2705   O.2       2 RES2   0.0000
    72 F6       2.6831   0.8839   3.1613   F         2 RES2   0.0000
    73 C33      3.8496   1.4071   2.7995   C.3       2 RES2   0.0000
    74 O6       4.7626   4.0003  -1.1479   O.2       2 RES2   0.0000
    75 N5       4.9944   2.7848   0.9965   N.2       2 RES2  -1.0000
    76 C34      6.4273   2.0758  -1.1744   C.3       2 RES2   0.0000
@<TRIPOS>BOND
     1     1    20    1
     2     2    29    1
     3     3     4    1
     4     4    16    1
     5     5     3    1
     6     6     3    1
     7     7     3    1
     8     8     3    1
     9     9     3    1
    10    10     5    2
    11    11    10    1
    12    12     5    1
    13    13    10    1
    14    14     8   ar
    15    15    21   ar
    16    16    13   ar
    17    17    12   ar
    18    18    17    1
    19    19    14   ar
    20    20    21   ar
    21    21    22    1
    22    23     7    1
    23    24     6    1
    24    25    26    1
    25    27     7    2
    26    28    27    1
    27    29    25   ar
    28    30    17   ar
    29    31    30    1
    30    32     9   ar
    31    33    23   ar
    32    34    33    1
    33    35    16   ar
    34    36    35    1
    35    37    32   ar
    36    38    37   ar
    37    39    38    1
    38    40    19   ar
    39    41    40    1
    40    42    33   ar
    41    43    42    1
    42    44    13   ar
    43    45    44    1
    44    46    37   ar
    45    47    46    1
    46    48    19   ar
    47    49    48    1
    48    50     8   ar
    49    51    50    1
    50    52     9   ar
    51    53    52    1
    52    54    48   ar
    53    55    54    1
    54    56    46   ar
    55    57    56    1
    56    58    24   ar
    57    59    58    1
    58    60    20   ar
    59    61    60    1
    60    12    14   ar
    61    15    24   ar
    62    15    27    1
    63    23    32   ar
    64    25    35   ar
    65    29    44   ar
    66    30    40   ar
    67    38    42   ar
    68    50    54   ar
    69    52    56   ar
    70    58    60   ar
    71    62    65    2
    72    63    67    2
    73    64    76    1
    74    66    76    1
    75    68    76    1
    76    69    73    1
    77    70    73    1
    78    71    63    2
    79    72    73    1
    80    73    63    1
    81    74    62    2
    82    75    62    1
    83    76    62    1
    84    63    75    1
@<TRIPOS>SUBSTRUCTURE
     1 RES1        1 GROUP             0 ****  ****    0  
     2 RES2       62 GROUP             0 ****  ****    0  
@<TRIPOS>CRYSIN
   12.5860   12.8160   13.0130   79.0200   67.7200   68.4700     2     1
