@<TRIPOS>MOLECULE
LECLUD10
    76    84     2     0     0
SMALL
USER_CHARGES
****
Generated from the CSD

@<TRIPOS>ATOM
     1 I1       2.7241   4.8304  10.4200   I         1 RES1   0.0000
     2 I2      10.0400  13.9718   6.2319   I         1 RES1   0.0000
     3 Fe1      6.9708   6.9319   4.5410   Fe        1 RES1   1.0000
     4 O1       7.1106   6.5884   6.2062   O.3       1 RES1   0.0000
     5 O2       6.4661   8.8346   5.2456   O.3       1 RES1   0.0000
     6 N1       5.0371   6.5664   4.7269   N.2       1 RES1   0.0000
     7 N2       8.9354   7.2759   4.3393   N.2       1 RES1   0.0000
     8 N3       7.6438   5.0124   3.6472   N.ar      1 RES1   0.0000
     9 C1       9.4298   8.4743   4.7160   C.2       1 RES1   0.0000
    10 H1      10.3654   8.5446   4.6607   H         1 RES1   0.0000
    11 C2       9.0368   4.8218   3.4185   C.ar      1 RES1   0.0000
    12 C3       6.0671   6.2006   7.0716   C.ar      1 RES1   0.0000
    13 C4       4.7044   6.1109   6.8116   C.ar      1 RES1   0.0000
    14 C5       3.8242   5.7530   7.8263   C.ar      1 RES1   0.0000
    15 H2       2.9033   5.6928   7.6506   H         1 RES1   0.0000
    16 C6       4.3081   5.4850   9.1022   C.ar      1 RES1   0.0000
    17 C7       5.6703   5.5734   9.3622   C.ar      1 RES1   0.0000
    18 H3       5.9969   5.3919  10.2241   H         1 RES1   0.0000
    19 C8       6.5503   5.9310   8.3463   C.ar      1 RES1   0.0000
    20 H4       7.4711   5.9912   8.5221   H         1 RES1   0.0000
    21 C9       9.7774   6.0419   3.7892   C.ar      1 RES1   0.0000
    22 C10      7.2187   7.5164   0.4935   C.ar      1 RES1   0.0000
    23 H5       7.8261   7.6948  -0.2010   H         1 RES1   0.0000
    24 C11      5.8621   7.3950   0.2167   C.ar      1 RES1   0.0000
    25 H6       5.5532   7.4899  -0.6668   H         1 RES1   0.0000
    26 C12      4.9637   7.1312   1.2434   C.ar      1 RES1   0.0000
    27 C13      5.4214   6.9904   2.5482   C.ar      1 RES1   0.0000
    28 N4       6.7783   7.1121   2.8262   N.ar      1 RES1   0.0000
    29 C14      7.6764   7.3755   1.7983   C.ar      1 RES1   0.0000
    30 H7       8.5932   7.4575   1.9861   H         1 RES1   0.0000
    31 C15      4.4212   6.6929   3.5172   C.ar      1 RES1   0.0000
    32 C16      3.0201   6.4952   3.3306   C.ar      1 RES1   0.0000
    33 H8       2.4301   6.2098   4.0034   H         1 RES1   0.0000
    34 C17      3.6149   7.0342   1.2157   C.ar      1 RES1   0.0000
    35 H9       3.2390   7.1977   0.3707   H         1 RES1   0.0000
    36 C18      8.7316   9.7281   5.2119   C.ar      1 RES1   0.0000
    37 C19      4.2872   6.3693   5.7404   C.2       1 RES1   0.0000
    38 H10      3.3561   6.4345   5.6272   H         1 RES1   0.0000
    39 C20      7.2650   9.8972   5.4226   C.ar      1 RES1   0.0000
    40 C21      8.8375  12.2207   5.8800   C.ar      1 RES1   0.0000
    41 C22      6.6794  11.2023   5.8631   C.ar      1 RES1   0.0000
    42 H11      5.7494  11.2444   5.9919   H         1 RES1   0.0000
    43 C23     11.8398   4.6746   3.0610   C.ar      1 RES1   0.0000
    44 H12     12.7756   4.6823   2.9743   H         1 RES1   0.0000
    45 C24     11.1678   5.9159   3.5834   C.ar      1 RES1   0.0000
    46 H13     11.7104   6.6561   3.7856   H         1 RES1   0.0000
    47 C25      9.4686  10.9264   5.4683   C.ar      1 RES1   0.0000
    48 H14     10.4040  10.9008   5.3708   H         1 RES1   0.0000
    49 C26      7.4282  12.3693   6.0966   C.ar      1 RES1   0.0000
    50 H15      7.0365  13.1788   6.3711   H         1 RES1   0.0000
    51 C27      9.7331   3.5704   2.8624   C.ar      1 RES1   0.0000
    52 C28      6.9405   3.8963   3.2788   C.ar      1 RES1   0.0000
    53 H16      6.0088   3.9268   3.3980   H         1 RES1   0.0000
    54 C29      8.9103   2.4166   2.4808   C.ar      1 RES1   0.0000
    55 H17      9.2733   1.6248   2.1281   H         1 RES1   0.0000
    56 C30     11.1263   3.4620   2.6806   C.ar      1 RES1   0.0000
    57 H18     11.5493   2.6912   2.3484   H         1 RES1   0.0000
    58 C31      7.5187   2.6023   2.6914   C.ar      1 RES1   0.0000
    59 H19      6.9305   1.9070   2.4639   H         1 RES1   0.0000
    60 C32      2.6931   6.7451   2.1883   C.ar      1 RES1   0.0000
    61 H20      1.7801   6.7383   1.9632   H         1 RES1   0.0000
    62 S1       5.5515   3.3237  -0.1806   S.o2      2 RES2   0.0000
    63 S2       3.2628   2.3522   1.1543   S.o2      2 RES2   0.0000
    64 F1       5.6762   0.7833  -1.6695   F         2 RES2   0.0000
    65 F2       3.3313   3.2722   3.7230   F         2 RES2   0.0000
    66 F3       7.2260   1.2296  -0.4490   F         2 RES2   0.0000
    67 F4       4.0922   1.1460   2.8961   F         2 RES2   0.0000
    68 O3       6.6044   4.1914   0.2781   O.2       2 RES2   0.0000
    69 O4       2.2184   3.3677   1.2723   O.2       2 RES2   0.0000
    70 F5       1.9497   1.6747   3.2487   F         2 RES2   0.0000
    71 O5       3.1395   0.9930   0.3406   O.2       2 RES2   0.0000
    72 O6       4.7447   3.6842  -1.0604   O.2       2 RES2   0.0000
    73 F6       7.3167   2.0188  -2.1931   F         2 RES2   0.0000
    74 N5       4.7373   2.9005   1.0532   N.2       2 RES2  -1.0000
    75 C33      6.4812   1.7628  -1.1676   C.3       2 RES2   0.0000
    76 C34      3.1710   2.1311   2.8491   C.3       2 RES2   0.0000
@<TRIPOS>BOND
     1     1    16    1
     2     2    40    1
     3     3     4    1
     4     4    12    1
     5     5     3    1
     6     6     3    1
     7     7     3    1
     8     8     3    1
     9     9     7    2
    10    10     9    1
    11    11     8   ar
    12    12    13   ar
    13    13    14   ar
    14    14    15    1
    15    16    14   ar
    16    17    16   ar
    17    18    17    1
    18    19    12   ar
    19    20    19    1
    20    21     7    1
    21    22    23    1
    22    24    22   ar
    23    25    24    1
    24    26    24   ar
    25    27    26   ar
    26    28     3    1
    27    29    22   ar
    28    30    29    1
    29    31     6    1
    30    32    31   ar
    31    33    32    1
    32    34    26   ar
    33    35    34    1
    34    36     9    1
    35    37     6    2
    36    38    37    1
    37    39     5    1
    38    40    47   ar
    39    41    39   ar
    40    42    41    1
    41    43    44    1
    42    45    21   ar
    43    46    45    1
    44    47    36   ar
    45    48    47    1
    46    49    40   ar
    47    50    49    1
    48    51    11   ar
    49    52     8   ar
    50    53    52    1
    51    54    51   ar
    52    55    54    1
    53    56    43   ar
    54    57    56    1
    55    58    52   ar
    56    59    58    1
    57    60    32   ar
    58    61    60    1
    59    11    21   ar
    60    13    37    1
    61    17    19   ar
    62    27    28   ar
    63    27    31   ar
    64    28    29   ar
    65    34    60   ar
    66    36    39   ar
    67    41    49   ar
    68    43    45   ar
    69    51    56   ar
    70    54    58   ar
    71    62    68    2
    72    63    69    2
    73    64    75    1
    74    65    76    1
    75    66    75    1
    76    67    76    1
    77    70    76    1
    78    71    63    2
    79    72    62    2
    80    73    75    1
    81    74    62    1
    82    75    62    1
    83    76    63    1
    84    63    74    1
@<TRIPOS>SUBSTRUCTURE
     1 RES1        1 GROUP             0 ****  ****    0  
     2 RES2       62 GROUP             0 ****  ****    0  
@<TRIPOS>CRYSIN
   12.4720   12.7370   12.9690   68.6300   78.2300   68.5900     2     1
