@<TRIPOS>MOLECULE
LECLUD20
    76    84     2     0     0
SMALL
USER_CHARGES
****
Generated from the CSD

@<TRIPOS>ATOM
     1 I1      -3.3616  -3.6875 -10.8359   I         1 RES1   0.0000
     2 I2     -15.2576  -5.7858  -6.1518   I         1 RES1   0.0000
     3 Fe1     -8.3729  -5.1981  -5.0555   Fe        1 RES1   1.0000
     4 O1      -7.7451  -5.6746  -6.9507   O.3       1 RES1   0.0000
     5 O2      -9.7226  -4.3330  -5.8268   O.3       1 RES1   0.0000
     6 N1      -7.1184  -3.5274  -5.0507   N.2       1 RES1   0.0000
     7 N2      -8.5874  -4.4126  -2.8629   N.ar      1 RES1   0.0000
     8 N3      -9.5595  -6.8966  -4.6927   N.2       1 RES1   0.0000
     9 N4      -7.2180  -6.5228  -4.0150   N.ar      1 RES1   0.0000
    10 C1      -6.7575  -5.2739  -7.6809   C.ar      1 RES1   0.0000
    11 C2      -6.4332  -5.9703  -8.9391   C.ar      1 RES1   0.0000
    12 H1      -6.9111  -6.7389  -9.1539   H         1 RES1   0.0000
    13 C3      -5.4675  -5.5456  -9.8085   C.ar      1 RES1   0.0000
    14 H2      -5.2683  -6.0110 -10.5885   H         1 RES1   0.0000
    15 C4      -4.7942  -4.3636  -9.4556   C.ar      1 RES1   0.0000
    16 C5      -5.0781  -3.6668  -8.2281   C.ar      1 RES1   0.0000
    17 H3      -4.6029  -2.8892  -8.0427   H         1 RES1   0.0000
    18 C6      -6.0372  -4.1015  -7.2934   C.ar      1 RES1   0.0000
    19 C7      -6.2758  -3.2996  -6.0250   C.2       1 RES1   0.0000
    20 H4      -5.7489  -2.5397  -5.9278   H         1 RES1   0.0000
    21 C8      -7.2353  -2.6681  -3.8142   C.ar      1 RES1   0.0000
    22 C9      -6.6654  -1.4129  -3.6569   C.ar      1 RES1   0.0000
    23 H5      -6.1809  -1.0288  -4.3525   H         1 RES1   0.0000
    24 C10     -6.8344  -0.6835  -2.3668   C.ar      1 RES1   0.0000
    25 H6      -6.4308   0.1501  -2.2913   H         1 RES1   0.0000
    26 C11     -7.5673  -1.1637  -1.2377   C.ar      1 RES1   0.0000
    27 H7      -7.6411  -0.6619  -0.4578   H         1 RES1   0.0000
    28 C12     -8.1770  -2.4389  -1.3566   C.ar      1 RES1   0.0000
    29 C13     -8.0097  -3.1663  -2.6724   C.ar      1 RES1   0.0000
    30 C14     -8.9353  -3.0329  -0.2417   C.ar      1 RES1   0.0000
    31 H8      -9.0433  -2.5851   0.5664   H         1 RES1   0.0000
    32 C15     -9.4718  -4.2700  -0.4501   C.ar      1 RES1   0.0000
    33 H9      -9.9462  -4.7044   0.2212   H         1 RES1   0.0000
    34 C16     -9.2793  -4.9107  -1.7876   C.ar      1 RES1   0.0000
    35 H10     -9.6744  -5.7450  -1.9039   H         1 RES1   0.0000
    36 C17    -10.8981  -4.6595  -5.8102   C.ar      1 RES1   0.0000
    37 C18    -11.6816  -3.7421  -6.2999   C.ar      1 RES1   0.0000
    38 H11    -11.3586  -2.9138  -6.5748   H         1 RES1   0.0000
    39 C19    -12.9018  -4.0403  -6.3779   C.ar      1 RES1   0.0000
    40 H12    -13.4953  -3.4159  -6.7257   H         1 RES1   0.0000
    41 C20    -13.4006  -5.3018  -5.9521   C.ar      1 RES1   0.0000
    42 C21    -12.6813  -6.2101  -5.4701   C.ar      1 RES1   0.0000
    43 H13    -13.0316  -7.0295  -5.2003   H         1 RES1   0.0000
    44 C22    -11.3978  -5.9270  -5.3742   C.ar      1 RES1   0.0000
    45 C23    -10.7119  -6.9559  -4.8844   C.2       1 RES1   0.0000
    46 H14    -11.1617  -7.7457  -4.6875   H         1 RES1   0.0000
    47 C24     -8.9884  -8.0156  -4.1914   C.ar      1 RES1   0.0000
    48 C25     -9.5318  -9.2711  -4.0188   C.ar      1 RES1   0.0000
    49 H15    -10.4217  -9.3988  -4.2541   H         1 RES1   0.0000
    50 C26     -8.8694 -10.2930  -3.5431   C.ar      1 RES1   0.0000
    51 H16     -9.2675 -11.1255  -3.4357   H         1 RES1   0.0000
    52 C27     -7.6919 -10.0982  -3.2439   C.ar      1 RES1   0.0000
    53 H17     -7.1907 -10.8059  -2.9102   H         1 RES1   0.0000
    54 C28     -7.0709  -8.8287  -3.3923   C.ar      1 RES1   0.0000
    55 C29     -7.7442  -7.7785  -3.8641   C.ar      1 RES1   0.0000
    56 C30     -5.8263  -8.5063  -3.0342   C.ar      1 RES1   0.0000
    57 H18     -5.2768  -9.1632  -2.6711   H         1 RES1   0.0000
    58 C31     -5.3433  -7.2596  -3.1838   C.ar      1 RES1   0.0000
    59 H19     -4.4692  -7.0868  -2.9192   H         1 RES1   0.0000
    60 C32     -6.0547  -6.2736  -3.6864   C.ar      1 RES1   0.0000
    61 H20     -5.6953  -5.4226  -3.7912   H         1 RES1   0.0000
    62 S1      -4.0062  -2.5906  -1.8227   S.o2      2 RES2   0.0000
    63 S2      -5.3728  -4.0811   0.3140   S.o2      2 RES2   0.0000
    64 F1      -1.9396  -2.5310  -3.1110   F         2 RES2   0.0000
    65 F2      -1.8582  -2.6518  -0.7071   F         2 RES2   0.0000
    66 F3      -2.4664  -4.3047  -1.9973   F         2 RES2   0.0000
    67 F4      -3.9463  -5.9090  -0.1432   F         2 RES2   0.0000
    68 F5      -3.6103  -4.9020   1.9410   F         2 RES2   0.0000
    69 F6      -5.1419  -6.2905   1.7006   F         2 RES2   0.0000
    70 O3      -3.8667  -1.2138  -1.8387   O.2       2 RES2   0.0000
    71 O4      -4.5862  -3.2793  -2.9972   O.2       2 RES2   0.0000
    72 O5      -5.9065  -3.6904   1.6929   O.2       2 RES2   0.0000
    73 O6      -6.1600  -4.7061  -0.7761   O.2       2 RES2   0.0000
    74 N5      -4.4185  -2.9679  -0.1662   N.2       2 RES2  -1.0000
    75 C33     -2.4604  -2.9789  -1.8745   C.3       2 RES2   0.0000
    76 C34     -4.4607  -5.3688   0.9948   C.3       2 RES2   0.0000
@<TRIPOS>BOND
     1     1    15    1
     2     2    41    1
     3     3     4    1
     4     4    10    1
     5     5     3    1
     6     6     3    1
     7     7     3    1
     8     8     3    1
     9     9     3    1
    10    10    11   ar
    11    11    12    1
    12    13    11   ar
    13    14    13    1
    14    15    13   ar
    15    16    15   ar
    16    17    16    1
    17    18    10   ar
    18    19     6    2
    19    20    19    1
    20    21     6    1
    21    22    21   ar
    22    23    22    1
    23    24    22   ar
    24    25    24    1
    25    26    24   ar
    26    27    26    1
    27    28    26   ar
    28    29     7   ar
    29    30    28   ar
    30    31    30    1
    31    32    30   ar
    32    33    32    1
    33    34     7   ar
    34    35    34    1
    35    36     5    1
    36    37    36   ar
    37    38    37    1
    38    39    37   ar
    39    40    39    1
    40    41    39   ar
    41    42    41   ar
    42    43    42    1
    43    44    36   ar
    44    45     8    2
    45    46    45    1
    46    47     8    1
    47    48    47   ar
    48    49    48    1
    49    50    48   ar
    50    51    50    1
    51    52    50   ar
    52    53    52    1
    53    54    52   ar
    54    55     9   ar
    55    56    54   ar
    56    57    56    1
    57    58    56   ar
    58    59    58    1
    59    60     9   ar
    60    61    60    1
    61    16    18   ar
    62    18    19    1
    63    21    29   ar
    64    28    29   ar
    65    32    34   ar
    66    42    44   ar
    67    44    45    1
    68    47    55   ar
    69    54    55   ar
    70    58    60   ar
    71    62    70    2
    72    63    72    2
    73    64    75    1
    74    65    75    1
    75    66    75    1
    76    67    76    1
    77    68    76    1
    78    69    76    1
    79    71    62    2
    80    73    63    2
    81    74    62    1
    82    75    62    1
    83    76    63    1
    84    63    74    1
@<TRIPOS>SUBSTRUCTURE
     1 RES1        1 GROUP             0 ****  ****    0  
     2 RES2       62 GROUP             0 ****  ****    0  
@<TRIPOS>CRYSIN
   12.3200   12.7890   13.7169   68.9620   79.3020   66.5670     2     1
