@<TRIPOS>MOLECULE
LECLUD03
    76    84     2     0     0
SMALL
USER_CHARGES
****
Generated from the CSD

@<TRIPOS>ATOM
     1 I1      -5.8366  -0.6082 -10.6738   I         1 RES1   0.0000
     2 I2     -16.5082  -4.0729  -6.0430   I         1 RES1   0.0000
     3 Fe1     -9.3708  -3.8194  -4.9659   Fe        1 RES1   1.0000
     4 O1      -9.1870  -3.7698  -6.8354   O.3       1 RES1   0.0000
     5 O2     -10.9451  -2.7118  -5.7248   O.3       1 RES1   0.0000
     6 N1      -8.1916  -2.1239  -4.9698   N.2       1 RES1   0.0000
     7 N2      -9.1000  -3.6565  -2.8191   N.ar      1 RES1   0.0000
     8 N3     -10.3972  -5.6411  -4.6118   N.2       1 RES1   0.0000
     9 N4      -7.9073  -5.4591  -3.9560   N.ar      1 RES1   0.0000
    10 C1      -8.4006  -3.1389  -7.5539   C.ar      1 RES1   0.0000
    11 C2      -8.3358  -3.4948  -8.7951   C.ar      1 RES1   0.0000
    12 H1      -8.7998  -4.2477  -9.0828   H         1 RES1   0.0000
    13 C3      -7.6186  -2.8006  -9.6557   C.ar      1 RES1   0.0000
    14 H2      -7.5991  -3.0802 -10.5426   H         1 RES1   0.0000
    15 C4      -6.9094  -1.6965  -9.3127   C.ar      1 RES1   0.0000
    16 C5      -6.9220  -1.3316  -8.1054   C.ar      1 RES1   0.0000
    17 H3      -6.4507  -0.5728  -7.8441   H         1 RES1   0.0000
    18 C6      -7.6315  -2.0544  -7.1733   C.ar      1 RES1   0.0000
    19 C7      -7.5915  -1.6136  -5.9748   C.2       1 RES1   0.0000
    20 H4      -7.0806  -0.8530  -5.8215   H         1 RES1   0.0000
    21 C8      -8.0483  -1.5999  -3.7537   C.ar      1 RES1   0.0000
    22 C9      -7.4931  -0.3649  -3.5377   C.ar      1 RES1   0.0000
    23 H5      -7.2105   0.1786  -4.2374   H         1 RES1   0.0000
    24 C10     -7.3863  -0.0089  -2.3166   C.ar      1 RES1   0.0000
    25 H6      -7.0135   0.8236  -2.1319   H         1 RES1   0.0000
    26 C11     -7.8141  -0.8298  -1.1997   C.ar      1 RES1   0.0000
    27 H7      -7.6894  -0.4932  -0.3417   H         1 RES1   0.0000
    28 C12     -8.4026  -2.0936  -1.3241   C.ar      1 RES1   0.0000
    29 C13     -8.5267  -2.4534  -2.6218   C.ar      1 RES1   0.0000
    30 C14     -8.8510  -3.0247  -0.2173   C.ar      1 RES1   0.0000
    31 H8      -8.7443  -2.7408   0.6608   H         1 RES1   0.0000
    32 C15     -9.3937  -4.2308  -0.4271   C.ar      1 RES1   0.0000
    33 H9      -9.6600  -4.8137   0.2475   H         1 RES1   0.0000
    34 C16     -9.5045  -4.4895  -1.7538   C.ar      1 RES1   0.0000
    35 H10     -9.8884  -5.3042  -1.9874   H         1 RES1   0.0000
    36 C17    -12.1010  -3.0337  -5.7185   C.ar      1 RES1   0.0000
    37 C18    -13.0556  -1.9517  -6.1984   C.ar      1 RES1   0.0000
    38 H11    -12.7480  -1.1044  -6.4308   H         1 RES1   0.0000
    39 C19    -14.2644  -2.2452  -6.2688   C.ar      1 RES1   0.0000
    40 H12    -14.9044  -1.6358  -6.5602   H         1 RES1   0.0000
    41 C20    -14.6251  -3.6419  -5.8555   C.ar      1 RES1   0.0000
    42 C21    -13.7289  -4.7203  -5.3768   C.ar      1 RES1   0.0000
    43 H13    -14.0630  -5.5597  -5.1532   H         1 RES1   0.0000
    44 C22    -12.4515  -4.4528  -5.2776   C.ar      1 RES1   0.0000
    45 C23    -11.5965  -5.6554  -4.8015   C.2       1 RES1   0.0000
    46 H14    -12.0407  -6.4566  -4.6469   H         1 RES1   0.0000
    47 C24     -9.6543  -6.9290  -4.1218   C.ar      1 RES1   0.0000
    48 C25    -10.1227  -8.2544  -3.9535   C.ar      1 RES1   0.0000
    49 H15    -11.0212  -8.4116  -4.1381   H         1 RES1   0.0000
    50 C26     -9.2930  -9.4438  -3.5000   C.ar      1 RES1   0.0000
    51 H16     -9.6945 -10.2798  -3.4447   H         1 RES1   0.0000
    52 C27     -8.0317  -9.3243  -3.1872   C.ar      1 RES1   0.0000
    53 H17     -7.5153 -10.0423  -2.8970   H         1 RES1   0.0000
    54 C28     -7.5023  -7.9867  -3.3266   C.ar      1 RES1   0.0000
    55 C29     -8.3435  -6.7863  -3.8002   C.ar      1 RES1   0.0000
    56 C30     -6.2104  -7.7717  -2.9899   C.ar      1 RES1   0.0000
    57 H18     -5.6458  -8.4448  -2.6846   H         1 RES1   0.0000
    58 C31     -5.7977  -6.4408  -3.1432   C.ar      1 RES1   0.0000
    59 H19     -4.9149  -6.2393  -2.9334   H         1 RES1   0.0000
    60 C32     -6.6826  -5.3018  -3.6268   C.ar      1 RES1   0.0000
    61 H20     -6.3150  -4.4504  -3.6859   H         1 RES1   0.0000
    62 S1      -4.3386  -2.0994  -1.7821   S.o2      2 RES2   0.0000
    63 S2      -5.1234  -4.2548   0.3146   S.o2      2 RES2   0.0000
    64 F1      -2.5860  -1.6658  -3.0691   F         2 RES2   0.0000
    65 F2      -1.8889  -2.4920  -0.7048   F         2 RES2   0.0000
    66 F3      -2.7829  -3.8137  -1.9824   F         2 RES2   0.0000
    67 F4      -2.9265  -5.5537   1.9070   F         2 RES2   0.0000
    68 F5      -3.7172  -5.9719  -0.1495   F         2 RES2   0.0000
    69 F6      -4.4563  -6.9119   1.6595   F         2 RES2   0.0000
    70 O3      -4.2540  -0.6816  -1.8128   O.2       2 RES2   0.0000
    71 O4      -5.1915  -2.4584  -2.9585   O.2       2 RES2   0.0000
    72 O5      -5.3564  -4.2634   1.6784   O.2       2 RES2   0.0000
    73 O6      -6.1450  -4.5539  -0.7789   O.2       2 RES2   0.0000
    74 N5      -4.3276  -2.9741  -0.1595   N.2       2 RES2  -1.0000
    75 C33     -2.8025  -2.5132  -1.8404   C.3       2 RES2   0.0000
    76 C34     -3.9838  -5.7461   0.9724   C.3       2 RES2   0.0000
@<TRIPOS>BOND
     1     1    15    1
     2     2    41    1
     3     3     4    1
     4     4    10    1
     5     5     3    1
     6     6     3    1
     7     7     3    1
     8     8     3    1
     9     9     3    1
    10    10    11   ar
    11    11    12    1
    12    13    11   ar
    13    14    13    1
    14    15    13   ar
    15    16    15   ar
    16    17    16    1
    17    18    10   ar
    18    19     6    2
    19    20    19    1
    20    21     6    1
    21    22    21   ar
    22    23    22    1
    23    24    22   ar
    24    25    24    1
    25    26    24   ar
    26    27    26    1
    27    28    26   ar
    28    29     7   ar
    29    30    28   ar
    30    31    30    1
    31    32    30   ar
    32    33    32    1
    33    34     7   ar
    34    35    34    1
    35    36     5    1
    36    37    36   ar
    37    38    37    1
    38    39    37   ar
    39    40    39    1
    40    41    39   ar
    41    42    41   ar
    42    43    42    1
    43    44    36   ar
    44    45     8    2
    45    46    45    1
    46    47     8    1
    47    48    47   ar
    48    49    48    1
    49    50    48   ar
    50    51    50    1
    51    52    50   ar
    52    53    52    1
    53    54    52   ar
    54    55     9   ar
    55    56    54   ar
    56    57    56    1
    57    58    56   ar
    58    59    58    1
    59    60     9   ar
    60    61    60    1
    61    16    18   ar
    62    18    19    1
    63    21    29   ar
    64    28    29   ar
    65    32    34   ar
    66    42    44   ar
    67    44    45    1
    68    47    55   ar
    69    54    55   ar
    70    58    60   ar
    71    62    70    2
    72    63    72    2
    73    64    75    1
    74    65    75    1
    75    66    75    1
    76    67    76    1
    77    68    76    1
    78    69    76    1
    79    71    62    2
    80    73    63    2
    81    74    62    1
    82    75    62    1
    83    76    63    1
    84    63    74    1
@<TRIPOS>SUBSTRUCTURE
     1 RES1        1 GROUP             0 ****  ****    0  
     2 RES2       62 GROUP             0 ****  ****    0  
@<TRIPOS>CRYSIN
   12.3210   12.7800   13.7130   79.3000   66.5300   69.0000     2     1
