@<TRIPOS>MOLECULE
LECLUD12
    76    84     2     0     0
SMALL
USER_CHARGES
****
Generated from the CSD

@<TRIPOS>ATOM
     1 I1       4.5550   2.0943  10.3397   I         1 RES1   0.0000
     2 I2      11.2257  12.4070   6.1681   I         1 RES1   0.0000
     3 Fe1      7.8140   5.7891   4.5314   Fe        1 RES1   1.0000
     4 O1       7.4537   7.5134   5.2339   O.3       1 RES1   0.0000
     5 O2       8.2131   4.9925   6.1972   O.3       1 RES1   0.0000
     6 N1       9.7561   6.1747   4.3066   N.2       1 RES1   0.0000
     7 N2       5.8728   5.3775   4.6620   N.2       1 RES1   0.0000
     8 N3       7.2281   6.4441   2.7115   N.ar      1 RES1   0.0000
     9 N4       8.3606   4.0745   3.6197   N.ar      1 RES1   0.0000
    10 C1       5.3040   4.8297   5.7078   C.2       1 RES1   0.0000
    11 H1       4.3758   4.7758   5.7066   H         1 RES1   0.0000
    12 C2       9.7214   3.9729   3.4091   C.ar      1 RES1   0.0000
    13 C3      10.3441   7.2722   4.6703   C.2       1 RES1   0.0000
    14 H2      11.2706   7.2994   4.6009   H         1 RES1   0.0000
    15 C4       5.7443   3.0972   8.9338   C.ar      1 RES1   0.0000
    16 C5       8.2921   8.5240   5.4062   C.ar      1 RES1   0.0000
    17 C6       5.8801   6.3772   2.5176   C.ar      1 RES1   0.0000
    18 C7       9.6943   8.4381   5.1657   C.ar      1 RES1   0.0000
    19 C8       5.9872   4.3057   6.8493   C.ar      1 RES1   0.0000
    20 C9      10.4997   5.0940   3.7681   C.ar      1 RES1   0.0000
    21 C10      5.1677   3.6852   7.8329   C.ar      1 RES1   0.0000
    22 H3       4.2424   3.6765   7.7312   H         1 RES1   0.0000
    23 C11      7.3884   4.3869   7.0264   C.ar      1 RES1   0.0000
    24 C12      5.0982   5.8049   3.5551   C.ar      1 RES1   0.0000
    25 C13      7.7933   9.7577   5.8657   C.ar      1 RES1   0.0000
    26 H4       6.8821   9.8371   6.0357   H         1 RES1   0.0000
    27 C14      3.1187   6.2292   2.2281   C.ar      1 RES1   0.0000
    28 H5       2.1939   6.1890   2.1371   H         1 RES1   0.0000
    29 C15     10.5108   9.5748   5.4122   C.ar      1 RES1   0.0000
    30 H6      11.4295   9.5146   5.2758   H         1 RES1   0.0000
    31 C16      8.0067   6.9409   1.7518   C.ar      1 RES1   0.0000
    32 H7       8.9267   6.9623   1.8799   H         1 RES1   0.0000
    33 C17      7.9170   3.7710   8.1859   C.ar      1 RES1   0.0000
    34 H8       8.8372   3.7934   8.3271   H         1 RES1   0.0000
    35 C18      7.1219   3.1449   9.1097   C.ar      1 RES1   0.0000
    36 H9       7.5056   2.7496   9.8588   H         1 RES1   0.0000
    37 C19     11.8755   5.0443   3.5802   C.ar      1 RES1   0.0000
    38 H10     12.4049   5.7733   3.8076   H         1 RES1   0.0000
    39 C20      5.2718   6.8495   1.3390   C.ar      1 RES1   0.0000
    40 C21      9.9759  10.7514   5.8418   C.ar      1 RES1   0.0000
    41 C22      9.4221   1.7879   2.4626   C.ar      1 RES1   0.0000
    42 H11      9.7599   1.0072   2.0857   H         1 RES1   0.0000
    43 C23     10.3175   2.8366   2.8288   C.ar      1 RES1   0.0000
    44 C24     12.4668   3.8849   3.0418   C.ar      1 RES1   0.0000
    45 H12     13.3890   3.8446   2.9341   H         1 RES1   0.0000
    46 C25      3.8618   6.7685   1.2289   C.ar      1 RES1   0.0000
    47 H13      3.4415   7.0885   0.4643   H         1 RES1   0.0000
    48 C26      7.5804   3.0791   3.2476   C.ar      1 RES1   0.0000
    49 H14      6.6629   3.1511   3.3816   H         1 RES1   0.0000
    50 C27      3.7206   5.7257   3.4055   C.ar      1 RES1   0.0000
    51 H15      3.1974   5.3460   4.0732   H         1 RES1   0.0000
    52 C28      8.5987  10.8461   6.0727   C.ar      1 RES1   0.0000
    53 H16      8.2307  11.6481   6.3659   H         1 RES1   0.0000
    54 C29     11.6921   2.8097   2.6744   C.ar      1 RES1   0.0000
    55 H17     12.0973   2.0531   2.3154   H         1 RES1   0.0000
    56 C30      8.0931   1.9119   2.6541   C.ar      1 RES1   0.0000
    57 H18      7.5170   1.2283   2.3944   H         1 RES1   0.0000
    58 C31      6.1194   7.3885   0.3518   C.ar      1 RES1   0.0000
    59 H19      5.7552   7.7148  -0.4403   H         1 RES1   0.0000
    60 C32      7.4677   7.4328   0.5468   C.ar      1 RES1   0.0000
    61 H20      8.0262   7.7848  -0.1077   H         1 RES1   0.0000
    62 S1       5.5680   3.4062  -0.2088   S.o2      2 RES2   0.0000
    63 S2       3.5076   2.1011   1.1368   S.o2      2 RES2   0.0000
    64 F1       7.1456   1.3377  -0.4463   F         2 RES2   0.0000
    65 F2       5.4484   1.2642  -1.7183   F         2 RES2   0.0000
    66 F3       4.0300   2.3682   3.6867   F         2 RES2   0.0000
    67 O3       6.6752   4.1444   0.2597   O.2       2 RES2   0.0000
    68 F4       4.6194   0.4533   2.8551   F         2 RES2   0.0000
    69 O4       2.4887   3.0772   1.2469   O.2       2 RES2   0.0000
    70 O5       3.2486   0.9195   0.3147   O.2       2 RES2   0.0000
    71 F5       7.0365   2.5797  -2.1587   F         2 RES2   0.0000
    72 F6       2.5679   0.8647   3.1985   F         2 RES2   0.0000
    73 O6       4.6246   4.0039  -1.0769   O.2       2 RES2   0.0000
    74 N5       4.9818   2.6862   1.0494   N.2       2 RES2  -1.0000
    75 C33      6.3424   2.0715  -1.1751   C.3       2 RES2   0.0000
    76 C34      3.6895   1.4272   2.7893   C.3       2 RES2   0.0000
@<TRIPOS>BOND
     1     1    15    1
     2     2    40    1
     3     3     4    1
     4     4    16    1
     5     5     3    1
     6     6     3    1
     7     7     3    1
     8     8     3    1
     9     9     3    1
    10    10     7    2
    11    11    10    1
    12    12     9   ar
    13    13     6    2
    14    14    13    1
    15    15    21   ar
    16    16    18   ar
    17    17     8   ar
    18    18    13    1
    19    19    10    1
    20    20     6    1
    21    21    19   ar
    22    22    21    1
    23    23     5    1
    24    24     7    1
    25    25    16   ar
    26    26    25    1
    27    27    28    1
    28    29    18   ar
    29    30    29    1
    30    31     8   ar
    31    32    31    1
    32    33    23   ar
    33    34    33    1
    34    35    15   ar
    35    36    35    1
    36    37    20   ar
    37    38    37    1
    38    39    17   ar
    39    40    29   ar
    40    41    42    1
    41    43    12   ar
    42    44    37   ar
    43    45    44    1
    44    46    27   ar
    45    47    46    1
    46    48     9   ar
    47    49    48    1
    48    50    24   ar
    49    51    50    1
    50    52    25   ar
    51    53    52    1
    52    54    43   ar
    53    55    54    1
    54    56    41   ar
    55    57    56    1
    56    58    39   ar
    57    59    58    1
    58    60    31   ar
    59    61    60    1
    60    12    20   ar
    61    17    24   ar
    62    19    23   ar
    63    27    50   ar
    64    33    35   ar
    65    39    46   ar
    66    40    52   ar
    67    41    43   ar
    68    44    54   ar
    69    48    56   ar
    70    58    60   ar
    71    62    67    2
    72    63    69    2
    73    64    75    1
    74    65    75    1
    75    66    76    1
    76    68    76    1
    77    70    63    2
    78    71    75    1
    79    72    76    1
    80    73    62    2
    81    74    62    1
    82    75    62    1
    83    76    63    1
    84    63    74    1
@<TRIPOS>SUBSTRUCTURE
     1 RES1        1 GROUP             0 ****  ****    0  
     2 RES2       62 GROUP             0 ****  ****    0  
@<TRIPOS>CRYSIN
   12.5220   12.8360   12.9200   78.5200   68.2300   68.5900     2     1
