@<TRIPOS>MOLECULE
LECLUD06
    76    84     2     0     0
SMALL
USER_CHARGES
****
Generated from the CSD

@<TRIPOS>ATOM
     1 I1      -5.2336  -0.9305 -10.2133   I         1 RES1   0.0000
     2 I2     -16.2905  -4.2296  -5.7814   I         1 RES1   0.0000
     3 Fe1     -9.1495  -3.9452  -4.7524   Fe        1 RES1   1.0000
     4 O1      -8.8481  -3.9507  -6.5369   O.3       1 RES1   0.0000
     5 O2     -10.6948  -2.8684  -5.4755   O.3       1 RES1   0.0000
     6 N1      -7.9643  -2.2602  -4.7542   N.2       1 RES1   0.0000
     7 N2      -9.0075  -3.7165  -2.6951   N.ar      1 RES1   0.0000
     8 N3     -10.2016  -5.7453  -4.4152   N.2       1 RES1   0.0000
     9 N4      -7.7327  -5.5419  -3.7865   N.ar      1 RES1   0.0000
    10 C1      -7.2561  -2.2398  -6.7521   C.ar      1 RES1   0.0000
    11 C2      -7.9824  -3.3506  -7.1656   C.ar      1 RES1   0.0000
    12 C3      -7.9140  -3.7723  -8.4891   C.ar      1 RES1   0.0000
    13 H1      -8.3993  -4.5149  -8.7655   H         1 RES1   0.0000
    14 C4      -7.1195  -3.0821  -9.3978   C.ar      1 RES1   0.0000
    15 H2      -7.0746  -3.3638 -10.2826   H         1 RES1   0.0000
    16 C5      -6.3945  -1.9713  -8.9843   C.ar      1 RES1   0.0000
    17 C6      -6.4634  -1.5507  -7.6608   C.ar      1 RES1   0.0000
    18 H3      -5.9776  -0.8070  -7.3844   H         1 RES1   0.0000
    19 C7      -7.2842  -1.8103  -5.7591   C.2       1 RES1   0.0000
    20 H4      -6.7701  -1.0480  -5.6137   H         1 RES1   0.0000
    21 C8      -7.8888  -1.6992  -3.5918   C.ar      1 RES1   0.0000
    22 C9      -7.3589  -0.4449  -3.3322   C.ar      1 RES1   0.0000
    23 H5      -7.0420   0.0908  -4.0221   H         1 RES1   0.0000
    24 C10     -7.3222  -0.0788  -2.2190   C.ar      1 RES1   0.0000
    25 H6      -6.9519   0.7547  -2.0315   H         1 RES1   0.0000
    26 C11     -7.8237  -0.8644  -1.1480   C.ar      1 RES1   0.0000
    27 H7      -7.7559  -0.5057  -0.2921   H         1 RES1   0.0000
    28 C12     -8.4043  -2.1197  -1.2646   C.ar      1 RES1   0.0000
    29 C13     -8.4438  -2.5149  -2.5123   C.ar      1 RES1   0.0000
    30 C14     -8.9215  -3.0134  -0.2104   C.ar      1 RES1   0.0000
    31 H8      -8.8759  -2.7097   0.6672   H         1 RES1   0.0000
    32 C15     -9.4467  -4.2177  -0.4111   C.ar      1 RES1   0.0000
    33 H9      -9.7498  -4.7768   0.2669   H         1 RES1   0.0000
    34 C16     -9.4830  -4.5151  -1.6793   C.ar      1 RES1   0.0000
    35 H10     -9.8594  -5.3313  -1.9161   H         1 RES1   0.0000
    36 C17    -11.8666  -3.1880  -5.4718   C.ar      1 RES1   0.0000
    37 C18    -12.7996  -2.1320  -5.9202   C.ar      1 RES1   0.0000
    38 H11    -12.4933  -1.2816  -6.1378   H         1 RES1   0.0000
    39 C19    -14.0230  -2.4217  -5.9984   C.ar      1 RES1   0.0000
    40 H12    -14.6532  -1.8041  -6.2917   H         1 RES1   0.0000
    41 C20    -14.4019  -3.7937  -5.6005   C.ar      1 RES1   0.0000
    42 C21    -13.5232  -4.8518  -5.1485   C.ar      1 RES1   0.0000
    43 H13    -13.8553  -5.6940  -4.9321   H         1 RES1   0.0000
    44 C22    -12.2413  -4.5819  -5.0523   C.ar      1 RES1   0.0000
    45 C23    -11.4007  -5.7663  -4.5943   C.2       1 RES1   0.0000
    46 H14    -11.8417  -6.5710  -4.4405   H         1 RES1   0.0000
    47 C24     -9.4833  -7.0090  -3.9416   C.ar      1 RES1   0.0000
    48 C25     -9.9613  -8.3216  -3.7817   C.ar      1 RES1   0.0000
    49 H15    -10.8602  -8.4743  -3.9632   H         1 RES1   0.0000
    50 C26     -9.1423  -9.4900  -3.3454   C.ar      1 RES1   0.0000
    51 H16     -9.5394 -10.3292  -3.2913   H         1 RES1   0.0000
    52 C27     -7.8960  -9.3613  -3.0413   C.ar      1 RES1   0.0000
    53 H17     -7.3791 -10.0774  -2.7491   H         1 RES1   0.0000
    54 C28     -7.3574  -8.0331  -3.1843   C.ar      1 RES1   0.0000
    55 C29     -8.1773  -6.8537  -3.6315   C.ar      1 RES1   0.0000
    56 C30     -6.0703  -7.8151  -2.8597   C.ar      1 RES1   0.0000
    57 H18     -5.5091  -8.4925  -2.5592   H         1 RES1   0.0000
    58 C31     -5.6422  -6.4968  -3.0088   C.ar      1 RES1   0.0000
    59 H19     -4.7561  -6.3022  -2.8080   H         1 RES1   0.0000
    60 C32     -6.5193  -5.3722  -3.4728   C.ar      1 RES1   0.0000
    61 H20     -6.1584  -4.5181  -3.5329   H         1 RES1   0.0000
    62 S1      -4.2668  -2.1396  -1.7057   S.o2      2 RES2   0.0000
    63 S2      -5.1851  -4.2155   0.3014   S.o2      2 RES2   0.0000
    64 F1      -2.4163  -1.7481  -2.9343   F         2 RES2   0.0000
    65 F2      -1.8596  -2.4818  -0.6816   F         2 RES2   0.0000
    66 F3      -2.6809  -3.8483  -1.8957   F         2 RES2   0.0000
    67 F4      -3.7340  -5.9337  -0.1455   F         2 RES2   0.0000
    68 F5      -3.0586  -5.4514   1.8284   F         2 RES2   0.0000
    69 F6      -4.5858  -6.8129   1.5891   F         2 RES2   0.0000
    70 O3      -4.1844  -0.7333  -1.7310   O.2       2 RES2   0.0000
    71 O4      -5.0560  -2.5310  -2.8309   O.2       2 RES2   0.0000
    72 O5      -5.5041  -4.1887   1.6108   O.2       2 RES2   0.0000
    73 O6      -6.1493  -4.5498  -0.7537   O.2       2 RES2   0.0000
    74 N5      -4.3550  -2.9569  -0.1587   N.2       2 RES2  -1.0000
    75 C33     -2.7054  -2.5539  -1.7634   C.3       2 RES2   0.0000
    76 C34     -4.0717  -5.6792   0.9364   C.3       2 RES2   0.0000
@<TRIPOS>BOND
     1     1    16    1
     2     2    41    1
     3     3     4    1
     4     4    11    1
     5     5     3    1
     6     6     3    1
     7     7     3    1
     8     8     3    1
     9     9     3    1
    10    10    11   ar
    11    11    12   ar
    12    12    13    1
    13    14    12   ar
    14    15    14    1
    15    16    14   ar
    16    17    10   ar
    17    18    17    1
    18    19     6    2
    19    20    19    1
    20    21     6    1
    21    22    21   ar
    22    23    22    1
    23    24    22   ar
    24    25    24    1
    25    26    24   ar
    26    27    26    1
    27    28    26   ar
    28    29     7   ar
    29    30    28   ar
    30    31    30    1
    31    32    30   ar
    32    33    32    1
    33    34     7   ar
    34    35    34    1
    35    36     5    1
    36    37    36   ar
    37    38    37    1
    38    39    37   ar
    39    40    39    1
    40    41    39   ar
    41    42    41   ar
    42    43    42    1
    43    44    36   ar
    44    45     8    2
    45    46    45    1
    46    47     8    1
    47    48    47   ar
    48    49    48    1
    49    50    48   ar
    50    51    50    1
    51    52    50   ar
    52    53    52    1
    53    54    52   ar
    54    55     9   ar
    55    56    54   ar
    56    57    56    1
    57    58    56   ar
    58    59    58    1
    59    60     9   ar
    60    61    60    1
    61    10    19    1
    62    16    17   ar
    63    21    29   ar
    64    28    29   ar
    65    32    34   ar
    66    42    44   ar
    67    44    45    1
    68    47    55   ar
    69    54    55   ar
    70    58    60   ar
    71    62    70    2
    72    63    72    2
    73    64    75    1
    74    65    75    1
    75    66    75    1
    76    67    76    1
    77    68    76    1
    78    69    76    1
    79    71    62    2
    80    73    63    2
    81    74    62    1
    82    75    62    1
    83    76    63    1
    84    63    74    1
@<TRIPOS>SUBSTRUCTURE
     1 RES1        1 GROUP             0 ****  ****    0  
     2 RES2       62 GROUP             0 ****  ****    0  
@<TRIPOS>CRYSIN
   12.4440   12.7120   12.9600   78.1700   68.5600   68.7800     2     1
