@<TRIPOS>MOLECULE
LECLUD07
    76    84     2     0     0
SMALL
USER_CHARGES
****
Generated from the CSD

@<TRIPOS>ATOM
     1 I1       2.7357   4.8009  10.4194   I         1 RES1   0.0000
     2 I2      10.0372  13.9398   6.2315   I         1 RES1   0.0000
     3 Fe1      6.9622   6.9110   4.5378   Fe        1 RES1   1.0000
     4 O1       6.4532   8.8054   5.2340   O.3       1 RES1   0.0000
     5 O2       7.1099   6.5534   6.2103   O.3       1 RES1   0.0000
     6 N1       5.0168   6.5451   4.6923   N.2       1 RES1   0.0000
     7 N2       7.6297   4.9826   3.6510   N.ar      1 RES1   0.0000
     8 N3       8.9160   7.2405   4.3348   N.2       1 RES1   0.0000
     9 N4       6.7142   7.0984   2.7314   N.ar      1 RES1   0.0000
    10 C1       8.6989   9.7144   5.2123   C.ar      1 RES1   0.0000
    11 C2       6.1361   6.1868   7.0433   C.ar      1 RES1   0.0000
    12 C3       9.4448   8.4338   4.7152   C.2       1 RES1   0.0000
    13 H1      10.3707   8.4963   4.6755   H         1 RES1   0.0000
    14 C4       7.2620   9.8541   5.4290   C.ar      1 RES1   0.0000
    15 C5       4.7577   6.0815   6.8904   C.ar      1 RES1   0.0000
    16 C6       4.1760   5.4323   8.9970   C.ar      1 RES1   0.0000
    17 C7       4.2916   6.3053   5.7709   C.2       1 RES1   0.0000
    18 H2       3.3656   6.3044   5.6794   H         1 RES1   0.0000
    19 C8       4.4381   6.6817   3.5596   C.ar      1 RES1   0.0000
    20 C9       9.7568   6.0274   3.7811   C.ar      1 RES1   0.0000
    21 C10      5.3941   6.9829   2.5231   C.ar      1 RES1   0.0000
    22 C11      3.7830   5.7229   7.8859   C.ar      1 RES1   0.0000
    23 H3       2.8753   5.7147   7.6837   H         1 RES1   0.0000
    24 C12      6.6755  11.1996   5.8792   C.ar      1 RES1   0.0000
    25 H4       5.7567  11.2544   6.0117   H         1 RES1   0.0000
    26 C13      9.0212   4.8252   3.4235   C.ar      1 RES1   0.0000
    27 C14      8.8500  12.1969   5.8985   C.ar      1 RES1   0.0000
    28 C15     11.1550   5.9278   3.5957   C.ar      1 RES1   0.0000
    29 H5      11.6889   6.6600   3.8039   H         1 RES1   0.0000
    30 C16      2.6948   6.7300   2.2366   C.ar      1 RES1   0.0000
    31 H6       1.7861   6.6856   2.0428   H         1 RES1   0.0000
    32 C17      7.6468   7.3498   1.7623   C.ar      1 RES1   0.0000
    33 H7       8.5429   7.3929   2.0019   H         1 RES1   0.0000
    34 C18      9.4695  10.9154   5.4808   C.ar      1 RES1   0.0000
    35 H8      10.3943  10.8794   5.3869   H         1 RES1   0.0000
    36 C19      6.9055   3.8881   3.2827   C.ar      1 RES1   0.0000
    37 H9       5.9833   3.9226   3.3971   H         1 RES1   0.0000
    38 C20      8.8909   2.3982   2.4774   C.ar      1 RES1   0.0000
    39 H10      9.2484   1.6131   2.1283   H         1 RES1   0.0000
    40 C21      6.4824   5.8817   8.2242   C.ar      1 RES1   0.0000
    41 H11      7.3806   5.9018   8.4625   H         1 RES1   0.0000
    42 C22      7.4409  12.3443   6.0995   C.ar      1 RES1   0.0000
    43 H12      7.0605  13.1518   6.3595   H         1 RES1   0.0000
    44 C23      9.7169   3.5347   2.8542   C.ar      1 RES1   0.0000
    45 C24      3.6138   7.0155   1.2170   C.ar      1 RES1   0.0000
    46 H13      3.2582   7.1358   0.3659   H         1 RES1   0.0000
    47 C25     11.8262   4.6430   3.0612   C.ar      1 RES1   0.0000
    48 H14     12.7526   4.6409   2.9769   H         1 RES1   0.0000
    49 C26      5.5172   5.5145   9.1692   C.ar      1 RES1   0.0000
    50 H15      5.8349   5.3019  10.0166   H         1 RES1   0.0000
    51 C27      3.0820   6.5390   3.3730   C.ar      1 RES1   0.0000
    52 H16      2.5047   6.3142   4.0664   H         1 RES1   0.0000
    53 C28      4.9942   7.1412   1.3314   C.ar      1 RES1   0.0000
    54 C29     11.1215   3.4600   2.6868   C.ar      1 RES1   0.0000
    55 H17     11.5485   2.7011   2.3594   H         1 RES1   0.0000
    56 C30      7.5178   2.5769   2.6796   C.ar      1 RES1   0.0000
    57 H18      6.9410   1.8843   2.4449   H         1 RES1   0.0000
    58 C31      7.3300   7.5254   0.5477   C.ar      1 RES1   0.0000
    59 H19      7.9435   7.7054  -0.1276   H         1 RES1   0.0000
    60 C32      6.0111   7.4226   0.3527   C.ar      1 RES1   0.0000
    61 H20      5.7156   7.5486  -0.5200   H         1 RES1   0.0000
    62 S1       5.5444   3.3165  -0.1774   S.o2      2 RES2   0.0000
    63 S2       3.2599   2.3435   1.1598   S.o2      2 RES2   0.0000
    64 F1       3.3438   3.2444   3.7209   F         2 RES2   0.0000
    65 F2       5.6715   0.7840  -1.6732   F         2 RES2   0.0000
    66 O3       6.5954   4.1872   0.2636   O.2       2 RES2   0.0000
    67 F3       7.2226   1.2267  -0.4647   F         2 RES2   0.0000
    68 F4       7.3032   2.0188  -2.1921   F         2 RES2   0.0000
    69 O4       2.2267   3.3627   1.2784   O.2       2 RES2   0.0000
    70 O5       4.7360   3.6918  -1.0569   O.2       2 RES2   0.0000
    71 O6       3.1379   0.9922   0.3310   O.2       2 RES2   0.0000
    72 F5       4.0789   1.1480   2.8999   F         2 RES2   0.0000
    73 F6       1.9435   1.6647   3.2394   F         2 RES2   0.0000
    74 N5       4.7369   2.8963   1.0653   N.2       2 RES2  -1.0000
    75 C33      6.4740   1.7483  -1.1665   C.3       2 RES2   0.0000
    76 C34      3.1560   2.0904   2.8505   C.3       2 RES2   0.0000
@<TRIPOS>BOND
     1     1    16    1
     2     2    27    1
     3     3     4    1
     4     4    14    1
     5     5     3    1
     6     6     3    1
     7     7     3    1
     8     8     3    1
     9     9     3    1
    10    10    12    1
    11    11     5    1
    12    12     8    2
    13    13    12    1
    14    14    10   ar
    15    15    11   ar
    16    16    22   ar
    17    17     6    2
    18    18    17    1
    19    19     6    1
    20    20     8    1
    21    21     9   ar
    22    22    15   ar
    23    23    22    1
    24    24    14   ar
    25    25    24    1
    26    26     7   ar
    27    27    34   ar
    28    28    20   ar
    29    29    28    1
    30    30    31    1
    31    32     9   ar
    32    33    32    1
    33    34    10   ar
    34    35    34    1
    35    36     7   ar
    36    37    36    1
    37    38    39    1
    38    40    11   ar
    39    41    40    1
    40    42    24   ar
    41    43    42    1
    42    44    26   ar
    43    45    30   ar
    44    46    45    1
    45    47    28   ar
    46    48    47    1
    47    49    16   ar
    48    50    49    1
    49    51    19   ar
    50    52    51    1
    51    53    21   ar
    52    54    44   ar
    53    55    54    1
    54    56    36   ar
    55    57    56    1
    56    58    32   ar
    57    59    58    1
    58    60    53   ar
    59    61    60    1
    60    15    17    1
    61    19    21   ar
    62    20    26   ar
    63    27    42   ar
    64    30    51   ar
    65    38    44   ar
    66    38    56   ar
    67    40    49   ar
    68    45    53   ar
    69    47    54   ar
    70    58    60   ar
    71    62    66    2
    72    63    69    2
    73    64    76    1
    74    65    75    1
    75    67    75    1
    76    68    75    1
    77    70    62    2
    78    71    63    2
    79    72    76    1
    80    73    76    1
    81    74    62    1
    82    75    62    1
    83    76    63    1
    84    63    74    1
@<TRIPOS>SUBSTRUCTURE
     1 RES1        1 GROUP             0 ****  ****    0  
     2 RES2       62 GROUP             0 ****  ****    0  
@<TRIPOS>CRYSIN
   12.4480   12.7170   12.9630   68.7300   78.1700   68.5700     2     1
