@<TRIPOS>MOLECULE
LEHTUR
    75    72     4     0     0
SMALL
USER_CHARGES
****
Generated from the CSD

@<TRIPOS>ATOM
     1 Te1      5.4426   0.8329  11.2898   Te        1 RES1  -1.0000
     2 Te2      2.7736   1.1550  10.9890   Te        1 RES1  -1.0000
     3 Fe1      4.3757   3.2452  11.1373   Fe        1 RES1   0.0000
     4 O1       3.9394   3.2257  14.0433   O.2       1 RES1   0.0000
     5 O2       2.4220   5.3485  10.6594   O.2       1 RES1   0.0000
     6 N1       6.9833   4.7998  11.6558   N.1       1 RES1   0.0000
     7 N2       4.8486   3.3586   8.0721   N.1       1 RES1   0.0000
     8 C1       4.1143   3.2021  12.9075   C.1       1 RES1   0.0000
     9 C2       3.2062   4.5349  10.8655   C.1       1 RES1   0.0000
    10 C3       6.0064   4.2218  11.4245   C.1       1 RES1   0.0000
    11 C4       4.6817   3.2690   9.2108   C.1       1 RES1   0.0000
    12 N3       8.8328   2.3122   7.5308   N.4       2 RES2   1.0000
    13 C5       8.2811   2.8065   8.8523   C.3       2 RES2   0.0000
    14 H1       8.4177   3.7858   8.9009   H         2 RES2   0.0000
    15 H2       7.3055   2.6414   8.8650   H         2 RES2   0.0000
    16 C6       8.8860   2.1795  10.0848   C.3       2 RES2   0.0000
    17 H3       8.7236   1.2136  10.0734   H         2 RES2   0.0000
    18 H4       8.4767   2.5709  10.8846   H         2 RES2   0.0000
    19 H5       9.8518   2.3484  10.0966   H         2 RES2   0.0000
    20 C7       8.5515   0.8380   7.3278   C.3       2 RES2   0.0000
    21 H6       8.9693   0.5549   6.4762   H         2 RES2   0.0000
    22 H7       8.9916   0.3330   8.0567   H         2 RES2   0.0000
    23 C8       7.0961   0.4508   7.2942   C.3       2 RES2   0.0000
    24 H8       6.6512   0.9173   6.5560   H         2 RES2   0.0000
    25 H9       6.6720   0.7008   8.1415   H         2 RES2   0.0000
    26 H10      7.0186  -0.5171   7.1630   H         2 RES2   0.0000
    27 C9       8.1549   3.1649   6.4687   C.3       2 RES2   0.0000
    28 H11      7.1752   3.1061   6.5957   H         2 RES2   0.0000
    29 H12      8.4180   4.1091   6.6082   H         2 RES2   0.0000
    30 C10      8.4789   2.7817   5.0428   C.3       2 RES2   0.0000
    31 H13      8.0340   3.4018   4.4284   H         2 RES2   0.0000
    32 H14      8.1647   1.8692   4.8704   H         2 RES2   0.0000
    33 H15      9.4484   2.8243   4.9050   H         2 RES2   0.0000
    34 C11     10.3415   2.4353   7.4740   C.3       2 RES2   0.0000
    35 H16     10.7293   1.8371   8.1610   H         2 RES2   0.0000
    36 H17     10.6479   2.1098   6.5906   H         2 RES2   0.0000
    37 C12     10.8908   3.8102   7.6844   C.3       2 RES2   0.0000
    38 H18     11.8696   3.7813   7.6400   H         2 RES2   0.0000
    39 H19     10.6134   4.1418   8.5636   H         2 RES2   0.0000
    40 H20     10.5500   4.4083   6.9869   H         2 RES2   0.0000
    41 N4       7.8924   2.4542   0.0777   N.4       3 RES3   1.0000
    42 C13      6.8818   2.3481   1.2067   C.3       3 RES3   0.0000
    43 H21      6.9769   1.4600   1.6336   H         3 RES3   0.0000
    44 H22      7.0970   3.0325   1.8889   H         3 RES3   0.0000
    45 C14      5.4375   2.5279   0.7788   C.3       3 RES3   0.0000
    46 H23      5.3228   3.4161   0.3808   H         3 RES3   0.0000
    47 H24      4.8522   2.4420   1.5600   H         3 RES3   0.0000
    48 H25      5.2044   1.8418   0.1189   H         3 RES3   0.0000
    49 C15      7.5319   1.5281  -1.0705   C.3       3 RES3   0.0000
    50 H26      8.2599   1.5596  -1.7405   H         3 RES3   0.0000
    51 H27      6.7114   1.8714  -1.5056   H         3 RES3   0.0000
    52 C16      7.3001   0.0803  -0.6784   C.3       3 RES3   0.0000
    53 H28      7.1255  -0.4521  -1.4825   H         3 RES3   0.0000
    54 H29      6.5284   0.0246  -0.0763   H         3 RES3   0.0000
    55 H30      8.0952  -0.2663  -0.2230   H         3 RES3   0.0000
    56 C17      7.8987   3.8875  -0.4333   C.3       3 RES3   0.0000
    57 H31      7.0163   4.0802  -0.8386   H         3 RES3   0.0000
    58 H32      8.0105   4.4958   0.3398   H         3 RES3   0.0000
    59 C18      8.9732   4.2026  -1.4512   C.3       3 RES3   0.0000
    60 H33      8.8768   3.6070  -2.2235   H         3 RES3   0.0000
    61 H34      9.8561   4.0709  -1.0459   H         3 RES3   0.0000
    62 H35      8.8840   5.1337  -1.7435   H         3 RES3   0.0000
    63 C19      9.2618   2.0517   0.6073   C.3       3 RES3   0.0000
    64 H36      9.1874   1.1573   1.0251   H         3 RES3   0.0000
    65 H37      9.8847   1.9727  -0.1580   H         3 RES3   0.0000
    66 C20      9.8609   3.0099   1.6207   C.3       3 RES3   0.0000
    67 H38     10.0849   3.8552   1.1784   H         3 RES3   0.0000
    68 H39     10.6729   2.6159   2.0025   H         3 RES3   0.0000
    69 H40      9.2118   3.1773   2.3356   H         3 RES3   0.0000
    70 N5      11.4771   8.6029  10.1415   N.1       4 RES4   0.0000
    71 C21     10.5273   7.9835  10.0279   C.1       4 RES4   0.0000
    72 C22      9.3084   7.2035   9.8602   C.3       4 RES4   0.0000
    73 H41      9.2159   6.9407   8.9207   H         4 RES4   0.0000
    74 H42      8.5360   7.7446  10.1260   H         4 RES4   0.0000
    75 H43      9.3543   6.4013  10.4210   H         4 RES4   0.0000
@<TRIPOS>BOND
     1     1     2    1
     2     2     3    1
     3     3     1    1
     4     4     8    3
     5     5     9    3
     6     6    10    3
     7     7    11    3
     8     8     3    1
     9     9     3    1
    10    10     3    1
    11    11     3    1
    12    12    13    1
    13    13    14    1
    14    15    13    1
    15    16    13    1
    16    17    16    1
    17    18    16    1
    18    19    16    1
    19    20    12    1
    20    21    20    1
    21    22    20    1
    22    23    20    1
    23    24    23    1
    24    25    23    1
    25    26    23    1
    26    27    12    1
    27    28    27    1
    28    29    27    1
    29    30    27    1
    30    31    30    1
    31    32    30    1
    32    33    30    1
    33    34    12    1
    34    35    34    1
    35    36    34    1
    36    37    34    1
    37    38    37    1
    38    39    37    1
    39    40    37    1
    40    41    42    1
    41    42    43    1
    42    44    42    1
    43    45    42    1
    44    46    45    1
    45    47    45    1
    46    48    45    1
    47    49    41    1
    48    50    49    1
    49    51    49    1
    50    52    49    1
    51    53    52    1
    52    54    52    1
    53    55    52    1
    54    56    41    1
    55    57    56    1
    56    58    56    1
    57    59    56    1
    58    60    59    1
    59    61    59    1
    60    62    59    1
    61    63    41    1
    62    64    63    1
    63    65    63    1
    64    66    63    1
    65    67    66    1
    66    68    66    1
    67    69    66    1
    68    70    71    3
    69    71    72    1
    70    72    73    1
    71    74    72    1
    72    75    72    1
@<TRIPOS>SUBSTRUCTURE
     1 RES1        1 GROUP             0 ****  ****    0  
     2 RES2       12 GROUP             0 ****  ****    0  
     3 RES3       41 GROUP             0 ****  ****    0  
     4 RES4       70 GROUP             0 ****  ****    0  
@<TRIPOS>CRYSIN
    9.7951   10.4343   14.6352   88.4030   84.7285   75.0339     2     1
