@<TRIPOS>MOLECULE
LEHTOL
   106   117     2     0     0
SMALL
NO_CHARGES
****
Generated from the CSD

@<TRIPOS>ATOM
     1 Fe1      2.4089  10.6584   4.1451   Fe        1 RES1   0.0000
     2 K1       2.0643  10.8018   9.4577   K         1 RES1   0.0000
     3 K2       4.9347  10.1669  -1.0355   K         1 RES1   0.0000
     4 S1       3.9024  12.3300   4.8928   S.3       1 RES1   0.0000
     5 S2       4.1949  12.2059   6.9022   S.3       1 RES1   0.0000
     6 S3       5.4014  10.5094   7.1802   S.3       1 RES1   0.0000
     7 S4       4.0673   8.9760   6.8883   S.3       1 RES1   0.0000
     8 S5       3.7955   8.8974   4.8799   S.3       1 RES1   0.0000
     9 O1       0.6165   8.6333   3.0446   O.2       1 RES1   0.0000
    10 O2       0.7271  12.7788   3.0561   O.2       1 RES1   0.0000
    11 O3       3.6361   8.7799  10.9287   O.3       1 RES1   0.0000
    12 O4       1.1470   8.1519   9.8560   O.3       1 RES1   0.0000
    13 O5      -0.7809  10.2616   9.9288   O.3       1 RES1   0.0000
    14 O6       0.2038  12.9117   9.6941   O.3       1 RES1   0.0000
    15 O7       2.7722  13.4212  10.6874   O.3       1 RES1   0.0000
    16 O8       4.6901  11.3767  10.7998   O.3       1 RES1   0.0000
    17 O9       5.3831   7.5531  -2.1338   O.3       1 RES1   0.0000
    18 O10      2.8590   8.1182  -1.1934   O.3       1 RES1   0.0000
    19 O11      2.0418  10.8305  -1.2793   O.3       1 RES1   0.0000
    20 O12      4.0586  12.7968  -1.3768   O.3       1 RES1   0.0000
    21 O13      6.5693  12.0997  -2.4181   O.3       1 RES1   0.0000
    22 O14      7.4548   9.4082  -2.2132   O.3       1 RES1   0.0000
    23 N1       0.8739  10.6703   6.8197   N.1       1 RES1   0.0000
    24 N2       4.1431  10.5806   1.5868   N.1       1 RES1   0.0000
    25 C1       1.3233   9.4036   3.4892   C.1       1 RES1   0.0000
    26 C2       1.3916  11.9758   3.4859   C.1       1 RES1   0.0000
    27 C3       1.4471  10.6751   5.8214   C.1       1 RES1   0.0000
    28 C4       3.5117  10.6255   2.5520   C.1       1 RES1   0.0000
    29 C5       3.3339   7.4685  10.4478   C.3       1 RES1   0.0000
    30 H1       3.8629   6.7922  10.9400   H         1 RES1   0.0000
    31 H2       3.5510   7.3977   9.4842   H         1 RES1   0.0000
    32 C6       1.8913   7.2449  10.6643   C.3       1 RES1   0.0000
    33 H3       1.6567   6.3133  10.4255   H         1 RES1   0.0000
    34 H4       1.6693   7.3865  11.6180   H         1 RES1   0.0000
    35 C7      -0.2555   7.9293   9.9767   C.3       1 RES1   0.0000
    36 H5      -0.5132   7.9306  10.9329   H         1 RES1   0.0000
    37 H6      -0.4893   7.0473   9.5938   H         1 RES1   0.0000
    38 C8      -0.9821   8.9929   9.2627   C.3       1 RES1   0.0000
    39 H7      -0.6562   9.0506   8.3298   H         1 RES1   0.0000
    40 H8      -1.9483   8.7784   9.2397   H         1 RES1   0.0000
    41 C9      -1.4889  11.2951   9.2825   C.3       1 RES1   0.0000
    42 H9      -2.4618  11.1259   9.3506   H         1 RES1   0.0000
    43 H10     -1.2456  11.3162   8.3226   H         1 RES1   0.0000
    44 C10     -1.1606  12.6023   9.9122   C.3       1 RES1   0.0000
    45 H11     -1.7301  13.3125   9.5229   H         1 RES1   0.0000
    46 H12     -1.3420  12.5591  10.8844   H         1 RES1   0.0000
    47 C11      0.5608  14.1658  10.2841   C.3       1 RES1   0.0000
    48 H13      0.3865  14.1419  11.2581   H         1 RES1   0.0000
    49 H14      0.0157  14.8914   9.8881   H         1 RES1   0.0000
    50 C12      2.0158  14.4238  10.0312   C.3       1 RES1   0.0000
    51 H15      2.1990  14.4040   9.0588   H         1 RES1   0.0000
    52 H16      2.2654  15.3176  10.3773   H         1 RES1   0.0000
    53 C13      4.1636  13.6774  10.6064   C.3       1 RES1   0.0000
    54 H17      4.3661  14.5781  10.9647   H         1 RES1   0.0000
    55 H18      4.4611  13.6432   9.6619   H         1 RES1   0.0000
    56 C14      4.8687  12.6397  11.4015   C.3       1 RES1   0.0000
    57 H19      5.8339  12.8539  11.4502   H         1 RES1   0.0000
    58 H20      4.5087  12.6245  12.3241   H         1 RES1   0.0000
    59 C15      5.2627  10.3462  11.5701   C.3       1 RES1   0.0000
    60 H21      4.8562  10.3412  12.4725   H         1 RES1   0.0000
    61 H22      6.2342  10.5064  11.6693   H         1 RES1   0.0000
    62 C16      5.0363   9.0336  10.9122   C.3       1 RES1   0.0000
    63 H23      5.3688   9.0556   9.9795   H         1 RES1   0.0000
    64 H24      5.5183   8.3189  11.3997   H         1 RES1   0.0000
    65 C17      4.4916   6.5024  -1.7983   C.3       1 RES1   0.0000
    66 H25      4.6111   6.2436  -0.8509   H         1 RES1   0.0000
    67 H26      4.6717   5.7099  -2.3645   H         1 RES1   0.0000
    68 C18      3.0891   6.9910  -2.0281   C.3       1 RES1   0.0000
    69 H27      2.9692   7.2435  -2.9771   H         1 RES1   0.0000
    70 H28      2.4414   6.2733  -1.8120   H         1 RES1   0.0000
    71 C19      1.5008   8.5377  -1.2446   C.3       1 RES1   0.0000
    72 H29      0.9238   7.8551  -0.8189   H         1 RES1   0.0000
    73 H30      1.2179   8.6373  -2.1882   H         1 RES1   0.0000
    74 C20      1.3537   9.8333  -0.5355   C.3       1 RES1   0.0000
    75 H31      0.3951  10.0702  -0.4578   H         1 RES1   0.0000
    76 H32      1.7339   9.7673   0.3756   H         1 RES1   0.0000
    77 C21      1.8812  12.1331  -0.7173   C.3       1 RES1   0.0000
    78 H33      2.2024  12.1387   0.2192   H         1 RES1   0.0000
    79 H34      0.9236  12.3858  -0.7189   H         1 RES1   0.0000
    80 C22      2.6703  13.1116  -1.5355   C.3       1 RES1   0.0000
    81 H35      2.4122  13.0459  -2.4889   H         1 RES1   0.0000
    82 H36      2.4930  14.0359  -1.2262   H         1 RES1   0.0000
    83 C23      4.9081  13.7654  -2.0198   C.3       1 RES1   0.0000
    84 H37      4.7527  14.6642  -1.6356   H         1 RES1   0.0000
    85 H38      4.7124  13.8006  -2.9897   H         1 RES1   0.0000
    86 C24      6.3214  13.3498  -1.7967   C.3       1 RES1   0.0000
    87 H39      6.9315  14.0338  -2.1717   H         1 RES1   0.0000
    88 H40      6.4975  13.2792  -0.8255   H         1 RES1   0.0000
    89 C25      7.9449  11.7345  -2.3008   C.3       1 RES1   0.0000
    90 H41      8.2001  11.6930  -1.3454   H         1 RES1   0.0000
    91 H42      8.5108  12.4163  -2.7430   H         1 RES1   0.0000
    92 C26      8.1673  10.4005  -2.9421   C.3       1 RES1   0.0000
    93 H43      7.8502  10.4218  -3.8797   H         1 RES1   0.0000
    94 H44      9.1335  10.1866  -2.9455   H         1 RES1   0.0000
    95 C27      7.5743   8.1314  -2.8148   C.3       1 RES1   0.0000
    96 H45      8.5219   7.8453  -2.8155   H         1 RES1   0.0000
    97 H46      7.2600   8.1696  -3.7534   H         1 RES1   0.0000
    98 C28      6.7445   7.1552  -2.0363   C.3       1 RES1   0.0000
    99 H47      6.8580   6.2425  -2.4044   H         1 RES1   0.0000
   100 H48      7.0288   7.1469  -1.0882   H         1 RES1   0.0000
   101 N3       7.6524  10.6428   1.1405   N.1       2 RES2   0.0000
   102 C29      7.4592  10.6477   2.2562   C.1       2 RES2   0.0000
   103 C30      7.1879  10.6531   3.6826   C.3       2 RES2   0.0000
   104 H49      6.3531  11.1363   3.8547   H         2 RES2   0.0000
   105 H50      7.9249  11.0971   4.1529   H         2 RES2   0.0000
   106 H51      7.1046   9.7312   4.0028   H         2 RES2   0.0000
@<TRIPOS>BOND
     1     1     4    1
     2     2    11    1
     3     3    17    1
     4     4     5    1
     5     5     6    1
     6     6     7    1
     7     7     8    1
     8     8     1    1
     9     9    25    3
    10    10    26    3
    11    11    29    1
    12    12     2    1
    13    13     2    1
    14    14     2    1
    15    15     2    1
    16    16     2    1
    17    17    65    1
    18    18     3    1
    19    19     3    1
    20    20     3    1
    21    21     3    1
    22    22     3    1
    23    23     2    1
    24    24     3    1
    25    25     1    1
    26    26     1    1
    27    27     1    1
    28    28     1    1
    29    29    30    1
    30    31    29    1
    31    32    12    1
    32    33    32    1
    33    34    32    1
    34    35    12    1
    35    36    35    1
    36    37    35    1
    37    38    13    1
    38    39    38    1
    39    40    38    1
    40    41    13    1
    41    42    41    1
    42    43    41    1
    43    44    14    1
    44    45    44    1
    45    46    44    1
    46    47    14    1
    47    48    47    1
    48    49    47    1
    49    50    15    1
    50    51    50    1
    51    52    50    1
    52    53    15    1
    53    54    53    1
    54    55    53    1
    55    56    16    1
    56    57    56    1
    57    58    56    1
    58    59    16    1
    59    60    59    1
    60    61    59    1
    61    62    11    1
    62    63    62    1
    63    64    62    1
    64    65    66    1
    65    67    65    1
    66    68    18    1
    67    69    68    1
    68    70    68    1
    69    71    18    1
    70    72    71    1
    71    73    71    1
    72    74    19    1
    73    75    74    1
    74    76    74    1
    75    77    19    1
    76    78    77    1
    77    79    77    1
    78    80    20    1
    79    81    80    1
    80    82    80    1
    81    83    20    1
    82    84    83    1
    83    85    83    1
    84    86    21    1
    85    87    86    1
    86    88    86    1
    87    89    21    1
    88    90    89    1
    89    91    89    1
    90    92    22    1
    91    93    92    1
    92    94    92    1
    93    95    22    1
    94    96    95    1
    95    97    95    1
    96    98    17    1
    97    99    98    1
    98   100    98    1
    99    23    27    3
   100    24    28    3
   101    29    32    1
   102    35    38    1
   103    41    44    1
   104    47    50    1
   105    53    56    1
   106    59    62    1
   107    65    68    1
   108    71    74    1
   109    77    80    1
   110    83    86    1
   111    89    92    1
   112    95    98    1
   113   101   102    3
   114   102   103    1
   115   103   104    1
   116   105   103    1
   117   106   103    1
@<TRIPOS>SUBSTRUCTURE
     1 RES1        1 GROUP             0 ****  ****    0  
     2 RES2      101 GROUP             0 ****  ****    0  
@<TRIPOS>CRYSIN
    9.6321   13.8371   16.5568   87.2780   87.9790   88.1980     2     1
