@<TRIPOS>MOLECULE
LEJWUT
    75    73     2     0     0
SMALL
NO_CHARGES
****
Generated from the CSD

@<TRIPOS>ATOM
     1 Fe1      0.0000   0.0000   0.0000   Fe        1 RES1   0.0000
     2 N1       1.4643  -1.4520  -2.2180   N.1       1 RES1   0.0000
     3 N2      -2.1866  -2.1866   0.0000   N.1       1 RES1   0.0000
     4 C1       0.9235  -0.9199  -1.3537   C.1       1 RES1   0.0000
     5 C2       2.0941  -2.0929  -3.3754   C.3       1 RES1   0.0000
     6 C3       2.8857  -3.2636  -2.8784   C.3       1 RES1   0.0000
     7 H1       3.6106  -2.9463  -2.3012   H         1 RES1   0.0000
     8 H2       3.2636  -3.7485  -3.6417   H         1 RES1   0.0000
     9 H3       2.2985  -3.8602  -2.3691   H         1 RES1   0.0000
    10 C4       1.0007  -2.5588  -4.2755   C.3       1 RES1   0.0000
    11 H4       0.5015  -1.7851  -4.6113   H         1 RES1   0.0000
    12 H5       0.3946  -3.1471  -3.7763   H         1 RES1   0.0000
    13 H6       1.3858  -3.0520  -5.0300   H         1 RES1   0.0000
    14 C5       2.9451  -1.0791  -4.0718   C.3       1 RES1   0.0000
    15 H7       3.6689  -0.7951  -3.4758   H         1 RES1   0.0000
    16 H8       2.3972  -0.3043  -4.3145   H         1 RES1   0.0000
    17 H9       3.3266  -1.4761  -4.8829   H         1 RES1   0.0000
    18 C6      -1.3680  -1.3680   0.0000   C.1       1 RES1   0.0000
    19 N1A     -1.4643   1.4520  -2.2180   N.1       1 RES1   0.0000
    20 N1F     -1.4520   1.4643   2.2180   N.1       1 RES1   0.0000
    21 N1G      1.4520  -1.4643   2.2180   N.1       1 RES1   0.0000
    22 N2A      2.1866   2.1866   0.0000   N.1       1 RES1   0.0000
    23 C1A     -0.9235   0.9199  -1.3537   C.1       1 RES1   0.0000
    24 C1F     -0.9199   0.9235   1.3537   C.1       1 RES1   0.0000
    25 C1G      0.9199  -0.9235   1.3537   C.1       1 RES1   0.0000
    26 C2A     -2.0941   2.0929  -3.3754   C.3       1 RES1   0.0000
    27 C2F     -2.0929   2.0941   3.3754   C.3       1 RES1   0.0000
    28 C2G      2.0929  -2.0941   3.3754   C.3       1 RES1   0.0000
    29 C3A     -2.8857   3.2636  -2.8784   C.3       1 RES1   0.0000
    30 C3F     -3.2636   2.8857   2.8784   C.3       1 RES1   0.0000
    31 C3G      3.2636  -2.8857   2.8784   C.3       1 RES1   0.0000
    32 H1A     -3.6106   2.9463  -2.3012   H         1 RES1   0.0000
    33 H1F     -2.9463   3.6106   2.3012   H         1 RES1   0.0000
    34 H1G      2.9463  -3.6106   2.3012   H         1 RES1   0.0000
    35 H2A     -3.2636   3.7485  -3.6417   H         1 RES1   0.0000
    36 H2F     -3.7485   3.2636   3.6417   H         1 RES1   0.0000
    37 H2G      3.7485  -3.2636   3.6417   H         1 RES1   0.0000
    38 H3A     -2.2985   3.8602  -2.3691   H         1 RES1   0.0000
    39 H3F     -3.8602   2.2985   2.3691   H         1 RES1   0.0000
    40 H3G      3.8602  -2.2985   2.3691   H         1 RES1   0.0000
    41 C4A     -1.0007   2.5588  -4.2755   C.3       1 RES1   0.0000
    42 C4F     -2.5588   1.0007   4.2755   C.3       1 RES1   0.0000
    43 C4G      2.5588  -1.0007   4.2755   C.3       1 RES1   0.0000
    44 H4A     -0.5015   1.7851  -4.6113   H         1 RES1   0.0000
    45 H4F     -1.7851   0.5015   4.6113   H         1 RES1   0.0000
    46 H4G      1.7851  -0.5015   4.6113   H         1 RES1   0.0000
    47 H5A     -0.3946   3.1471  -3.7763   H         1 RES1   0.0000
    48 H5F     -3.1471   0.3946   3.7763   H         1 RES1   0.0000
    49 H5G      3.1471  -0.3946   3.7763   H         1 RES1   0.0000
    50 H6A     -1.3858   3.0520  -5.0300   H         1 RES1   0.0000
    51 H6F     -3.0520   1.3858   5.0300   H         1 RES1   0.0000
    52 H6G      3.0520  -1.3858   5.0300   H         1 RES1   0.0000
    53 C5A     -2.9451   1.0791  -4.0718   C.3       1 RES1   0.0000
    54 C5F     -1.0791   2.9451   4.0718   C.3       1 RES1   0.0000
    55 C5G      1.0791  -2.9451   4.0718   C.3       1 RES1   0.0000
    56 H7A     -3.6689   0.7951  -3.4758   H         1 RES1   0.0000
    57 H7F     -0.7951   3.6689   3.4758   H         1 RES1   0.0000
    58 H7G      0.7951  -3.6689   3.4758   H         1 RES1   0.0000
    59 H8A     -2.3972   0.3043  -4.3145   H         1 RES1   0.0000
    60 H8F     -0.3043   2.3972   4.3145   H         1 RES1   0.0000
    61 H8G      0.3043  -2.3972   4.3145   H         1 RES1   0.0000
    62 H9A     -3.3266   1.4761  -4.8829   H         1 RES1   0.0000
    63 H9F     -1.4761   3.3266   4.8829   H         1 RES1   0.0000
    64 H9G      1.4761  -3.3266   4.8829   H         1 RES1   0.0000
    65 C6A      1.3680   1.3680   0.0000   C.1       1 RES1   0.0000
    66 O1       5.9425  -0.0000  -2.0133   O.2       2 RES2   0.0000
    67 C7       4.7908  -0.5229  -0.0314   C.3       2 RES2   0.0000
    68 H10      4.1003  -0.8415  -0.6501   H         2 RES2   0.0000
    69 H11      4.4212   0.1902   0.5307   H         2 RES2   0.0000
    70 H12      5.0867  -1.2657   0.5357   H         2 RES2   0.0000
    71 C8       5.9425  -0.0000  -0.8023   C.2       2 RES2   0.0000
    72 C7A      7.0941   0.5229  -0.0314   C.3       2 RES2   0.0000
    73 H10A     7.7846   0.8415  -0.6501   H         2 RES2   0.0000
    74 H11A     7.4637  -0.1902   0.5307   H         2 RES2   0.0000
    75 H12A     6.7982   1.2657   0.5357   H         2 RES2   0.0000
@<TRIPOS>BOND
     1     1     4    1
     2     2     4    3
     3     3    18    3
     4     5     2    1
     5     6     5    1
     6     7     6    1
     7     8     6    1
     8     9     6    1
     9    10     5    1
    10    11    10    1
    11    12    10    1
    12    13    10    1
    13    14     5    1
    14    15    14    1
    15    16    14    1
    16    17    14    1
    17    18     1    1
    18    19    23    3
    19    20    24    3
    20    21    25    3
    21    22    65    3
    22    23     1    1
    23    24     1    1
    24    25     1    1
    25    26    19    1
    26    27    20    1
    27    28    21    1
    28    29    26    1
    29    30    27    1
    30    31    28    1
    31    32    29    1
    32    33    30    1
    33    34    31    1
    34    35    29    1
    35    36    30    1
    36    37    31    1
    37    38    29    1
    38    39    30    1
    39    40    31    1
    40    41    26    1
    41    42    27    1
    42    43    28    1
    43    44    41    1
    44    45    42    1
    45    46    43    1
    46    47    41    1
    47    48    42    1
    48    49    43    1
    49    50    41    1
    50    51    42    1
    51    52    43    1
    52    53    26    1
    53    54    27    1
    54    55    28    1
    55    56    53    1
    56    57    54    1
    57    58    55    1
    58    59    53    1
    59    60    54    1
    60    61    55    1
    61    62    53    1
    62    63    54    1
    63    64    55    1
    64    65     1    1
    65    66    71    2
    66    67    68    1
    67    69    67    1
    68    70    67    1
    69    71    67    1
    70    72    71    1
    71    73    72    1
    72    74    72    1
    73    75    72    1
@<TRIPOS>SUBSTRUCTURE
     1 RES1        1 GROUP             0 ****  ****    0  
     2 RES2       66 GROUP             0 ****  ****    0  
@<TRIPOS>CRYSIN
   11.8849   11.8849   12.5751   90.0000   90.0000   90.0000    94     1
