@<TRIPOS>MOLECULE
LEKYUZ
    99   107     4     0     0
SMALL
USER_CHARGES
****
Generated from the CSD

@<TRIPOS>ATOM
     1 Fe1     12.6065   5.0586  15.5528   Fe        1 RES1   2.0000
     2 N1      13.2168   3.5463  14.1720   N.ar      1 RES1   0.0000
     3 N2      12.8695   4.0627  17.4309   N.ar      1 RES1   0.0000
     4 N3      11.8605   6.0049  18.0579   N.pl3     1 RES1   0.0000
     5 N4      14.4005   6.1858  15.2842   N.ar      1 RES1   0.0000
     6 N5      13.2340   6.6733  13.3837   N.pl3     1 RES1   0.0000
     7 N6      11.4504   7.6318  16.7285   N.pl3     1 RES1   0.0000
     8 N7      10.9894   3.1261  14.3957   N.pl3     1 RES1   0.0000
     9 N8      11.1623   6.2041  13.0852   N.pl3     1 RES1   0.0000
    10 N9       9.7489   3.9203  15.9567   N.pl3     1 RES1   0.0000
    11 C1      15.5338   6.3474  16.0849   C.ar      1 RES1   0.0000
    12 C2      12.2732   4.7232  18.4169   C.ar      1 RES1   0.0000
    13 C3      11.9435   6.3728  16.7408   C.3       1 RES1   0.0000
    14 C4      12.1870   6.0093  13.9636   C.3       1 RES1   0.0000
    15 C5      13.3321   2.7897  17.7486   C.ar      1 RES1   0.0000
    16 C6      14.4196   6.8227  14.1182   C.ar      1 RES1   0.0000
    17 C7      14.0355   2.0462  16.7964   C.ar      1 RES1   0.0000
    18 H1      14.1850   2.4073  15.9306   H         1 RES1   0.0000
    19 C8      10.9918   4.0540  15.4153   C.3       1 RES1   0.0000
    20 C9      14.4348   3.3070  13.5393   C.ar      1 RES1   0.0000
    21 C10     15.6047   5.7393  17.3464   C.ar      1 RES1   0.0000
    22 H2      14.8850   5.1987  17.6499   H         1 RES1   0.0000
    23 C11     13.1371   2.2279  19.0316   C.ar      1 RES1   0.0000
    24 C12     16.6340   7.1373  15.6528   C.ar      1 RES1   0.0000
    25 C13     12.1525   2.9400  13.6536   C.ar      1 RES1   0.0000
    26 C14     15.4551   7.6318  13.6343   C.ar      1 RES1   0.0000
    27 H3      15.3819   8.0636  12.7915   H         1 RES1   0.0000
    28 C15     16.7098   5.9202  18.1498   C.ar      1 RES1   0.0000
    29 H4      16.7384   5.5055  19.0041   H         1 RES1   0.0000
    30 C16     14.5132   0.7924  17.1084   C.ar      1 RES1   0.0000
    31 H5      14.9820   0.2947  16.4485   H         1 RES1   0.0000
    32 C17     14.5088   2.5844  12.3251   C.ar      1 RES1   0.0000
    33 C18     17.7929   6.7039  17.7281   C.ar      1 RES1   0.0000
    34 H6      18.5452   6.8221  18.2960   H         1 RES1   0.0000
    35 C19     15.6439   3.6992  14.1575   C.ar      1 RES1   0.0000
    36 H7      15.6174   4.1484  14.9944   H         1 RES1   0.0000
    37 C20     13.6456   0.9410  19.3215   C.ar      1 RES1   0.0000
    38 H8      13.5137   0.5650  20.1840   H         1 RES1   0.0000
    39 C21     11.2856   7.0079  18.8393   C.2       1 RES1   0.0000
    40 H9      11.1134   6.9813  19.7732   H         1 RES1   0.0000
    41 C22     17.7634   7.2980  16.4979   C.ar      1 RES1   0.0000
    42 H10     18.5012   7.8211  16.2072   H         1 RES1   0.0000
    43 C23     12.8753   7.2604  12.1745   C.2       1 RES1   0.0000
    44 H11     13.4302   7.7698  11.5955   H         1 RES1   0.0000
    45 C24     11.5868   6.9581  11.9995   C.2       1 RES1   0.0000
    46 H12     11.0513   7.2158  11.2580   H         1 RES1   0.0000
    47 C25     16.5637   7.7829  14.3982   C.ar      1 RES1   0.0000
    48 H13     17.2869   8.3179  14.0930   H         1 RES1   0.0000
    49 C26     14.3216   0.2376  18.3757   C.ar      1 RES1   0.0000
    50 H14     14.6622  -0.6260  18.5756   H         1 RES1   0.0000
    51 C27     11.0292   8.0101  17.9992   C.2       1 RES1   0.0000
    52 H15     10.6279   8.8401  18.2287   H         1 RES1   0.0000
    53 C28      9.7647   2.4507  14.3071   C.2       1 RES1   0.0000
    54 H16      9.5249   1.7762  13.6822   H         1 RES1   0.0000
    55 C29      9.0090   2.9505  15.2803   C.2       1 RES1   0.0000
    56 H17      8.1173   2.6910  15.4806   H         1 RES1   0.0000
    57 C30     12.4458   2.9846  20.0031   C.ar      1 RES1   0.0000
    58 H18     12.2766   2.6181  20.8630   H         1 RES1   0.0000
    59 C31     13.3109   2.0523  11.7960   C.ar      1 RES1   0.0000
    60 H19     13.3258   1.5917  10.9654   H         1 RES1   0.0000
    61 C32     12.0273   4.2313  19.7024   C.ar      1 RES1   0.0000
    62 H20     11.5764   4.7626  20.3486   H         1 RES1   0.0000
    63 C33     16.8524   3.4433  13.5677   C.ar      1 RES1   0.0000
    64 H21     17.6546   3.7131  13.9989   H         1 RES1   0.0000
    65 C34     12.1444   2.1939  12.4636   C.ar      1 RES1   0.0000
    66 H22     11.3433   1.8009  12.1377   H         1 RES1   0.0000
    67 C35     11.3984   8.5247  15.5731   C.3       1 RES1   0.0000
    68 H23     12.2719   8.5345  15.1286   H         1 RES1   0.0000
    69 H24     11.1728   9.4306  15.8703   H         1 RES1   0.0000
    70 H25     10.7162   8.2071  14.9452   H         1 RES1   0.0000
    71 C36     16.9144   2.7854  12.3347   C.ar      1 RES1   0.0000
    72 H26     17.7553   2.6303  11.9207   H         1 RES1   0.0000
    73 C37     15.7661   2.3660  11.7264   C.ar      1 RES1   0.0000
    74 H27     15.8154   1.9214  10.8884   H         1 RES1   0.0000
    75 C38      9.1835   4.6883  17.0615   C.3       1 RES1   0.0000
    76 H28      9.5410   4.3517  17.9097   H         1 RES1   0.0000
    77 H29      8.2079   4.5951  17.0584   H         1 RES1   0.0000
    78 H30      9.4219   5.6331  16.9585   H         1 RES1   0.0000
    79 C39      9.7710   5.8057  13.2383   C.3       1 RES1   0.0000
    80 H31      9.6403   4.9179  12.8442   H         1 RES1   0.0000
    81 H32      9.1937   6.4534  12.7830   H         1 RES1   0.0000
    82 H33      9.5423   5.7770  14.1909   H         1 RES1   0.0000
    83 P1      14.5134   6.3359  21.8402   P.3       2 RES2  -1.0000
    84 F1      13.8590   4.9654  22.3717   F         2 RES2   0.0000
    85 F2      14.5021   6.9098  23.3123   F         2 RES2   0.0000
    86 F3      15.1541   7.6973  21.3311   F         2 RES2   0.0000
    87 F4      15.9678   5.7411  22.0767   F         2 RES2   0.0000
    88 F5      13.0489   6.9040  21.5960   F         2 RES2   0.0000
    89 F6      14.5186   5.7402  20.3705   F         2 RES2   0.0000
    90 P2       6.9963   7.9368  15.4188   P.3       3 RES3  -1.0000
    91 F7       5.5090   8.0771  14.8660   F         3 RES3   0.0000
    92 F8       6.4571   7.2622  16.7413   F         3 RES3   0.0000
    93 F9       7.1043   6.5021  14.7196   F         3 RES3   0.0000
    94 F10      6.8436   9.3591  16.1226   F         3 RES3   0.0000
    95 F11      7.5576   8.6470  14.1187   F         3 RES3   0.0000
    96 F12      8.4853   7.7803  15.9387   F         3 RES3   0.0000
    97 O1      10.0907   8.2617  21.8071   O.3       4 RES4   0.0000
    98 H34     10.7841   8.5752  22.1822   H         4 RES4   0.0000
    99 H35      9.8769   8.8506  21.2300   H         4 RES4   0.0000
@<TRIPOS>BOND
     1     1     2    1
     2     2    20   ar
     3     3     1    1
     4     4    12    1
     5     5     1    1
     6     6    14    1
     7     7    13    1
     8     8    19    1
     9     9    14    1
    10    10    19    1
    11    11     5   ar
    12    12     3   ar
    13    13     1    1
    14    14     1    1
    15    15     3   ar
    16    16     5   ar
    17    17    15   ar
    18    18    17    1
    19    19     1    1
    20    20    32   ar
    21    21    11   ar
    22    22    21    1
    23    23    15   ar
    24    24    11   ar
    25    25     2   ar
    26    26    16   ar
    27    27    26    1
    28    28    21   ar
    29    29    28    1
    30    30    17   ar
    31    31    30    1
    32    32    59   ar
    33    33    28   ar
    34    34    33    1
    35    35    20   ar
    36    36    35    1
    37    37    23   ar
    38    38    37    1
    39    39     4    1
    40    40    39    1
    41    41    24   ar
    42    42    41    1
    43    43     6    1
    44    44    43    1
    45    45     9    1
    46    46    45    1
    47    47    24   ar
    48    48    47    1
    49    49    30   ar
    50    50    49    1
    51    51     7    1
    52    52    51    1
    53    53     8    1
    54    54    53    1
    55    55    10    1
    56    56    55    1
    57    57    23   ar
    58    58    57    1
    59    59    60    1
    60    61    12   ar
    61    62    61    1
    62    63    35   ar
    63    64    63    1
    64    65    25   ar
    65    66    65    1
    66    67     7    1
    67    68    67    1
    68    69    67    1
    69    70    67    1
    70    71    63   ar
    71    72    71    1
    72    73    32   ar
    73    74    73    1
    74    75    10    1
    75    76    75    1
    76    77    75    1
    77    78    75    1
    78    79     9    1
    79    80    79    1
    80    81    79    1
    81    82    79    1
    82     4    13    1
    83     6    16    1
    84     8    25    1
    85    26    47   ar
    86    33    41   ar
    87    37    49   ar
    88    39    51    2
    89    43    45    2
    90    53    55    2
    91    57    61   ar
    92    59    65   ar
    93    71    73   ar
    94    83    84    1
    95    85    83    1
    96    86    83    1
    97    87    83    1
    98    88    83    1
    99    89    83    1
   100    90    91    1
   101    92    90    1
   102    93    90    1
   103    94    90    1
   104    95    90    1
   105    96    90    1
   106    97    98    1
   107    99    97    1
@<TRIPOS>SUBSTRUCTURE
     1 RES1        1 GROUP             0 ****  ****    0  
     2 RES2       83 GROUP             0 ****  ****    0  
     3 RES3       90 GROUP             0 ****  ****    0  
     4 RES4       97 GROUP             0 ****  ****    0  
@<TRIPOS>CRYSIN
   19.1360    8.7370   24.7990   90.0000   95.4180   90.0000    14     1
