@<TRIPOS>MOLECULE
LELDUB
    64    72     1     0     0
SMALL
NO_CHARGES
****
Generated from the CSD

@<TRIPOS>ATOM
     1 Fe1      9.1610   5.8658   0.0000   Fe        1 RES1   0.0000
     2 O1      10.4973   6.0960   1.4886   O.3       1 RES1   0.0000
     3 O2      10.0704   7.4099  -0.9521   O.2       1 RES1   0.0000
     4 O3      10.3438   4.6067  -1.0979   O.2       1 RES1   0.0000
     5 O4       8.4482   4.2863   0.9411   O.3       1 RES1   0.0000
     6 O5       7.8594   5.7856  -1.5391   O.2       1 RES1   0.0000
     7 O6       7.8944   6.9807   0.9943   O.3       1 RES1   0.0000
     8 N1      12.0745   7.3111   2.6682   N.pl3     1 RES1   0.0000
     9 N2      12.9077   8.4155   2.4921   N.2       1 RES1   0.0000
    10 N3       8.7560   2.1865   1.8564   N.pl3     1 RES1   0.0000
    11 N4       9.5238   1.0398   1.6354   N.2       1 RES1   0.0000
    12 N5       5.7147   7.5590   1.5079   N.pl3     1 RES1   0.0000
    13 N6       4.4678   7.6054   0.9025   N.2       1 RES1   0.0000
    14 C1      11.3068   7.0754   1.5748   C.2       1 RES1   0.0000
    15 C2      11.6139   8.1092   0.6375   C.2       1 RES1   0.0000
    16 C3      10.9477   8.2402  -0.5861   C.2       1 RES1   0.0000
    17 C4      11.2266   9.3828  -1.5372   C.3       1 RES1   0.0000
    18 C5      12.6289   8.9011   1.3070   C.2       1 RES1   0.0000
    19 C6      13.3214  10.1365   0.8585   C.3       1 RES1   0.0000
    20 C7      11.9600   6.7610   3.9770   C.ar      1 RES1   0.0000
    21 C8      13.1131   6.5837   4.7282   C.ar      1 RES1   0.0000
    22 C9      12.9954   6.1544   6.0609   C.ar      1 RES1   0.0000
    23 C10     11.7700   5.9086   6.5764   C.ar      1 RES1   0.0000
    24 C11     10.6034   6.0879   5.8114   C.ar      1 RES1   0.0000
    25 C12     10.7225   6.5212   4.5145   C.ar      1 RES1   0.0000
    26 C13      9.0463   3.1578   0.9713   C.2       1 RES1   0.0000
    27 C14     10.0643   2.6399   0.1101   C.2       1 RES1   0.0000
    28 C15     10.6394   3.3835  -0.9145   C.2       1 RES1   0.0000
    29 C16     11.6224   2.8031  -1.8931   C.3       1 RES1   0.0000
    30 C17     10.2990   1.3099   0.6090   C.2       1 RES1   0.0000
    31 C18     11.3061   0.2862   0.1715   C.3       1 RES1   0.0000
    32 C19      7.8971   2.2429   2.9983   C.ar      1 RES1   0.0000
    33 C20      7.2511   1.0862   3.3762   C.ar      1 RES1   0.0000
    34 C21      6.4380   1.0943   4.5099   C.ar      1 RES1   0.0000
    35 C22      6.2657   2.2873   5.1969   C.ar      1 RES1   0.0000
    36 C23      6.9423   3.4399   4.8383   C.ar      1 RES1   0.0000
    37 C24      7.7644   3.4077   3.7138   C.ar      1 RES1   0.0000
    38 C25      6.6635   7.0734   0.6787   C.2       1 RES1   0.0000
    39 C26      5.9904   6.7590  -0.5384   C.2       1 RES1   0.0000
    40 C27      6.6408   6.1282  -1.6143   C.2       1 RES1   0.0000
    41 C28      5.9458   5.8139  -2.9167   C.3       1 RES1   0.0000
    42 C29      4.6311   7.1439  -0.2935   C.2       1 RES1   0.0000
    43 C30      3.4250   7.0210  -1.1979   C.3       1 RES1   0.0000
    44 C31      5.8484   8.0185   2.8644   C.ar      1 RES1   0.0000
    45 C32      5.0133   8.9999   3.3285   C.ar      1 RES1   0.0000
    46 C33      5.1199   9.4311   4.6319   C.ar      1 RES1   0.0000
    47 C34      6.0489   8.8608   5.4959   C.ar      1 RES1   0.0000
    48 C35      6.8699   7.8492   5.0208   C.ar      1 RES1   0.0000
    49 C36      6.7801   7.4240   3.7074   C.ar      1 RES1   0.0000
    50 H1      13.9578   6.7509   4.3384   H         1 RES1   0.0000
    51 H2      13.7651   6.0254   6.5855   H         1 RES1   0.0000
    52 H3      11.6489   5.6023   7.4752   H         1 RES1   0.0000
    53 H4       9.6893   5.9247   6.2003   H         1 RES1   0.0000
    54 H5       9.8963   6.6300   3.9715   H         1 RES1   0.0000
    55 H6       7.3390   0.2620   2.8342   H         1 RES1   0.0000
    56 H7       5.9619   0.2821   4.7970   H         1 RES1   0.0000
    57 H8       5.6224   2.3175   5.9435   H         1 RES1   0.0000
    58 H9       6.8303   4.2722   5.3565   H         1 RES1   0.0000
    59 H10      8.2015   4.1916   3.4212   H         1 RES1   0.0000
    60 H11      4.3193   9.3908   2.7333   H         1 RES1   0.0000
    61 H12      4.5174  10.1365   4.9529   H         1 RES1   0.0000
    62 H13      6.0729   9.1692   6.4021   H         1 RES1   0.0000
    63 H14      7.4670   7.4361   5.6317   H         1 RES1   0.0000
    64 H15      7.3339   6.7308   3.3661   H         1 RES1   0.0000
@<TRIPOS>BOND
     1     1     2    1
     2     2    14    1
     3     3     1    1
     4     4     1    1
     5     5     1    1
     6     6     1    1
     7     7     1    1
     8     8     9    1
     9     9    18    2
    10    10    11    1
    11    11    30    2
    12    12    13    1
    13    13    42    2
    14    14     8    1
    15    15    14    2
    16    16     3    2
    17    17    16    1
    18    18    15    1
    19    19    18    1
    20    20     8    1
    21    21    20   ar
    22    22    21   ar
    23    23    22   ar
    24    24    23   ar
    25    25    20   ar
    26    26     5    1
    27    27    26    2
    28    28     4    2
    29    29    28    1
    30    30    27    1
    31    31    30    1
    32    32    10    1
    33    33    32   ar
    34    34    33   ar
    35    35    34   ar
    36    36    35   ar
    37    37    32   ar
    38    38     7    1
    39    39    38    2
    40    40     6    2
    41    41    40    1
    42    42    39    1
    43    43    42    1
    44    44    12    1
    45    45    44   ar
    46    46    45   ar
    47    47    46   ar
    48    48    47   ar
    49    49    44   ar
    50    50    21    1
    51    51    22    1
    52    52    23    1
    53    53    24    1
    54    54    25    1
    55    55    33    1
    56    56    34    1
    57    57    35    1
    58    58    36    1
    59    59    37    1
    60    60    45    1
    61    61    46    1
    62    62    47    1
    63    63    48    1
    64    64    49    1
    65    10    26    1
    66    12    38    1
    67    15    16    1
    68    24    25   ar
    69    27    28    1
    70    36    37   ar
    71    39    40    1
    72    48    49   ar
@<TRIPOS>SUBSTRUCTURE
     1 RES1        1 GROUP             0 ****  ****    0  
@<TRIPOS>CRYSIN
   18.3220   20.1520    9.3840   90.0000  102.2000   90.0000     9     1
