@<TRIPOS>MOLECULE
LELYUX
    81    87     2     0     0
SMALL
NO_CHARGES
****
Generated from the CSD

@<TRIPOS>ATOM
     1 Fe1      0.7703   4.5515  13.7194   Fe        1 RES1   0.0000
     2 Cl1     -0.1250   6.0917  12.1745   Cl        1 RES1   0.0000
     3 Cl2      0.8285   6.0782  15.4510   Cl        1 RES1   0.0000
     4 O1       2.5677   4.6026  13.2058   O.3       1 RES1   0.0000
     5 O2       5.1877   4.8187  13.7305   O.3       1 RES1   0.0000
     6 H1       4.5388   5.3024  13.9576   H         1 RES1   0.0000
     7 O3      -3.3035   1.9786  17.9479   O.3       1 RES1   0.0000
     8 H2      -3.1876   2.5602  17.3532   H         1 RES1   0.0000
     9 O4      -3.9713   0.1468  19.7665   O.3       1 RES1   0.0000
    10 H3      -3.2316   0.4933  19.5698   H         1 RES1   0.0000
    11 N1       0.5030   2.9964  12.2377   N.ar      1 RES1   0.0000
    12 N2       1.1590   3.0698  15.2738   N.ar      1 RES1   0.0000
    13 N3      -1.2648   3.6595  14.1256   N.3       1 RES1   0.0000
    14 N4      -3.9544   3.4489  15.9426   N.ar      1 RES1   0.0000
    15 C1       3.3568   3.6622  12.6726   C.ar      1 RES1   0.0000
    16 C2       4.7350   3.7832  12.9585   C.ar      1 RES1   0.0000
    17 C3       5.6320   2.8591  12.4708   C.ar      1 RES1   0.0000
    18 H4       6.5586   2.9502  12.6609   H         1 RES1   0.0000
    19 C4       5.1821   1.7951  11.7005   C.ar      1 RES1   0.0000
    20 H5       5.8008   1.1469  11.3860   H         1 RES1   0.0000
    21 C5       3.8530   1.6742  11.3928   C.ar      1 RES1   0.0000
    22 H6       3.5658   0.9526  10.8462   H         1 RES1   0.0000
    23 C6       2.9024   2.5996  11.8687   C.ar      1 RES1   0.0000
    24 C7       1.4932   2.4324  11.4869   C.ar      1 RES1   0.0000
    25 C8       1.1551   1.7054  10.3483   C.ar      1 RES1   0.0000
    26 H7       1.8424   1.3603   9.7900   H         1 RES1   0.0000
    27 C9      -0.1641   1.4798  10.0237   C.ar      1 RES1   0.0000
    28 H8      -0.3874   0.9662   9.2568   H         1 RES1   0.0000
    29 C10     -1.1585   2.0071  10.8260   C.ar      1 RES1   0.0000
    30 H9      -2.0748   1.8495  10.6343   H         1 RES1   0.0000
    31 C11     -0.7841   2.7640  11.9074   C.ar      1 RES1   0.0000
    32 C12     -1.8303   3.3973  12.7820   C.3       1 RES1   0.0000
    33 H10     -2.1347   4.2466  12.3750   H         1 RES1   0.0000
    34 H11     -2.6106   2.7939  12.8593   H         1 RES1   0.0000
    35 C13     -1.0883   2.3726  14.8506   C.3       1 RES1   0.0000
    36 H12     -0.9845   1.6402  14.1930   H         1 RES1   0.0000
    37 H13     -1.8988   2.1878  15.3871   H         1 RES1   0.0000
    38 C14      0.1033   2.3957  15.7538   C.ar      1 RES1   0.0000
    39 C15      0.1444   1.7258  16.9596   C.ar      1 RES1   0.0000
    40 H14     -0.6234   1.2746  17.2893   H         1 RES1   0.0000
    41 C16      1.3281   1.7244  17.6778   C.ar      1 RES1   0.0000
    42 H15      1.3777   1.2787  18.5153   H         1 RES1   0.0000
    43 C17      2.4304   2.3686  17.1732   C.ar      1 RES1   0.0000
    44 H16      3.2569   2.3563  17.6391   H         1 RES1   0.0000
    45 C18      2.3053   3.0344  15.9758   C.ar      1 RES1   0.0000
    46 H17      3.0645   3.4897  15.6276   H         1 RES1   0.0000
    47 C19     -2.1028   4.6461  14.8943   C.3       1 RES1   0.0000
    48 H18     -2.0024   5.5362  14.4722   H         1 RES1   0.0000
    49 H19     -1.7412   4.7127  15.8143   H         1 RES1   0.0000
    50 C20     -3.5808   4.3254  14.9868   C.ar      1 RES1   0.0000
    51 C21     -4.4918   4.9396  14.1476   C.ar      1 RES1   0.0000
    52 H20     -4.2020   5.5484  13.4799   H         1 RES1   0.0000
    53 C22     -5.8388   4.6488  14.3057   C.ar      1 RES1   0.0000
    54 H21     -6.4860   5.0714  13.7541   H         1 RES1   0.0000
    55 C23     -6.2314   3.7438  15.2660   C.ar      1 RES1   0.0000
    56 H22     -7.1522   3.5345  15.3753   H         1 RES1   0.0000
    57 C24     -5.2682   3.1323  16.0817   C.ar      1 RES1   0.0000
    58 C25     -5.6013   2.1403  17.1396   C.ar      1 RES1   0.0000
    59 C26     -4.6140   1.6144  17.9771   C.ar      1 RES1   0.0000
    60 C27     -4.9389   0.6509  18.9509   C.ar      1 RES1   0.0000
    61 C28     -6.2195   0.2052  19.0888   C.ar      1 RES1   0.0000
    62 H23     -6.4327  -0.4416  19.7498   H         1 RES1   0.0000
    63 C29     -7.2041   0.7039  18.2530   C.ar      1 RES1   0.0000
    64 H24     -8.0945   0.3778  18.3253   H         1 RES1   0.0000
    65 C30     -6.9032   1.6728  17.3095   C.ar      1 RES1   0.0000
    66 H25     -7.5986   2.0261  16.7662   H         1 RES1   0.0000
    67 O5       4.0511   7.3163  13.9693   O.3       2 RES2   0.0000
    68 C31      4.4333   6.6994  16.4181   C.3       2 RES2   0.0000
    69 H26      3.8387   5.9221  16.3659   H         2 RES2   0.0000
    70 H27      4.4729   7.0201  17.3431   H         2 RES2   0.0000
    71 H28      5.3319   6.4425  16.1221   H         2 RES2   0.0000
    72 C32      3.9118   7.7824  15.5385   C.3       2 RES2   0.0000
    73 H29      4.4280   8.6141  15.6899   H         2 RES2   0.0000
    74 H30      2.9624   7.9618  15.7538   H         2 RES2   0.0000
    75 C33      3.2809   8.0651  13.4278   C.3       2 RES2   0.0000
    76 H31      3.5229   9.0163  13.5606   H         2 RES2   0.0000
    77 H32      2.3444   7.9129  13.7137   H         2 RES2   0.0000
    78 C34      3.5574   7.5555  11.8839   C.3       2 RES2   0.0000
    79 H33      4.4986   7.3027  11.7880   H         2 RES2   0.0000
    80 H34      3.3484   8.2798  11.2582   H         2 RES2   0.0000
    81 H35      2.9888   6.7809  11.6888   H         2 RES2   0.0000
@<TRIPOS>BOND
     1     1     2    1
     2     3     1    1
     3     4     1    1
     4     5     6    1
     5     7     8    1
     6     9    10    1
     7    11     1    1
     8    12     1    1
     9    13     1    1
    10    14    50   ar
    11    15     4    1
    12    16     5    1
    13    17    16   ar
    14    18    17    1
    15    19    17   ar
    16    20    19    1
    17    21    19   ar
    18    22    21    1
    19    23    15   ar
    20    24    11   ar
    21    25    24   ar
    22    26    25    1
    23    27    25   ar
    24    28    27    1
    25    29    27   ar
    26    30    29    1
    27    31    11   ar
    28    32    13    1
    29    33    32    1
    30    34    32    1
    31    35    13    1
    32    36    35    1
    33    37    35    1
    34    38    12   ar
    35    39    38   ar
    36    40    39    1
    37    41    39   ar
    38    42    41    1
    39    43    41   ar
    40    44    43    1
    41    45    12   ar
    42    46    45    1
    43    47    13    1
    44    48    47    1
    45    49    47    1
    46    50    47    1
    47    51    50   ar
    48    52    51    1
    49    53    51   ar
    50    54    53    1
    51    55    53   ar
    52    56    55    1
    53    57    14   ar
    54    58    57    1
    55    59     7    1
    56    60     9    1
    57    61    60   ar
    58    62    61    1
    59    63    61   ar
    60    64    63    1
    61    65    58   ar
    62    66    65    1
    63    15    16   ar
    64    21    23   ar
    65    23    24    1
    66    29    31   ar
    67    31    32    1
    68    35    38    1
    69    43    45   ar
    70    55    57   ar
    71    58    59   ar
    72    59    60   ar
    73    63    65   ar
    74    67    72    1
    75    68    69    1
    76    70    68    1
    77    71    68    1
    78    72    68    1
    79    73    72    1
    80    74    72    1
    81    75    67    1
    82    76    75    1
    83    77    75    1
    84    78    75    1
    85    79    78    1
    86    80    78    1
    87    81    78    1
@<TRIPOS>SUBSTRUCTURE
     1 RES1        1 GROUP             0 ****  ****    0  
     2 RES2       67 GROUP             0 ****  ****    0  
@<TRIPOS>CRYSIN
   14.3600   13.5890   16.8740   90.0000   94.6540   90.0000    14     1
