@<TRIPOS>MOLECULE
LEMWEI
    81    82     6     0     0
SMALL
USER_CHARGES
****
Generated from the CSD

@<TRIPOS>ATOM
     1 Fe1      3.8922   0.6888  11.7233   Fe        1 RES1   1.0000
     2 Cl1      5.4567   1.2000  10.1735   Cl        1 RES1   0.0000
     3 O1       2.9928   2.4334  11.8226   O.co2     1 RES1   0.0000
     4 O2       1.4302   3.8176  11.0449   O.co2     1 RES1   0.0000
     5 N1       2.5347   0.0415  13.3086   N.3       1 RES1   0.0000
     6 N2       2.0982   0.2831  10.4613   N.3       1 RES1   0.0000
     7 N3       0.6243  -1.9103   8.4994   N.ar      1 RES1   1.0000
     8 H1       0.9097  -2.4394   9.1425   H         1 RES1   0.0000
     9 N4       4.2912  -1.4123  11.7731   N.ar      1 RES1   0.0000
    10 N5       4.9092   1.1797  13.5126   N.ar      1 RES1   0.0000
    11 C1       2.6653   1.0211  14.4064   C.3       1 RES1   0.0000
    12 H2       2.3063   0.6373  15.2436   H         1 RES1   0.0000
    13 H3       2.1457   1.8362  14.1911   H         1 RES1   0.0000
    14 C2       4.1115   1.3738  14.5878   C.ar      1 RES1   0.0000
    15 C3       4.6239   1.8881  15.7607   C.ar      1 RES1   0.0000
    16 H4       4.0506   2.0452  16.5015   H         1 RES1   0.0000
    17 C4       5.9670   2.1711  15.8542   C.ar      1 RES1   0.0000
    18 H5       6.3292   2.5061  16.6673   H         1 RES1   0.0000
    19 C5       6.7882   1.9651  14.7535   C.ar      1 RES1   0.0000
    20 H6       7.7131   2.1815  14.7903   H         1 RES1   0.0000
    21 C6       6.2297   1.4361  13.5948   C.ar      1 RES1   0.0000
    22 H7       6.7879   1.2508  12.8482   H         1 RES1   0.0000
    23 C7       1.1645   0.0000  12.7477   C.3       1 RES1   0.0000
    24 H8       0.7796   0.9114  12.7406   H         1 RES1   0.0000
    25 H9       0.5908  -0.5750  13.3129   H         1 RES1   0.0000
    26 C8       1.2040  -0.5543  11.3226   C.3       1 RES1   0.0000
    27 H10      1.5369  -1.4864  11.3382   H         1 RES1   0.0000
    28 H11      0.2894  -0.5602  10.9444   H         1 RES1   0.0000
    29 C9       1.4784   1.6169  10.1610   C.3       1 RES1   0.0000
    30 H12      0.4941   1.5428  10.2488   H         1 RES1   0.0000
    31 H13      1.6803   1.8629   9.2232   H         1 RES1   0.0000
    32 C10      1.9725   2.7091  11.0733   C.2       1 RES1   0.0000
    33 C11      2.4309  -0.4372   9.1822   C.3       1 RES1   0.0000
    34 H14      3.0752   0.1141   8.6680   H         1 RES1   0.0000
    35 H15      2.8847  -1.2879   9.4088   H         1 RES1   0.0000
    36 C12      1.2656  -0.7440   8.3053   C.ar      1 RES1   0.0000
    37 C13      0.8128   0.0800   7.2896   C.ar      1 RES1   0.0000
    38 H16      1.2342   0.9174   7.1395   H         1 RES1   0.0000
    39 C14     -0.2514  -0.3053   6.4935   C.ar      1 RES1   0.0000
    40 H17     -0.5396   0.2490   5.7767   H         1 RES1   0.0000
    41 C15     -0.8935  -1.5087   6.7513   C.ar      1 RES1   0.0000
    42 H18     -1.6440  -1.7769   6.2357   H         1 RES1   0.0000
    43 C16     -0.4203  -2.3104   7.7769   C.ar      1 RES1   0.0000
    44 H19     -0.8387  -3.1433   7.9625   H         1 RES1   0.0000
    45 C17      2.9736  -1.3116  13.8115   C.3       1 RES1   0.0000
    46 H20      3.5296  -1.1915  14.6218   H         1 RES1   0.0000
    47 H21      2.1745  -1.8377  14.0665   H         1 RES1   0.0000
    48 C18      3.7556  -2.0748  12.7916   C.ar      1 RES1   0.0000
    49 C19      4.0113  -3.4501  12.9771   C.ar      1 RES1   0.0000
    50 H22      3.6431  -3.9154  13.7194   H         1 RES1   0.0000
    51 C20      4.8053  -4.1051  12.0578   C.ar      1 RES1   0.0000
    52 H23      4.9828  -5.0329  12.1626   H         1 RES1   0.0000
    53 C21      5.3438  -3.4160  10.9826   C.ar      1 RES1   0.0000
    54 H24      5.8873  -3.8591  10.3409   H         1 RES1   0.0000
    55 C22      5.0688  -2.0689  10.8721   C.ar      1 RES1   0.0000
    56 H25      5.4344  -1.5828  10.1426   H         1 RES1   0.0000
    57 Cl2     -1.4349   5.9929   3.9157   Cl        2 RES2   0.0000
    58 O3      -1.8689   4.8417   3.2099   O.2       2 RES2   0.0000
    59 O4      -0.0191   5.9221   4.1987   O.2       2 RES2   0.0000
    60 O5      -1.6580   7.1284   3.0924   O.2       2 RES2   0.0000
    61 O6      -2.1482   6.0881   5.1705   O.3       2 RES2  -1.0000
    62 Cl3      3.7533  11.1912   6.9705   Cl        3 RES3   0.0000
    63 O7       4.2145  12.4621   7.3675   O.2       3 RES3   0.0000
    64 O8       2.3159  11.2439   6.8349   O.3       3 RES3  -1.0000
    65 O9       4.0595  10.1591   7.9257   O.2       3 RES3   0.0000
    66 O10      4.3002  10.8349   5.6946   O.2       3 RES3   0.0000
    67 O11     -3.9548   3.4293   4.6803   O.3       4 RES4   0.0000
    68 H26     -3.5903   4.0340   4.2270   H         4 RES4   0.0000
    69 C23     -2.9368   2.7047   5.4311   C.3       4 RES4   0.0000
    70 H27     -2.3336   3.3419   5.8887   H         4 RES4   0.0000
    71 H28     -2.3962   2.1445   4.8191   H         4 RES4   0.0000
    72 C24     -3.6218   1.8599   6.4170   C.3       4 RES4   0.0000
    73 H29     -4.1230   2.4246   7.0403   H         4 RES4   0.0000
    74 H30     -2.9593   1.3338   6.9128   H         4 RES4   0.0000
    75 H31     -4.2394   1.2538   5.9552   H         4 RES4   0.0000
    76 O12      2.1191   7.2396   2.8685   O.3       5 RES5   0.0000
    77 H32      1.4791   6.8454   3.2666   H         5 RES5   0.0000
    78 H33      2.1342   8.0458   3.1377   H         5 RES5   0.0000
    79 O13      2.1640   9.8405   3.7171   O.3       6 RES6   0.0000
    80 H34      1.4881  10.1473   3.3048   H         6 RES6   0.0000
    81 H35      2.2039  10.1888   4.4905   H         6 RES6   0.0000
@<TRIPOS>BOND
     1     1     2    1
     2     3     1    1
     3     4    32    2
     4     5     1    1
     5     6     1    1
     6     7     8    1
     7     9     1    1
     8    10     1    1
     9    11     5    1
    10    12    11    1
    11    13    11    1
    12    14    10   ar
    13    15    14   ar
    14    16    15    1
    15    17    15   ar
    16    18    17    1
    17    19    17   ar
    18    20    19    1
    19    21    10   ar
    20    22    21    1
    21    23     5    1
    22    24    23    1
    23    25    23    1
    24    26     6    1
    25    27    26    1
    26    28    26    1
    27    29     6    1
    28    30    29    1
    29    31    29    1
    30    32     3    1
    31    33     6    1
    32    34    33    1
    33    35    33    1
    34    36     7   ar
    35    37    36   ar
    36    38    37    1
    37    39    37   ar
    38    40    39    1
    39    41    39   ar
    40    42    41    1
    41    43     7   ar
    42    44    43    1
    43    45     5    1
    44    46    45    1
    45    47    45    1
    46    48     9   ar
    47    49    48   ar
    48    50    49    1
    49    51    49   ar
    50    52    51    1
    51    53    51   ar
    52    54    53    1
    53    55     9   ar
    54    56    55    1
    55    11    14    1
    56    19    21   ar
    57    23    26    1
    58    29    32    1
    59    33    36    1
    60    41    43   ar
    61    45    48    1
    62    53    55   ar
    63    57    58    2
    64    59    57    2
    65    60    57    2
    66    61    57    1
    67    62    63    2
    68    64    62    1
    69    65    62    2
    70    66    62    2
    71    67    68    1
    72    69    67    1
    73    70    69    1
    74    71    69    1
    75    72    69    1
    76    73    72    1
    77    74    72    1
    78    75    72    1
    79    76    77    1
    80    78    76    1
    81    79    80    1
    82    81    79    1
@<TRIPOS>SUBSTRUCTURE
     1 RES1        1 GROUP             0 ****  ****    0  
     2 RES2       57 GROUP             0 ****  ****    0  
     3 RES3       62 GROUP             0 ****  ****    0  
     4 RES4       67 GROUP             0 ****  ****    0  
     5 RES5       76 GROUP             0 ****  ****    0  
     6 RES6       79 GROUP             0 ****  ****    0  
@<TRIPOS>CRYSIN
   15.2520   14.8200   16.2480   90.0000  119.3270   90.0000    14     1
