@<TRIPOS>MOLECULE
LENSIJ
    81    88     1     0     0
SMALL
NO_CHARGES
****
Generated from the CSD

@<TRIPOS>ATOM
     1 Fe1      5.4056  10.3912   5.4417   Fe        1 RES1   0.0000
     2 S1       2.1115  11.9714   8.3285   S.2       1 RES1   0.0000
     3 O1       6.3707  10.0006   3.8913   O.3       1 RES1   0.0000
     4 O2       5.3909   8.6246   6.0224   O.3       1 RES1   0.0000
     5 N1       3.7927  10.2125   4.4023   N.2       1 RES1   0.0000
     6 N2       5.4003  12.3223   4.8973   N.3       1 RES1   0.0000
     7 H1       6.0472  12.4142   4.1403   H         1 RES1   0.0000
     8 N3       7.0825  10.5567   6.4094   N.2       1 RES1   0.0000
     9 N4       4.3013  10.9161   6.9638   N.2       1 RES1   0.0000
    10 C1       4.3875   7.7936   5.9499   C.ar      1 RES1   0.0000
    11 C2       4.5323   6.5939   6.7090   C.ar      1 RES1   0.0000
    12 C3       3.5642   5.6174   6.6329   C.ar      1 RES1   0.0000
    13 H2       3.6763   4.8190   7.1356   H         1 RES1   0.0000
    14 C4       2.4129   5.7637   5.8340   C.ar      1 RES1   0.0000
    15 C5       2.2528   6.9455   5.1484   C.ar      1 RES1   0.0000
    16 H3       1.4669   7.0649   4.6283   H         1 RES1   0.0000
    17 C6       3.2076   7.9938   5.1822   C.ar      1 RES1   0.0000
    18 C7       2.9798   9.1995   4.3848   C.2       1 RES1   0.0000
    19 C8       1.7698   9.2343   3.4999   C.ar      1 RES1   0.0000
    20 C9       1.8878   8.9380   2.1527   C.ar      1 RES1   0.0000
    21 H4       2.7379   8.7200   1.7888   H         1 RES1   0.0000
    22 C10      0.7676   8.9585   1.3308   C.ar      1 RES1   0.0000
    23 H5       0.8528   8.7558   0.4066   H         1 RES1   0.0000
    24 C11     -0.4726   9.2742   1.8590   C.ar      1 RES1   0.0000
    25 H6      -1.2391   9.2855   1.2979   H         1 RES1   0.0000
    26 C12     -0.5953   9.5722   3.1997   C.ar      1 RES1   0.0000
    27 H7      -1.4473   9.7910   3.5587   H         1 RES1   0.0000
    28 C13      0.5150   9.5546   4.0254   C.ar      1 RES1   0.0000
    29 H8       0.4243   9.7598   4.9485   H         1 RES1   0.0000
    30 C14      3.5956  11.4004   3.5498   C.3       1 RES1   0.0000
    31 H9       2.6410  11.4914   3.3034   H         1 RES1   0.0000
    32 H10      4.1287  11.3193   2.7195   H         1 RES1   0.0000
    33 C15      4.0491  12.6057   4.3503   C.3       1 RES1   0.0000
    34 H11      4.0798  13.4065   3.7690   H         1 RES1   0.0000
    35 H12      3.4140  12.7804   5.0892   H         1 RES1   0.0000
    36 C16      5.7913  13.3198   5.9253   C.3       1 RES1   0.0000
    37 H13      5.0834  13.3635   6.6159   H         1 RES1   0.0000
    38 H14      5.8533  14.2117   5.5000   H         1 RES1   0.0000
    39 C17      7.1203  13.0000   6.5989   C.3       1 RES1   0.0000
    40 H15      7.3323  13.7317   7.2313   H         1 RES1   0.0000
    41 H16      7.8269  12.9939   5.9055   H         1 RES1   0.0000
    42 C18      7.1823  11.6764   7.3585   C.3       1 RES1   0.0000
    43 H17      8.0352  11.6169   7.8576   H         1 RES1   0.0000
    44 H18      6.4385  11.6297   8.0103   H         1 RES1   0.0000
    45 C19      8.0658   9.7365   6.2286   C.2       1 RES1   0.0000
    46 C20      9.1967   9.6688   7.2082   C.ar      1 RES1   0.0000
    47 C21     10.4482  10.1870   6.9195   C.ar      1 RES1   0.0000
    48 H19     10.6108  10.6179   6.0886   H         1 RES1   0.0000
    49 C22     11.4681  10.0675   7.8669   C.ar      1 RES1   0.0000
    50 H20     12.3272  10.4287   7.6827   H         1 RES1   0.0000
    51 C23     11.2369   9.4286   9.0686   C.ar      1 RES1   0.0000
    52 H21     11.9387   9.3478   9.7039   H         1 RES1   0.0000
    53 C24     10.0024   8.9114   9.3487   C.ar      1 RES1   0.0000
    54 H22      9.8487   8.4700  10.1758   H         1 RES1   0.0000
    55 C25      8.9763   9.0312   8.4265   C.ar      1 RES1   0.0000
    56 H23      8.1178   8.6766   8.6258   H         1 RES1   0.0000
    57 C26      8.1521   8.8620   5.0567   C.ar      1 RES1   0.0000
    58 C27      9.1434   7.8636   4.9840   C.ar      1 RES1   0.0000
    59 H24      9.6518   7.6664   5.7619   H         1 RES1   0.0000
    60 C28      9.4035   7.1617   3.8250   C.ar      1 RES1   0.0000
    61 C29      8.6627   7.4983   2.6831   C.ar      1 RES1   0.0000
    62 H25      8.8575   7.0552   1.8656   H         1 RES1   0.0000
    63 C30      7.6612   8.4487   2.7004   C.ar      1 RES1   0.0000
    64 C31      7.3610   9.1231   3.9110   C.ar      1 RES1   0.0000
    65 C32      5.7490   6.4580   7.5772   C.3       1 RES1   0.0000
    66 H26      6.5538   6.6015   7.0368   H         1 RES1   0.0000
    67 H27      5.7734   5.5591   7.9670   H         1 RES1   0.0000
    68 H28      5.7144   7.1243   8.2949   H         1 RES1   0.0000
    69 C33      1.4241   4.6297   5.7011   C.3       1 RES1   0.0000
    70 H29      0.5973   4.9632   5.2942   H         1 RES1   0.0000
    71 H30      1.2267   4.2628   6.5882   H         1 RES1   0.0000
    72 H31      1.8067   3.9273   5.1349   H         1 RES1   0.0000
    73 C34      6.8541   8.7724   1.4773   C.3       1 RES1   0.0000
    74 H32      6.9922   9.7116   1.2339   H         1 RES1   0.0000
    75 H33      5.9041   8.6194   1.6630   H         1 RES1   0.0000
    76 H34      7.1389   8.1976   0.7365   H         1 RES1   0.0000
    77 C35     10.4652   6.0923   3.7507   C.3       1 RES1   0.0000
    78 H35     11.3257   6.5017   3.5217   H         1 RES1   0.0000
    79 H36     10.2218   5.4374   3.0637   H         1 RES1   0.0000
    80 H37     10.5378   5.6434   4.6189   H         1 RES1   0.0000
    81 C36      3.3789  11.3520   7.5256   C.1       1 RES1   0.0000
@<TRIPOS>BOND
     1     1     3    1
     2     2    81    2
     3     3    64    1
     4     4     1    1
     5     5     1    1
     6     6     1    1
     7     7     6    1
     8     8     1    1
     9     9     1    1
    10    10     4    1
    11    11    10   ar
    12    12    11   ar
    13    13    12    1
    14    14    12   ar
    15    15    14   ar
    16    16    15    1
    17    17    10   ar
    18    18     5    2
    19    19    18    1
    20    20    19   ar
    21    21    20    1
    22    22    20   ar
    23    23    22    1
    24    24    22   ar
    25    25    24    1
    26    26    24   ar
    27    27    26    1
    28    28    19   ar
    29    29    28    1
    30    30     5    1
    31    31    30    1
    32    32    30    1
    33    33     6    1
    34    34    33    1
    35    35    33    1
    36    36     6    1
    37    37    36    1
    38    38    36    1
    39    39    36    1
    40    40    39    1
    41    41    39    1
    42    42     8    1
    43    43    42    1
    44    44    42    1
    45    45     8    2
    46    46    45    1
    47    47    46   ar
    48    48    47    1
    49    49    47   ar
    50    50    49    1
    51    51    49   ar
    52    52    51    1
    53    53    51   ar
    54    54    53    1
    55    55    46   ar
    56    56    55    1
    57    57    45    1
    58    58    57   ar
    59    59    58    1
    60    60    58   ar
    61    61    60   ar
    62    62    61    1
    63    63    61   ar
    64    64    57   ar
    65    65    11    1
    66    66    65    1
    67    67    65    1
    68    68    65    1
    69    69    14    1
    70    70    69    1
    71    71    69    1
    72    72    69    1
    73    73    63    1
    74    74    73    1
    75    75    73    1
    76    76    73    1
    77    77    60    1
    78    78    77    1
    79    79    77    1
    80    80    77    1
    81    81     9    2
    82    15    17   ar
    83    17    18    1
    84    26    28   ar
    85    30    33    1
    86    39    42    1
    87    53    55   ar
    88    63    64   ar
@<TRIPOS>SUBSTRUCTURE
     1 RES1        1 GROUP             0 ****  ****    0  
@<TRIPOS>CRYSIN
   12.4428   14.8278   17.5043   90.0000  102.3250   90.0000    14     1
