@<TRIPOS>MOLECULE
LENSEF
    81    88     1     0     0
SMALL
USER_CHARGES
****
Generated from the CSD

@<TRIPOS>ATOM
     1 Fe1      5.4040  10.4235   5.3454   Fe        1 RES1   0.0000
     2 O1       6.3184  10.0774   3.7326   O.3       1 RES1   0.0000
     3 O2       5.4062   8.6236   5.8403   O.3       1 RES1   0.0000
     4 N1       7.1324  10.5519   6.2458   N.2       1 RES1   0.0000
     5 N2       5.4201  12.3591   4.8371   N.3       1 RES1   0.0000
     6 H1       6.0583  12.4530   4.0732   H         1 RES1   0.0000
     7 N3       3.7751  10.2992   4.3340   N.2       1 RES1   0.0000
     8 N4       4.4628  10.8434   7.0191   N.2       1 RES1   0.0000
     9 N5       3.3568  11.2950   7.1384   N.1       1 RES1   1.0000
    10 N6       2.3087  11.7305   7.3483   N.3       1 RES1  -1.0000
    11 C1       7.2847   9.1865   3.6926   C.ar      1 RES1   0.0000
    12 C2       7.5030   8.5124   2.4616   C.ar      1 RES1   0.0000
    13 C3       8.4932   7.5446   2.3815   C.ar      1 RES1   0.0000
    14 H2       8.6339   7.1038   1.5518   H         1 RES1   0.0000
    15 C4       9.2930   7.1916   3.4732   C.ar      1 RES1   0.0000
    16 C5       9.1078   7.8864   4.6483   C.ar      1 RES1   0.0000
    17 H3       9.6579   7.6762   5.3937   H         1 RES1   0.0000
    18 C6       8.1321   8.8998   4.7896   C.ar      1 RES1   0.0000
    19 C7       8.1101   9.7459   5.9846   C.2       1 RES1   0.0000
    20 C8       9.2823   9.6649   6.9077   C.ar      1 RES1   0.0000
    21 C9      10.5295  10.1771   6.5631   C.ar      1 RES1   0.0000
    22 H4      10.6610  10.5917   5.7185   H         1 RES1   0.0000
    23 C10     11.5836  10.0757   7.4684   C.ar      1 RES1   0.0000
    24 H5      12.4364  10.4276   7.2423   H         1 RES1   0.0000
    25 C11     11.3956   9.4701   8.6858   C.ar      1 RES1   0.0000
    26 H6      12.1191   9.4062   9.2980   H         1 RES1   0.0000
    27 C12     10.1611   8.9533   9.0255   C.ar      1 RES1   0.0000
    28 H7      10.0382   8.5305   9.8673   H         1 RES1   0.0000
    29 C13      9.1053   9.0512   8.1410   C.ar      1 RES1   0.0000
    30 H8       8.2555   8.6978   8.3767   H         1 RES1   0.0000
    31 C14      7.2873  11.6444   7.2155   C.3       1 RES1   0.0000
    32 H9       8.1626  11.5663   7.6715   H         1 RES1   0.0000
    33 H10      6.5749  11.5880   7.9006   H         1 RES1   0.0000
    34 C15      7.2007  12.9870   6.4883   C.3       1 RES1   0.0000
    35 H11      7.4463  13.7023   7.1272   H         1 RES1   0.0000
    36 H12      7.8763  12.9920   5.7647   H         1 RES1   0.0000
    37 C16      5.8493  13.3331   5.8815   C.3       1 RES1   0.0000
    38 H13      5.1690  13.3568   6.6003   H         1 RES1   0.0000
    39 H14      5.8974  14.2368   5.4801   H         1 RES1   0.0000
    40 C17      4.0740  12.6894   4.3155   C.3       1 RES1   0.0000
    41 H15      4.1176  13.4986   3.7467   H         1 RES1   0.0000
    42 H16      3.4515  12.8660   5.0647   H         1 RES1   0.0000
    43 C18      3.5909  11.5073   3.5039   C.3       1 RES1   0.0000
    44 H17      2.6355  11.6197   3.2698   H         1 RES1   0.0000
    45 H18      4.1129  11.4303   2.6662   H         1 RES1   0.0000
    46 C19      2.9966   9.2624   4.2270   C.2       1 RES1   0.0000
    47 C20      1.8697   9.2884   3.2368   C.ar      1 RES1   0.0000
    48 C21      2.1392   9.0850   1.8932   C.ar      1 RES1   0.0000
    49 H19      3.0359   8.9644   1.6038   H         1 RES1   0.0000
    50 C22      1.1072   9.0566   0.9705   C.ar      1 RES1   0.0000
    51 H20      1.2937   8.9056   0.0513   H         1 RES1   0.0000
    52 C23     -0.1965   9.2491   1.3923   C.ar      1 RES1   0.0000
    53 H21     -0.9064   9.2194   0.7616   H         1 RES1   0.0000
    54 C24     -0.4694   9.4827   2.7163   C.ar      1 RES1   0.0000
    55 H22     -1.3651   9.6330   2.9949   H         1 RES1   0.0000
    56 C25      0.5576   9.5008   3.6515   C.ar      1 RES1   0.0000
    57 H23      0.3658   9.6570   4.5686   H         1 RES1   0.0000
    58 C26      3.2051   8.0424   5.0083   C.ar      1 RES1   0.0000
    59 C27      2.2280   7.0161   4.9609   C.ar      1 RES1   0.0000
    60 H24      1.4482   7.1546   4.4362   H         1 RES1   0.0000
    61 C28      2.3615   5.8230   5.6449   C.ar      1 RES1   0.0000
    62 C29      3.5108   5.6474   6.4348   C.ar      1 RES1   0.0000
    63 H25      3.6047   4.8443   6.9336   H         1 RES1   0.0000
    64 C30      4.5063   6.5968   6.5127   C.ar      1 RES1   0.0000
    65 C31      4.3840   7.8143   5.7708   C.ar      1 RES1   0.0000
    66 C32      6.6116   8.8477   1.3076   C.3       1 RES1   0.0000
    67 H26      5.6757   8.7271   1.5719   H         1 RES1   0.0000
    68 H27      6.8169   8.2562   0.5537   H         1 RES1   0.0000
    69 H28      6.7584   9.7793   1.0414   H         1 RES1   0.0000
    70 C33     10.3352   6.1025   3.3456   C.3       1 RES1   0.0000
    71 H29     10.0029   5.4009   2.7476   H         1 RES1   0.0000
    72 H30     10.5173   5.7196   4.2291   H         1 RES1   0.0000
    73 H31     11.1605   6.4817   2.9775   H         1 RES1   0.0000
    74 C34      5.7321   6.4122   7.3604   C.3       1 RES1   0.0000
    75 H32      5.7409   7.0853   8.0728   H         1 RES1   0.0000
    76 H33      6.5324   6.5147   6.8043   H         1 RES1   0.0000
    77 H34      5.7227   5.5164   7.7576   H         1 RES1   0.0000
    78 C35      1.3468   4.7159   5.5033   C.3       1 RES1   0.0000
    79 H35      0.5160   5.0798   5.1322   H         1 RES1   0.0000
    80 H36      1.1671   4.3230   6.3830   H         1 RES1   0.0000
    81 H37      1.6980   4.0257   4.9029   H         1 RES1   0.0000
@<TRIPOS>BOND
     1     1     2    1
     2     2    11    1
     3     3     1    1
     4     4     1    1
     5     5     1    1
     6     6     5    1
     7     7     1    1
     8     8     1    1
     9     9     8    2
    10    10     9    2
    11    11    12   ar
    12    12    13   ar
    13    13    14    1
    14    15    13   ar
    15    16    15   ar
    16    17    16    1
    17    18    11   ar
    18    19     4    2
    19    20    19    1
    20    21    20   ar
    21    22    21    1
    22    23    21   ar
    23    24    23    1
    24    25    23   ar
    25    26    25    1
    26    27    25   ar
    27    28    27    1
    28    29    20   ar
    29    30    29    1
    30    31     4    1
    31    32    31    1
    32    33    31    1
    33    34    31    1
    34    35    34    1
    35    36    34    1
    36    37     5    1
    37    38    37    1
    38    39    37    1
    39    40     5    1
    40    41    40    1
    41    42    40    1
    42    43     7    1
    43    44    43    1
    44    45    43    1
    45    46     7    2
    46    47    46    1
    47    48    47   ar
    48    49    48    1
    49    50    48   ar
    50    51    50    1
    51    52    50   ar
    52    53    52    1
    53    54    52   ar
    54    55    54    1
    55    56    47   ar
    56    57    56    1
    57    58    46    1
    58    59    58   ar
    59    60    59    1
    60    61    59   ar
    61    62    61   ar
    62    63    62    1
    63    64    62   ar
    64    65     3    1
    65    66    12    1
    66    67    66    1
    67    68    66    1
    68    69    66    1
    69    70    15    1
    70    71    70    1
    71    72    70    1
    72    73    70    1
    73    74    64    1
    74    75    74    1
    75    76    74    1
    76    77    74    1
    77    78    61    1
    78    79    78    1
    79    80    78    1
    80    81    78    1
    81    16    18   ar
    82    18    19    1
    83    27    29   ar
    84    34    37    1
    85    40    43    1
    86    54    56   ar
    87    58    65   ar
    88    64    65   ar
@<TRIPOS>SUBSTRUCTURE
     1 RES1        1 GROUP             0 ****  ****    0  
@<TRIPOS>CRYSIN
   12.3158   14.8116   16.9688   90.0000  102.4980   90.0000    14     1
