@<TRIPOS>MOLECULE
LERCUH01
   119   116     3     0     0
SMALL
USER_CHARGES
****
Generated from the CSD

@<TRIPOS>ATOM
     1 Fe1      4.5105   2.1315  14.7022   Fe        1 RES1   0.0000
     2 N1       3.7085   2.4540  16.1062   N.2       1 RES1   0.0000
     3 C1       4.5727   3.9836  14.1319   C.1       1 RES1  -1.0000
     4 C2       5.4768   1.8089  13.0419   C.1       1 RES1   0.0000
     5 C3       6.2652   2.3574  15.5109   C.1       1 RES1   0.0000
     6 C4       4.6353   0.2088  14.9781   C.1       1 RES1   0.0000
     7 C5       2.9011   1.8534  13.6444   C.1       1 RES1  -1.0000
     8 N2       6.0499   1.6291  12.0588   N.1       1 RES1   0.0000
     9 N3       4.6129   5.0927  13.8237   N.1       1 RES1   0.0000
    10 O1       3.1731   2.7037  17.0908   O.2       1 RES1   0.0000
    11 N4       4.7090  -0.9273  15.1451   N.1       1 RES1   0.0000
    12 N5       7.2733   2.5183  16.0476   N.1       1 RES1   0.0000
    13 N6       1.9241   1.7006  13.0535   N.1       1 RES1   0.0000
    14 C6       1.7443   4.5348  10.7313   C.3       2 RES2   0.0000
    15 H1       1.7556   3.6124  11.0914   H         2 RES2   0.0000
    16 H2       1.3804   4.4893   9.8122   H         2 RES2   0.0000
    17 N7       0.7935   5.3710  11.5833   N.4       2 RES2   1.0000
    18 C7       4.0597   3.9627  10.0171   C.3       2 RES2   0.0000
    19 H3       3.9787   3.1238  10.5353   H         2 RES2   0.0000
    20 H4       3.7444   3.7838   9.0963   H         2 RES2   0.0000
    21 C8       3.1784   5.0355  10.6529   C.3       2 RES2   0.0000
    22 H5       3.5098   5.2463  11.5622   H         2 RES2   0.0000
    23 H6       3.2146   5.8638  10.1107   H         2 RES2   0.0000
    24 C9       1.1961   5.2108  13.0418   C.3       2 RES2   0.0000
    25 H7       2.0975   5.6029  13.1647   H         2 RES2   0.0000
    26 H8       1.2601   4.2450  13.2464   H         2 RES2   0.0000
    27 C10      0.6032   5.4240  15.4647   C.3       2 RES2   0.0000
    28 H9      -0.1422   5.6696  16.0695   H         2 RES2   0.0000
    29 H10      0.6941   4.4377  15.4850   H         2 RES2   0.0000
    30 C11     -0.6196   4.8692  11.3408   C.3       2 RES2   0.0000
    31 H11     -0.7824   4.8519  10.3648   H         2 RES2   0.0000
    32 H12     -1.2554   5.5179  11.7381   H         2 RES2   0.0000
    33 C12      0.8647   6.8460  11.2293   C.3       2 RES2   0.0000
    34 H13      1.7948   7.1549  11.3632   H         2 RES2   0.0000
    35 H14      0.2921   7.3476  11.8625   H         2 RES2   0.0000
    36 C13      0.9465   8.6021   9.4338   C.3       2 RES2   0.0000
    37 H15      0.4504   8.9270   8.6414   H         2 RES2   0.0000
    38 H16      0.7643   9.2243  10.1818   H         2 RES2   0.0000
    39 C14     -2.3126   3.0474  11.4716   C.3       2 RES2   0.0000
    40 H17     -2.9675   3.7459  11.7239   H         2 RES2   0.0000
    41 H18     -2.3309   2.9569  10.4856   H         2 RES2   0.0000
    42 C15      5.5199   4.3878   9.9741   C.3       2 RES2   0.0000
    43 H19      6.0565   3.6746   9.5671   H         2 RES2   0.0000
    44 H20      5.8377   4.5560  10.8853   H         2 RES2   0.0000
    45 H21      5.6063   5.2054   9.4409   H         2 RES2   0.0000
    46 C16      2.4389   8.6126   9.1275   C.3       2 RES2   0.0000
    47 H22      2.7178   9.5232   8.8937   H         2 RES2   0.0000
    48 H23      2.6223   8.0121   8.3750   H         2 RES2   0.0000
    49 H24      2.9362   8.3095   9.9153   H         2 RES2   0.0000
    50 C17      0.4386   7.1995   9.8089   C.3       2 RES2   0.0000
    51 H25     -0.5494   7.1746   9.7429   H         2 RES2   0.0000
    52 H26      0.8060   6.5329   9.1762   H         2 RES2   0.0000
    53 C18      1.8771   6.0400  15.9899   C.3       2 RES2   0.0000
    54 H27      2.0474   5.7136  16.8974   H         2 RES2   0.0000
    55 H28      1.7860   7.0153  16.0055   H         2 RES2   0.0000
    56 H29      2.6239   5.7910  15.4086   H         2 RES2   0.0000
    57 C19      0.2465   5.8556  14.0445   C.3       2 RES2   0.0000
    58 H30     -0.6846   5.5877  13.8398   H         2 RES2   0.0000
    59 H31      0.3064   6.8409  13.9713   H         2 RES2   0.0000
    60 C20     -0.9248   3.4896  11.9042   C.3       2 RES2   0.0000
    61 H32     -0.2519   2.8401  11.5782   H         2 RES2   0.0000
    62 H33     -0.8761   3.5153  12.8929   H         2 RES2   0.0000
    63 C21     -2.7266   1.7317  12.0964   C.3       2 RES2   0.0000
    64 H34     -3.6230   1.4899  11.7843   H         2 RES2   0.0000
    65 H35     -2.7328   1.8206  13.0723   H         2 RES2   0.0000
    66 H36     -2.0904   1.0317  11.8358   H         2 RES2   0.0000
    67 N8       2.4637   9.3492   3.7735   N.4       3 RES3   1.0000
    68 C22      2.6848  10.6163   4.5790   C.3       3 RES3   0.0000
    69 H37      3.6494  10.6929   4.7862   H         3 RES3   0.0000
    70 H38      2.4391  11.3924   4.0169   H         3 RES3   0.0000
    71 C23      3.3788   9.4703   2.5645   C.3       3 RES3   0.0000
    72 H39      3.0997  10.2636   2.0413   H         3 RES3   0.0000
    73 H40      4.2986   9.6385   2.8888   H         3 RES3   0.0000
    74 C24      4.4549   6.7341   5.8458   C.3       3 RES3   0.0000
    75 H41      3.7016   6.4722   6.4313   H         3 RES3   0.0000
    76 H42      4.5325   6.0565   5.1273   H         3 RES3   0.0000
    77 C25      0.4154  10.3467   2.5596   C.3       3 RES3   0.0000
    78 H43      0.9694  10.5200   1.7588   H         3 RES3   0.0000
    79 H44      0.4043  11.1678   3.1126   H         3 RES3   0.0000
    80 C26      1.9070  10.6990   5.8785   C.3       3 RES3   0.0000
    81 H45      0.9495  10.5170   5.7047   H         3 RES3   0.0000
    82 H46      2.2413  10.0148   6.5113   H         3 RES3   0.0000
    83 C27      3.4146   8.2728   1.6293   C.3       3 RES3   0.0000
    84 H47      2.4904   7.9818   1.4266   H         3 RES3   0.0000
    85 H48      3.8849   7.5206   2.0698   H         3 RES3   0.0000
    86 C28      2.7840   8.1071   4.5941   C.3       3 RES3   0.0000
    87 H49      2.1088   8.0212   5.3121   H         3 RES3   0.0000
    88 H50      2.6987   7.3127   4.0098   H         3 RES3   0.0000
    89 C29      1.0101   9.1976   3.3567   C.3       3 RES3   0.0000
    90 H51      0.9271   8.3717   2.8177   H         3 RES3   0.0000
    91 H52      0.4647   9.0726   4.1733   H         3 RES3   0.0000
    92 C30      4.1624   8.0954   5.2259   C.3       3 RES3   0.0000
    93 H53      4.2124   8.7950   5.9250   H         3 RES3   0.0000
    94 H54      4.8436   8.2989   4.5375   H         3 RES3   0.0000
    95 C31      2.0608  12.0766   6.4898   C.3       3 RES3   0.0000
    96 H55      1.6537  12.7457   5.8841   H         3 RES3   0.0000
    97 H56      3.0257  12.2875   6.5681   H         3 RES3   0.0000
    98 C32      5.7398   6.7576   6.6579   C.3       3 RES3   0.0000
    99 H57      5.8993   5.8699   7.0425   H         3 RES3   0.0000
   100 H58      5.6587   7.4159   7.3783   H         3 RES3   0.0000
   101 H59      6.4892   7.0017   6.0760   H         3 RES3   0.0000
   102 C33      1.4170  12.1952   7.8573   C.3       3 RES3   0.0000
   103 H60      1.5476  13.1037   8.2026   H         3 RES3   0.0000
   104 H61      1.8288  11.5501   8.4691   H         3 RES3   0.0000
   105 H62      0.4573  12.0083   7.7833   H         3 RES3   0.0000
   106 C34     -1.0102   9.9907   2.1344   C.3       3 RES3   0.0000
   107 H63     -1.5328   9.7462   2.9403   H         3 RES3   0.0000
   108 H64     -1.4338  10.7916   1.7340   H         3 RES3   0.0000
   109 C35      4.1362   8.6396   0.3297   C.3       3 RES3   0.0000
   110 H65      4.1217   7.8543  -0.2718   H         3 RES3   0.0000
   111 H66      3.6347   9.3669  -0.1155   H         3 RES3   0.0000
   112 C36     -1.0846   8.8425   1.1345   C.3       3 RES3   0.0000
   113 H67     -2.0223   8.6675   0.9078   H         3 RES3   0.0000
   114 H68     -0.6881   8.0379   1.5297   H         3 RES3   0.0000
   115 H69     -0.5922   9.0832   0.3233   H         3 RES3   0.0000
   116 C37      5.5659   9.0819   0.5127   C.3       3 RES3   0.0000
   117 H70      5.9561   9.2972  -0.3607   H         3 RES3   0.0000
   118 H71      6.0798   8.3596   0.9309   H         3 RES3   0.0000
   119 H72      5.5917   9.8767   1.0855   H         3 RES3   0.0000
@<TRIPOS>BOND
     1     1     2    1
     2     2    10    2
     3     3     1    1
     4     4     1    1
     5     5     1    1
     6     6     1    1
     7     7     1    1
     8     8     4    3
     9     9     3    3
    10    11     6    3
    11    12     5    3
    12    13     7    3
    13    14    15    1
    14    16    14    1
    15    17    14    1
    16    18    19    1
    17    20    18    1
    18    21    14    1
    19    22    21    1
    20    23    21    1
    21    24    17    1
    22    25    24    1
    23    26    24    1
    24    27    28    1
    25    29    27    1
    26    30    17    1
    27    31    30    1
    28    32    30    1
    29    33    17    1
    30    34    33    1
    31    35    33    1
    32    36    37    1
    33    38    36    1
    34    39    40    1
    35    41    39    1
    36    42    18    1
    37    43    42    1
    38    44    42    1
    39    45    42    1
    40    46    36    1
    41    47    46    1
    42    48    46    1
    43    49    46    1
    44    50    33    1
    45    51    50    1
    46    52    50    1
    47    53    27    1
    48    54    53    1
    49    55    53    1
    50    56    53    1
    51    57    24    1
    52    58    57    1
    53    59    57    1
    54    60    30    1
    55    61    60    1
    56    62    60    1
    57    63    39    1
    58    64    63    1
    59    65    63    1
    60    66    63    1
    61    18    21    1
    62    27    57    1
    63    36    50    1
    64    39    60    1
    65    67    68    1
    66    68    69    1
    67    70    68    1
    68    71    67    1
    69    72    71    1
    70    73    71    1
    71    74    75    1
    72    76    74    1
    73    77    78    1
    74    79    77    1
    75    80    68    1
    76    81    80    1
    77    82    80    1
    78    83    71    1
    79    84    83    1
    80    85    83    1
    81    86    67    1
    82    87    86    1
    83    88    86    1
    84    89    67    1
    85    90    89    1
    86    91    89    1
    87    92    74    1
    88    93    92    1
    89    94    92    1
    90    95    80    1
    91    96    95    1
    92    97    95    1
    93    98    74    1
    94    99    98    1
    95   100    98    1
    96   101    98    1
    97   102    95    1
    98   103   102    1
    99   104   102    1
   100   105   102    1
   101   106    77    1
   102   107   106    1
   103   108   106    1
   104   109    83    1
   105   110   109    1
   106   111   109    1
   107   112   106    1
   108   113   112    1
   109   114   112    1
   110   115   112    1
   111   116   109    1
   112   117   116    1
   113   118   116    1
   114   119   116    1
   115    77    89    1
   116    86    92    1
@<TRIPOS>SUBSTRUCTURE
     1 RES1        1 GROUP             0 ****  ****    0  
     2 RES2       14 GROUP             0 ****  ****    0  
     3 RES3       67 GROUP             0 ****  ****    0  
@<TRIPOS>CRYSIN
   15.6249   15.1716   18.2983   90.0000  103.8520   90.0000   231     1
