@<TRIPOS>MOLECULE
LESNAY
   125   136     1     0     0
SMALL
NO_CHARGES
****
Generated from the CSD

@<TRIPOS>ATOM
     1 Fe1      0.0000   0.0000   0.0000   Fe        1 RES1   0.0000
     2 P1       0.4700  -0.1207   2.2013   P.3       1 RES1   0.0000
     3 O1       8.1277  -3.7228  -1.6533   O.3       1 RES1   0.0000
     4 O2       3.4450   8.3835   0.3367   O.3       1 RES1   0.0000
     5 O3      -0.3147  -1.2382   2.9547   O.3       1 RES1   0.0000
     6 O4       0.5576   1.1264   3.1393   O.3       1 RES1   0.0000
     7 O5       1.9834  -0.6501   2.5356   O.3       1 RES1   0.0000
     8 N1       1.8397   0.7102  -0.3053   N.2       1 RES1   0.0000
     9 N2       0.6907  -1.8614  -0.1927   N.2       1 RES1   0.0000
    10 C1       1.4152   3.1140  -0.0615   C.2       1 RES1   0.0000
    11 C2       2.2474   2.0249  -0.2868   C.2       1 RES1   0.0000
    12 C3       3.6562   2.1119  -0.5666   C.2       1 RES1   0.0000
    13 C4       4.1040   0.8779  -0.7535   C.2       1 RES1   0.0000
    14 C5       2.9867  -0.0228  -0.5793   C.2       1 RES1   0.0000
    15 C6       3.0648  -1.3955  -0.6374   C.2       1 RES1   0.0000
    16 C7       1.9812  -2.2486  -0.4400   C.2       1 RES1   0.0000
    17 C8       2.0594  -3.6813  -0.5294   C.2       1 RES1   0.0000
    18 C9       0.8238  -4.1576  -0.3564   C.2       1 RES1   0.0000
    19 C10     -0.0486  -3.0291  -0.1370   C.2       1 RES1   0.0000
    20 C11      2.0340   4.4847   0.0174   C.ar      1 RES1   0.0000
    21 C12      1.9052   5.4040  -1.0008   C.ar      1 RES1   0.0000
    22 C13      2.4037   6.6877  -0.8661   C.ar      1 RES1   0.0000
    23 C14      3.0289   7.0666   0.2914   C.ar      1 RES1   0.0000
    24 C15      3.2084   6.1680   1.2852   C.ar      1 RES1   0.0000
    25 C16      2.6931   4.8905   1.1447   C.ar      1 RES1   0.0000
    26 C17      3.8738   8.8617   1.6057   C.3       1 RES1   0.0000
    27 C18      4.4018  -2.0187  -0.9323   C.ar      1 RES1   0.0000
    28 C19      5.4051  -2.0249   0.0104   C.ar      1 RES1   0.0000
    29 C20      6.6386  -2.6026  -0.2670   C.ar      1 RES1   0.0000
    30 C21      6.8773  -3.1886  -1.4896   C.ar      1 RES1   0.0000
    31 C22      5.8930  -3.2051  -2.4253   C.ar      1 RES1   0.0000
    32 C23      4.6764  -2.6213  -2.1374   C.ar      1 RES1   0.0000
    33 C24      8.4868  -4.1079  -2.9617   C.3       1 RES1   0.0000
    34 C25     -0.0676  -1.5591   4.3584   C.3       1 RES1   0.0000
    35 C26     -0.6632   1.8862   3.4551   C.3       1 RES1   0.0000
    36 C27      3.0564   0.1677   2.8433   C.3       1 RES1   0.0000
    37 H1       4.1188   2.9194  -0.6385   H         1 RES1   0.0000
    38 H2       4.8792   0.6211  -0.9636   H         1 RES1   0.0000
    39 H3       2.7247  -4.1824  -0.6269   H         1 RES1   0.0000
    40 H4       0.5492  -5.0313  -0.3599   H         1 RES1   0.0000
    41 H5       1.5208   5.1141  -1.7647   H         1 RES1   0.0000
    42 H6       2.3868   7.2882  -1.5325   H         1 RES1   0.0000
    43 H7       3.5063   6.3150   2.0782   H         1 RES1   0.0000
    44 H8       2.8726   4.3066   1.7763   H         1 RES1   0.0000
    45 H9       4.6680   8.3441   1.8808   H         1 RES1   0.0000
    46 H10      3.1683   8.6961   2.3917   H         1 RES1   0.0000
    47 H11      3.9921   9.8142   1.4745   H         1 RES1   0.0000
    48 H12      5.3227  -1.5736   0.8591   H         1 RES1   0.0000
    49 H13      7.2660  -2.6295   0.3831   H         1 RES1   0.0000
    50 H14      5.9775  -3.5406  -3.2624   H         1 RES1   0.0000
    51 H15      4.0977  -2.7124  -2.6935   H         1 RES1   0.0000
    52 H16      7.9630  -4.8657  -3.2276   H         1 RES1   0.0000
    53 H17      9.1881  -4.4930  -2.8444   H         1 RES1   0.0000
    54 H18      8.3643  -3.4784  -3.6107   H         1 RES1   0.0000
    55 H19     -0.8026  -1.1802   4.8414   H         1 RES1   0.0000
    56 H20      0.8026  -1.1181   4.5627   H         1 RES1   0.0000
    57 H21     -0.4858  -2.5053   4.3770   H         1 RES1   0.0000
    58 H22     -0.7604   1.9670   4.3189   H         1 RES1   0.0000
    59 H23     -1.4152   1.4494   3.0883   H         1 RES1   0.0000
    60 H24     -0.5914   2.7538   3.0186   H         1 RES1   0.0000
    61 H25      3.2528   0.9524   2.2523   H         1 RES1   0.0000
    62 H26      2.9571   0.3520   3.7616   H         1 RES1   0.0000
    63 H27      3.8864  -0.4348   2.9025   H         1 RES1   0.0000
    64 P1D     -0.4700   0.1207  -2.2013   P.3       1 RES1   0.0000
    65 N1D     -1.8397  -0.7102   0.3053   N.2       1 RES1   0.0000
    66 N2D     -0.6907   1.8614   0.1927   N.2       1 RES1   0.0000
    67 C10D     0.0486   3.0291   0.1370   C.2       1 RES1   0.0000
    68 C1D     -1.4152  -3.1140   0.0615   C.2       1 RES1   0.0000
    69 O3D      0.3147   1.2382  -2.9547   O.3       1 RES1   0.0000
    70 O4D     -0.5576  -1.1264  -3.1393   O.3       1 RES1   0.0000
    71 O5D     -1.9834   0.6501  -2.5356   O.3       1 RES1   0.0000
    72 C2D     -2.2474  -2.0249   0.2868   C.2       1 RES1   0.0000
    73 C5D     -2.9867   0.0228   0.5793   C.2       1 RES1   0.0000
    74 C7D     -1.9812   2.2486   0.4400   C.2       1 RES1   0.0000
    75 C9D     -0.8238   4.1576   0.3564   C.2       1 RES1   0.0000
    76 C11D    -2.0340  -4.4847  -0.0174   C.ar      1 RES1   0.0000
    77 C25D     0.0676   1.5591  -4.3584   C.3       1 RES1   0.0000
    78 C26D     0.6632  -1.8862  -3.4551   C.3       1 RES1   0.0000
    79 C27D    -3.0564  -0.1677  -2.8433   C.3       1 RES1   0.0000
    80 C3D     -3.6562  -2.1119   0.5666   C.2       1 RES1   0.0000
    81 C4D     -4.1040  -0.8779   0.7535   C.2       1 RES1   0.0000
    82 C6D     -3.0648   1.3955   0.6374   C.2       1 RES1   0.0000
    83 C8D     -2.0594   3.6813   0.5294   C.2       1 RES1   0.0000
    84 H4D     -0.5492   5.0313   0.3599   H         1 RES1   0.0000
    85 C12D    -1.9052  -5.4040   1.0008   C.ar      1 RES1   0.0000
    86 C16D    -2.6931  -4.8905  -1.1447   C.ar      1 RES1   0.0000
    87 H19D     0.8026   1.1802  -4.8414   H         1 RES1   0.0000
    88 H20D    -0.8026   1.1181  -4.5627   H         1 RES1   0.0000
    89 H21D     0.4858   2.5053  -4.3770   H         1 RES1   0.0000
    90 H22D     0.7604  -1.9670  -4.3189   H         1 RES1   0.0000
    91 H23D     1.4152  -1.4494  -3.0883   H         1 RES1   0.0000
    92 H24D     0.5914  -2.7538  -3.0186   H         1 RES1   0.0000
    93 H25D    -3.2528  -0.9524  -2.2523   H         1 RES1   0.0000
    94 H26D    -2.9571  -0.3520  -3.7616   H         1 RES1   0.0000
    95 H27D    -3.8864   0.4348  -2.9025   H         1 RES1   0.0000
    96 H1D     -4.1188  -2.9194   0.6385   H         1 RES1   0.0000
    97 H2D     -4.8792  -0.6211   0.9636   H         1 RES1   0.0000
    98 C18D    -4.4018   2.0187   0.9323   C.ar      1 RES1   0.0000
    99 H3D     -2.7247   4.1824   0.6269   H         1 RES1   0.0000
   100 C13D    -2.4037  -6.6877   0.8661   C.ar      1 RES1   0.0000
   101 H5D     -1.5208  -5.1141   1.7647   H         1 RES1   0.0000
   102 C15D    -3.2084  -6.1680  -1.2852   C.ar      1 RES1   0.0000
   103 H8D     -2.8726  -4.3066  -1.7763   H         1 RES1   0.0000
   104 C19D    -5.4051   2.0249  -0.0104   C.ar      1 RES1   0.0000
   105 C23D    -4.6764   2.6213   2.1374   C.ar      1 RES1   0.0000
   106 C14D    -3.0289  -7.0666  -0.2914   C.ar      1 RES1   0.0000
   107 H6D     -2.3868  -7.2882   1.5325   H         1 RES1   0.0000
   108 H7D     -3.5063  -6.3150  -2.0782   H         1 RES1   0.0000
   109 C20D    -6.6386   2.6026   0.2670   C.ar      1 RES1   0.0000
   110 H12D    -5.3227   1.5736  -0.8591   H         1 RES1   0.0000
   111 C22D    -5.8930   3.2051   2.4253   C.ar      1 RES1   0.0000
   112 H15D    -4.0977   2.7124   2.6935   H         1 RES1   0.0000
   113 O2D     -3.4450  -8.3835  -0.3367   O.3       1 RES1   0.0000
   114 C21D    -6.8773   3.1886   1.4896   C.ar      1 RES1   0.0000
   115 H13D    -7.2660   2.6295  -0.3831   H         1 RES1   0.0000
   116 H14D    -5.9775   3.5406   3.2624   H         1 RES1   0.0000
   117 C17D    -3.8738  -8.8617  -1.6057   C.3       1 RES1   0.0000
   118 O1D     -8.1277   3.7228   1.6533   O.3       1 RES1   0.0000
   119 H9D     -4.6680  -8.3441  -1.8808   H         1 RES1   0.0000
   120 H10D    -3.1683  -8.6961  -2.3917   H         1 RES1   0.0000
   121 H11D    -3.9921  -9.8142  -1.4745   H         1 RES1   0.0000
   122 C24D    -8.4868   4.1079   2.9617   C.3       1 RES1   0.0000
   123 H16D    -7.9630   4.8657   3.2276   H         1 RES1   0.0000
   124 H17D    -9.1881   4.4930   2.8444   H         1 RES1   0.0000
   125 H18D    -8.3643   3.4784   3.6107   H         1 RES1   0.0000
@<TRIPOS>BOND
     1     1     2    1
     2     2     5    1
     3     3    30    1
     4     4    23    1
     5     5    34    1
     6     6     2    1
     7     7     2    1
     8     8     1    1
     9     9     1    1
    10    10    11    2
    11    11     8    1
    12    12    11    1
    13    13    12    2
    14    14     8    2
    15    15    14    1
    16    16     9    1
    17    17    16    1
    18    18    17    2
    19    19     9    1
    20    20    10    1
    21    21    20   ar
    22    22    21   ar
    23    23    22   ar
    24    24    23   ar
    25    25    20   ar
    26    26     4    1
    27    27    15    1
    28    28    27   ar
    29    29    28   ar
    30    30    29   ar
    31    31    30   ar
    32    32    27   ar
    33    33     3    1
    34    34    55    1
    35    35     6    1
    36    36     7    1
    37    37    12    1
    38    38    13    1
    39    39    17    1
    40    40    18    1
    41    41    21    1
    42    42    22    1
    43    43    24    1
    44    44    25    1
    45    45    26    1
    46    46    26    1
    47    47    26    1
    48    48    28    1
    49    49    29    1
    50    50    31    1
    51    51    32    1
    52    52    33    1
    53    53    33    1
    54    54    33    1
    55    56    34    1
    56    57    34    1
    57    58    35    1
    58    59    35    1
    59    60    35    1
    60    61    36    1
    61    62    36    1
    62    63    36    1
    63    64     1    1
    64    65     1    1
    65    66     1    1
    66    67    10    1
    67    68    19    2
    68    69    64    1
    69    70    64    1
    70    71    64    1
    71    72    65    2
    72    73    65    1
    73    74    66    1
    74    75    67    2
    75    76    68    1
    76    77    69    1
    77    78    70    1
    78    79    71    1
    79    80    72    1
    80    81    73    1
    81    82    73    2
    82    83    74    2
    83    84    75    1
    84    85    76   ar
    85    86    76   ar
    86    87    77    1
    87    88    77    1
    88    89    77    1
    89    90    78    1
    90    91    78    1
    91    92    78    1
    92    93    79    1
    93    94    79    1
    94    95    79    1
    95    96    80    1
    96    97    81    1
    97    98    82    1
    98    99    83    1
    99   100    85   ar
   100   101    85    1
   101   102    86   ar
   102   103    86    1
   103   104    98   ar
   104   105    98   ar
   105   106   100   ar
   106   107   100    1
   107   108   102    1
   108   109   104   ar
   109   110   104    1
   110   111   105   ar
   111   112   105    1
   112   113   106    1
   113   114   109   ar
   114   115   109    1
   115   116   111    1
   116   117   113    1
   117   118   114    1
   118   119   117    1
   119   120   117    1
   120   121   117    1
   121   122   118    1
   122   123   122    1
   123   124   122    1
   124   125   122    1
   125    13    14    1
   126    15    16    2
   127    18    19    1
   128    24    25   ar
   129    31    32   ar
   130    66    67    1
   131    68    72    1
   132    74    82    1
   133    75    83    1
   134    80    81    2
   135   102   106   ar
   136   111   114   ar
@<TRIPOS>SUBSTRUCTURE
     1 RES1        1 GROUP             0 ****  ****    0  
@<TRIPOS>CRYSIN
   21.1220   20.7050   11.6100   90.0000   90.0000   90.0000    56     1
