@<TRIPOS>MOLECULE
LESRUX
   115   124     3     0     0
SMALL
USER_CHARGES
****
Generated from the CSD

@<TRIPOS>ATOM
     1 Fe1     -1.2424  14.2738   4.6398   Fe        1 RES1   2.0000
     2 N1       0.7344  13.5827   3.7901   N.ar      1 RES1   0.0000
     3 C1       0.8191  12.4383   3.0726   C.ar      1 RES1   0.0000
     4 C2       1.9915  12.0686   2.4494   C.ar      1 RES1   0.0000
     5 H1       2.0313  11.2610   1.9506   H         1 RES1   0.0000
     6 C3       3.1045  12.8757   2.5543   C.ar      1 RES1   0.0000
     7 H2       3.9255  12.6192   2.1529   H         1 RES1   0.0000
     8 C4       3.0063  14.0625   3.2527   C.ar      1 RES1   0.0000
     9 H3       3.7511  14.6494   3.3184   H         1 RES1   0.0000
    10 C5       1.8100  14.3788   3.8525   C.ar      1 RES1   0.0000
    11 C6       1.6063  15.6696   4.6006   C.3       1 RES1   0.0000
    12 H4       1.7892  15.5253   5.5622   H         1 RES1   0.0000
    13 H5       2.2435  16.3498   4.2649   H         1 RES1   0.0000
    14 N2       0.2386  16.1584   4.4308   N.3       1 RES1   0.0000
    15 H6       0.0577  16.7416   5.1316   H         1 RES1   0.0000
    16 C7       0.0220  16.8918   3.1679   C.3       1 RES1   0.0000
    17 H7       0.8294  17.4260   2.9602   H         1 RES1   0.0000
    18 H8      -0.7342  17.5200   3.2831   H         1 RES1   0.0000
    19 C8      -0.2718  15.9719   2.0079   C.3       1 RES1   0.0000
    20 H9      -0.4957  16.5111   1.2082   H         1 RES1   0.0000
    21 H10      0.5347  15.4366   1.8002   H         1 RES1   0.0000
    22 N3      -1.3935  15.0683   2.3180   N.3       1 RES1   0.0000
    23 H11     -2.1755  15.5678   2.2494   H         1 RES1   0.0000
    24 C9      -1.5002  13.9536   1.3561   C.3       1 RES1   0.0000
    25 H12     -0.5966  13.6227   1.1247   H         1 RES1   0.0000
    26 H13     -1.9385  14.2681   0.5252   H         1 RES1   0.0000
    27 C10     -2.3153  12.8332   1.9743   C.3       1 RES1   0.0000
    28 H14     -3.2282  13.1582   2.1807   H         1 RES1   0.0000
    29 H15     -2.3922  12.0819   1.3325   H         1 RES1   0.0000
    30 N4      -1.6655  12.3677   3.2072   N.3       1 RES1   0.0000
    31 H16     -2.2657  11.8106   3.6487   H         1 RES1   0.0000
    32 C11     -0.4257  11.5877   2.9622   C.3       1 RES1   0.0000
    33 H17     -0.4673  11.1883   2.0563   H         1 RES1   0.0000
    34 H18     -0.3723  10.8478   3.6172   H         1 RES1   0.0000
    35 N1B     -3.2193  13.5827   5.4894   N.ar      1 RES1   0.0000
    36 C1B     -3.3039  12.4383   6.2069   C.ar      1 RES1   0.0000
    37 C2B     -4.4763  12.0686   6.8301   C.ar      1 RES1   0.0000
    38 H1B     -4.5162  11.2610   7.3290   H         1 RES1   0.0000
    39 C3B     -5.5894  12.8757   6.7253   C.ar      1 RES1   0.0000
    40 H2B     -6.4104  12.6192   7.1267   H         1 RES1   0.0000
    41 C4B     -5.4912  14.0625   6.0269   C.ar      1 RES1   0.0000
    42 H3B     -6.2360  14.6494   5.9612   H         1 RES1   0.0000
    43 C5B     -4.2949  14.3788   5.4271   C.ar      1 RES1   0.0000
    44 C6B     -4.0911  15.6696   4.6789   C.3       1 RES1   0.0000
    45 H4B     -4.2741  15.5253   3.7174   H         1 RES1   0.0000
    46 H5B     -4.7284  16.3498   5.0147   H         1 RES1   0.0000
    47 N2B     -2.7235  16.1584   4.8488   N.3       1 RES1   0.0000
    48 H6B     -2.5425  16.7416   4.1480   H         1 RES1   0.0000
    49 C7B     -2.5069  16.8918   6.1117   C.3       1 RES1   0.0000
    50 H7B     -3.3143  17.4260   6.3194   H         1 RES1   0.0000
    51 H8B     -1.7507  17.5200   5.9964   H         1 RES1   0.0000
    52 C8B     -2.2131  15.9719   7.2716   C.3       1 RES1   0.0000
    53 H9B     -1.9892  16.5111   8.0714   H         1 RES1   0.0000
    54 H10B    -3.0196  15.4366   7.4793   H         1 RES1   0.0000
    55 N3B     -1.0914  15.0683   6.9615   N.3       1 RES1   0.0000
    56 H11B    -0.3094  15.5678   7.0302   H         1 RES1   0.0000
    57 C9B     -0.9846  13.9536   7.9234   C.3       1 RES1   0.0000
    58 H12B    -1.8883  13.6227   8.1549   H         1 RES1   0.0000
    59 H13B    -0.5463  14.2681   8.7543   H         1 RES1   0.0000
    60 C10B    -0.1695  12.8332   7.3052   C.3       1 RES1   0.0000
    61 H14B     0.7434  13.1582   7.0989   H         1 RES1   0.0000
    62 H15B    -0.0927  12.0819   7.9470   H         1 RES1   0.0000
    63 N4B     -0.8194  12.3677   6.0724   N.3       1 RES1   0.0000
    64 H16B    -0.2192  11.8106   5.6308   H         1 RES1   0.0000
    65 C11B    -2.0592  11.5877   6.3173   C.3       1 RES1   0.0000
    66 H17B    -2.0176  11.1883   7.2232   H         1 RES1   0.0000
    67 H18B    -2.1126  10.8478   5.6624   H         1 RES1   0.0000
    68 B1      -4.7278  17.7565   0.2001   B         2 RES2  -1.0000
    69 C12     -5.8360  18.9016  -0.2257   C.ar      2 RES2   0.0000
    70 C13     -7.2005  18.6027  -0.4224   C.ar      2 RES2   0.0000
    71 H19     -7.4968  17.7133  -0.2747   H         2 RES2   0.0000
    72 C14     -8.1261  19.5537  -0.8237   C.ar      2 RES2   0.0000
    73 H20     -9.0396  19.3126  -0.9298   H         2 RES2   0.0000
    74 C15     -7.7231  20.8481  -1.0684   C.ar      2 RES2   0.0000
    75 H21     -8.3549  21.5059  -1.3344   H         2 RES2   0.0000
    76 C16     -6.3917  21.1761  -0.9222   C.ar      2 RES2   0.0000
    77 H22     -6.1013  22.0627  -1.1006   H         2 RES2   0.0000
    78 C17     -5.4797  20.2206  -0.5167   C.ar      2 RES2   0.0000
    79 H23     -4.5674  20.4722  -0.4324   H         2 RES2   0.0000
    80 C18     -3.5484  18.4904   1.1009   C.ar      2 RES2   0.0000
    81 C19     -2.4045  19.0585   0.5395   C.ar      2 RES2   0.0000
    82 H24     -2.2549  18.9385  -0.3916   H         2 RES2   0.0000
    83 C20     -1.4689  19.7922   1.2689   C.ar      2 RES2   0.0000
    84 H25     -0.6990  20.1442   0.8370   H         2 RES2   0.0000
    85 C21     -1.6659  20.0070   2.6270   C.ar      2 RES2   0.0000
    86 H26     -1.0468  20.5219   3.1309   H         2 RES2   0.0000
    87 C22     -2.7726  19.4601   3.2276   C.ar      2 RES2   0.0000
    88 H27     -2.9166  19.5910   4.1572   H         2 RES2   0.0000
    89 C23     -3.6899  18.7112   2.4840   C.ar      2 RES2   0.0000
    90 H28     -4.4403  18.3356   2.9305   H         2 RES2   0.0000
    91 C24     -5.4499  16.5735   1.0972   C.ar      2 RES2   0.0000
    92 C25     -6.3846  16.8634   2.0985   C.ar      2 RES2   0.0000
    93 H29     -6.6078  17.7736   2.2531   H         2 RES2   0.0000
    94 C26     -7.0031  15.8935   2.8778   C.ar      2 RES2   0.0000
    95 H30     -7.6240  16.1476   3.5504   H         2 RES2   0.0000
    96 C27     -6.7100  14.5504   2.6699   C.ar      2 RES2   0.0000
    97 H31     -7.1351  13.8763   3.1866   H         2 RES2   0.0000
    98 C28     -5.7896  14.2180   1.6998   C.ar      2 RES2   0.0000
    99 H32     -5.5749  13.3053   1.5497   H         2 RES2   0.0000
   100 C29     -5.1725  15.2024   0.9406   C.ar      2 RES2   0.0000
   101 H33     -4.5355  14.9401   0.2877   H         2 RES2   0.0000
   102 C30     -4.1175  17.1124  -1.1846   C.ar      2 RES2   0.0000
   103 C31     -4.8052  17.1523  -2.4080   C.ar      2 RES2   0.0000
   104 H34     -5.6289  17.6228  -2.4517   H         2 RES2   0.0000
   105 C32     -4.3331  16.5333  -3.5554   C.ar      2 RES2   0.0000
   106 H35     -4.8353  16.5874  -4.3595   H         2 RES2   0.0000
   107 C33     -3.1426  15.8421  -3.5387   C.ar      2 RES2   0.0000
   108 H36     -2.8244  15.4082  -4.3224   H         2 RES2   0.0000
   109 C34     -2.4176  15.7896  -2.3600   C.ar      2 RES2   0.0000
   110 H37     -1.5924  15.3214  -2.3310   H         2 RES2   0.0000
   111 C35     -2.8978  16.4223  -1.2212   C.ar      2 RES2   0.0000
   112 H38     -2.3754  16.3852  -0.4287   H         2 RES2   0.0000
   113 N5      -1.2424   8.6864   4.6398   N.1       3 RES3   0.0000
   114 C36     -1.2424   7.5640   4.6398   C.1       3 RES3   0.0000
   115 C37     -1.2424   6.1136   4.6398   C.3       3 RES3   0.0000
@<TRIPOS>BOND
     1     1     2    1
     2     2     3   ar
     3     3     4   ar
     4     4     5    1
     5     6     4   ar
     6     7     6    1
     7     8     6   ar
     8     9     8    1
     9    10     2   ar
    10    11    10    1
    11    12    11    1
    12    13    11    1
    13    14     1    1
    14    15    14    1
    15    16    14    1
    16    17    16    1
    17    18    16    1
    18    19    16    1
    19    20    19    1
    20    21    19    1
    21    22    19    1
    22    23    22    1
    23    24    22    1
    24    25    24    1
    25    26    24    1
    26    27    24    1
    27    28    27    1
    28    29    27    1
    29    30     1    1
    30    31    30    1
    31    32     3    1
    32    33    32    1
    33    34    32    1
    34    35     1    1
    35    36    35   ar
    36    37    36   ar
    37    38    37    1
    38    39    37   ar
    39    40    39    1
    40    41    39   ar
    41    42    41    1
    42    43    35   ar
    43    44    43    1
    44    45    44    1
    45    46    44    1
    46    47     1    1
    47    48    47    1
    48    49    47    1
    49    50    49    1
    50    51    49    1
    51    52    49    1
    52    53    52    1
    53    54    52    1
    54    55    52    1
    55    56    55    1
    56    57    55    1
    57    58    57    1
    58    59    57    1
    59    60    57    1
    60    61    60    1
    61    62    60    1
    62    63     1    1
    63    64    63    1
    64    65    36    1
    65    66    65    1
    66    67    65    1
    67     8    10   ar
    68    11    14    1
    69    27    30    1
    70    30    32    1
    71    41    43   ar
    72    44    47    1
    73    60    63    1
    74    63    65    1
    75    68    69    1
    76    69    70   ar
    77    70    71    1
    78    72    70   ar
    79    73    72    1
    80    74    72   ar
    81    75    74    1
    82    76    74   ar
    83    77    76    1
    84    78    69   ar
    85    79    78    1
    86    80    68    1
    87    81    80   ar
    88    82    81    1
    89    83    81   ar
    90    84    83    1
    91    85    83   ar
    92    86    85    1
    93    87    85   ar
    94    88    87    1
    95    89    80   ar
    96    90    89    1
    97    91    68    1
    98    92    91   ar
    99    93    92    1
   100    94    92   ar
   101    95    94    1
   102    96    94   ar
   103    97    96    1
   104    98    96   ar
   105    99    98    1
   106   100    91   ar
   107   101   100    1
   108   102    68    1
   109   103   102   ar
   110   104   103    1
   111   105   103   ar
   112   106   105    1
   113   107   105   ar
   114   108   107    1
   115   109   107   ar
   116   110   109    1
   117   111   102   ar
   118   112   111    1
   119    76    78   ar
   120    87    89   ar
   121    98   100   ar
   122   109   111   ar
   123   113   114    3
   124   114   115    1
@<TRIPOS>SUBSTRUCTURE
     1 RES1        1 GROUP             0 ****  ****    0  
     2 RES2       68 GROUP             0 ****  ****    0  
     3 RES3      113 GROUP             0 ****  ****    0  
@<TRIPOS>CRYSIN
   18.1240   17.7310   19.2130   90.0000  104.9910   90.0000    15     1
