@<TRIPOS>MOLECULE
LEVKEG
    85    95     2     0     0
SMALL
NO_CHARGES
****
Generated from the CSD

@<TRIPOS>ATOM
     1 Fe1      6.3427  13.1575   3.4508   Fe        1 RES1   0.0000
     2 N1       4.4818  12.6999   3.3881   N.ar      1 RES1   0.0000
     3 N2       5.7338  14.3864   2.0269   N.2       1 RES1   0.0000
     4 N3       4.4158  14.1917   1.6903   N.pl3     1 RES1   0.0000
     5 N4       6.2831  11.7233   4.8079   N.2       1 RES1   0.0000
     6 N5       5.0463  10.1760   5.9050   N.2       1 RES1   0.0000
     7 N6       7.1343  11.0681   5.6376   N.2       1 RES1   0.0000
     8 C1       3.6876  13.2970   2.4924   C.ar      1 RES1   0.0000
     9 C2       1.8254  12.0733   3.2369   C.ar      1 RES1   0.0000
    10 H1       0.8991  11.8617   3.2045   H         1 RES1   0.0000
    11 C3       5.0627  11.1681   4.9943   C.2       1 RES1   0.0000
    12 C4       3.9858  11.7312   4.1816   C.ar      1 RES1   0.0000
    13 C5       2.6436  11.3997   4.1294   C.ar      1 RES1   0.0000
    14 H2       2.2893  10.7219   4.6943   H         1 RES1   0.0000
    15 C6       6.9059   9.2760   7.3216   C.ar      1 RES1   0.0000
    16 C7       2.3278  13.0443   2.3912   C.ar      1 RES1   0.0000
    17 H3       1.7742  13.5109   1.7770   H         1 RES1   0.0000
    18 C8       4.1215  14.8680   0.5475   C.2       1 RES1   0.0000
    19 H4       3.2797  14.8859   0.1090   H         1 RES1   0.0000
    20 C9       8.2671   9.1918   7.5804   C.ar      1 RES1   0.0000
    21 H5       8.8581   9.7073   7.0439   H         1 RES1   0.0000
    22 C10      5.2391  15.5074   0.1491   C.2       1 RES1   0.0000
    23 H6       5.3388  16.0604  -0.6177   H         1 RES1   0.0000
    24 C11      8.8125   8.3971   8.5805   C.ar      1 RES1   0.0000
    25 C12      7.9411   7.6419   9.3879   C.ar      1 RES1   0.0000
    26 C13      6.5888   7.7050   9.1525   C.ar      1 RES1   0.0000
    27 H7       6.0012   7.1950   9.6971   H         1 RES1   0.0000
    28 C14      6.2171  15.1995   1.0875   C.2       1 RES1   0.0000
    29 H8       7.1093  15.5224   1.0621   H         1 RES1   0.0000
    30 C15     10.3158   8.4103   8.8234   C.3       1 RES1   0.0000
    31 H9      10.7344   9.0843   8.2484   H         1 RES1   0.0000
    32 H10     10.6873   7.5272   8.6150   H         1 RES1   0.0000
    33 H11     10.4934   8.6257   9.7625   H         1 RES1   0.0000
    34 C16      6.3770  10.1576   6.2916   C.2       1 RES1   0.0000
    35 C17      6.0497   8.5050   8.1289   C.ar      1 RES1   0.0000
    36 H12      5.1115   8.5228   7.9823   H         1 RES1   0.0000
    37 C18      8.4815   6.7998  10.5329   C.3       1 RES1   0.0000
    38 H13      9.1620   6.1837  10.1921   H         1 RES1   0.0000
    39 H14      7.7491   6.2891  10.9363   H         1 RES1   0.0000
    40 H15      8.8807   7.3875  11.2084   H         1 RES1   0.0000
    41 N1A      8.2036  13.6151   3.3881   N.ar      1 RES1   0.0000
    42 N2A      6.9516  11.9286   2.0269   N.2       1 RES1   0.0000
    43 N3A      8.2696  12.1233   1.6903   N.pl3     1 RES1   0.0000
    44 N4A      6.4023  14.5917   4.8079   N.2       1 RES1   0.0000
    45 N5A      7.6391  16.1390   5.9050   N.2       1 RES1   0.0000
    46 N6A      5.5511  15.2469   5.6376   N.2       1 RES1   0.0000
    47 C1A      8.9978  13.0180   2.4924   C.ar      1 RES1   0.0000
    48 C2A     10.8600  14.2417   3.2369   C.ar      1 RES1   0.0000
    49 H1A     11.7863  14.4533   3.2045   H         1 RES1   0.0000
    50 C3A      7.6227  15.1469   4.9943   C.2       1 RES1   0.0000
    51 C4A      8.6996  14.5838   4.1816   C.ar      1 RES1   0.0000
    52 C5A     10.0418  14.9153   4.1294   C.ar      1 RES1   0.0000
    53 H2A     10.3961  15.5931   4.6943   H         1 RES1   0.0000
    54 C6A      5.7795  17.0390   7.3216   C.ar      1 RES1   0.0000
    55 C7A     10.3576  13.2707   2.3912   C.ar      1 RES1   0.0000
    56 H3A     10.9112  12.8041   1.7770   H         1 RES1   0.0000
    57 C8A      8.5639  11.4470   0.5475   C.2       1 RES1   0.0000
    58 H4A      9.4057  11.4291   0.1090   H         1 RES1   0.0000
    59 C9A      4.4183  17.1232   7.5804   C.ar      1 RES1   0.0000
    60 H5A      3.8273  16.6077   7.0439   H         1 RES1   0.0000
    61 C10A     7.4463  10.8076   0.1491   C.2       1 RES1   0.0000
    62 H6A      7.3466  10.2546  -0.6177   H         1 RES1   0.0000
    63 C11A     3.8729  17.9179   8.5805   C.ar      1 RES1   0.0000
    64 C12A     4.7443  18.6731   9.3879   C.ar      1 RES1   0.0000
    65 C13A     6.0966  18.6100   9.1525   C.ar      1 RES1   0.0000
    66 H7A      6.6842  19.1200   9.6971   H         1 RES1   0.0000
    67 C14A     6.4683  11.1155   1.0875   C.2       1 RES1   0.0000
    68 H8A      5.5761  10.7926   1.0621   H         1 RES1   0.0000
    69 C15A     2.3696  17.9047   8.8234   C.3       1 RES1   0.0000
    70 H9A      1.9510  17.2307   8.2484   H         1 RES1   0.0000
    71 H10A     1.9981  18.7878   8.6150   H         1 RES1   0.0000
    72 H11A     2.1920  17.6893   9.7625   H         1 RES1   0.0000
    73 C16A     6.3084  16.1574   6.2916   C.2       1 RES1   0.0000
    74 C17A     6.6357  17.8100   8.1289   C.ar      1 RES1   0.0000
    75 H12A     7.5739  17.7922   7.9823   H         1 RES1   0.0000
    76 C18A     4.2039  19.5152  10.5329   C.3       1 RES1   0.0000
    77 H13A     3.5234  20.1313  10.1921   H         1 RES1   0.0000
    78 H14A     4.9363  20.0259  10.9363   H         1 RES1   0.0000
    79 H15A     3.8047  18.9275  11.2084   H         1 RES1   0.0000
    80 O1       2.4572   9.3050   6.5344   O.3       2 RES2   0.0000
    81 H16      3.2348   9.4471   6.4120   H         2 RES2   0.0000
    82 C19      2.1273   8.3813   7.5037   C.3       2 RES2   0.0000
    83 H17      2.6467   7.5608   7.3648   H         2 RES2   0.0000
    84 H18      1.1710   8.1744   7.4472   H         2 RES2   0.0000
    85 H19      2.3302   8.7487   8.3893   H         2 RES2   0.0000
@<TRIPOS>BOND
     1     1     2    1
     2     2     8   ar
     3     3     1    1
     4     4     3    1
     5     5     1    1
     6     6    11    2
     7     7     5    1
     8     8     4    1
     9     9    10    1
    10    11     5    1
    11    12     2   ar
    12    13     9   ar
    13    14    13    1
    14    15    20   ar
    15    16     8   ar
    16    17    16    1
    17    18     4    1
    18    19    18    1
    19    20    21    1
    20    22    18    2
    21    23    22    1
    22    24    20   ar
    23    25    24   ar
    24    26    25   ar
    25    27    26    1
    26    28     3    2
    27    29    28    1
    28    30    24    1
    29    31    30    1
    30    32    30    1
    31    33    30    1
    32    34     6    1
    33    35    15   ar
    34    36    35    1
    35    37    25    1
    36    38    37    1
    37    39    37    1
    38    40    37    1
    39    41     1    1
    40    42     1    1
    41    43    42    1
    42    44     1    1
    43    45    50    2
    44    46    44    1
    45    47    41   ar
    46    48    49    1
    47    50    44    1
    48    51    41   ar
    49    52    48   ar
    50    53    52    1
    51    54    59   ar
    52    55    47   ar
    53    56    55    1
    54    57    43    1
    55    58    57    1
    56    59    60    1
    57    61    57    2
    58    62    61    1
    59    63    59   ar
    60    64    63   ar
    61    65    64   ar
    62    66    65    1
    63    67    42    2
    64    68    67    1
    65    69    63    1
    66    70    69    1
    67    71    69    1
    68    72    69    1
    69    73    45    1
    70    74    54   ar
    71    75    74    1
    72    76    64    1
    73    77    76    1
    74    78    76    1
    75    79    76    1
    76     7    34    2
    77     9    16   ar
    78    11    12    1
    79    12    13   ar
    80    15    34    1
    81    22    28    1
    82    26    35   ar
    83    43    47    1
    84    46    73    2
    85    48    55   ar
    86    50    51    1
    87    51    52   ar
    88    54    73    1
    89    61    67    1
    90    65    74   ar
    91    80    81    1
    92    82    80    1
    93    83    82    1
    94    84    82    1
    95    85    82    1
@<TRIPOS>SUBSTRUCTURE
     1 RES1        1 GROUP             0 ****  ****    0  
     2 RES2       80 GROUP             0 ****  ****    0  
@<TRIPOS>CRYSIN
   12.6854   26.3150   10.6511   90.0000   90.0000   90.0000    41     1
