@<TRIPOS>MOLECULE
LEWSOV
    78    82     2     0     0
SMALL
USER_CHARGES
****
Generated from the CSD

@<TRIPOS>ATOM
     1 Fe1     -0.9085   2.6017   2.3730   Fe        1 RES1   1.0000
     2 N1      -1.5961   3.9822   1.2416   N.2       1 RES1   0.0000
     3 N2      -1.5310   1.2103   1.2672   N.2       1 RES1   0.0000
     4 N3      -2.6476   2.6513   3.3687   N.2       1 RES1   0.0000
     5 N4      -4.2207   3.2209   4.7688   N.pl3     1 RES1   0.0000
     6 H1      -4.6065   3.5723   5.4532   H         1 RES1   0.0000
     7 O1      -2.7168   3.2990  -2.7831   O.2       1 RES1   0.0000
     8 O2      -3.6365   1.4055  -2.1063   O.3       1 RES1   0.0000
     9 C1      -1.3254  -0.1313   1.7912   C.3       1 RES1   0.0000
    10 H2      -2.1844  -0.5217   2.0133   H         1 RES1   0.0000
    11 H3      -0.9149  -0.6814   1.1058   H         1 RES1   0.0000
    12 C2      -1.5145   5.2883   1.9070   C.3       1 RES1   0.0000
    13 H4      -2.3245   5.4516   2.4157   H         1 RES1   0.0000
    14 H5      -1.4233   5.9910   1.2454   H         1 RES1   0.0000
    15 C3      -2.2172   3.8651   0.0731   C.2       1 RES1   0.0000
    16 C4      -2.8210   5.0878  -0.5486   C.3       1 RES1   0.0000
    17 H6      -3.4551   4.8251  -1.2188   H         1 RES1   0.0000
    18 H7      -2.1276   5.6166  -0.9530   H         1 RES1   0.0000
    19 H8      -3.2628   5.6060   0.1272   H         1 RES1   0.0000
    20 C5      -2.3915   2.5785  -0.5278   C.2       1 RES1   0.0000
    21 C6      -2.9106   2.5057  -1.9127   C.2       1 RES1   0.0000
    22 C7      -4.1832   1.1979  -3.4418   C.3       1 RES1   0.0000
    23 H9      -4.9136   1.8225  -3.5690   H         1 RES1   0.0000
    24 H10     -3.4954   1.4250  -4.0863   H         1 RES1   0.0000
    25 C8      -4.5888   0.0852  -3.6981   C.3       1 RES1   0.0000
    26 H11     -4.6583  -0.0195  -4.6502   H         1 RES1   0.0000
    27 H12     -5.4533  -0.0408  -3.2976   H         1 RES1   0.0000
    28 H13     -3.9765  -0.5679  -3.3488   H         1 RES1   0.0000
    29 C9      -2.0880   1.3593   0.0816   C.2       1 RES1   0.0000
    30 H14     -2.2999   0.5856  -0.3892   H         1 RES1   0.0000
    31 C10     -2.9226   3.2848   4.4831   C.2       1 RES1   0.0000
    32 H15     -2.2897   3.7231   5.0061   H         1 RES1   0.0000
    33 C11     -4.8223   2.5164   3.8044   C.2       1 RES1   0.0000
    34 H16     -5.7288   2.3141   3.7456   H         1 RES1   0.0000
    35 C12     -3.8592   2.1597   2.9369   C.2       1 RES1   0.0000
    36 H17     -3.9908   1.6593   2.1651   H         1 RES1   0.0000
    37 C2A     -0.3026   5.2883   2.8391   C.3       1 RES1   0.0000
    38 N1A     -0.2210   3.9822   3.5045   N.2       1 RES1   0.0000
    39 C1A     -0.4916  -0.1313   2.9549   C.3       1 RES1   0.0000
    40 N2A     -0.2861   1.2103   3.4788   N.2       1 RES1   0.0000
    41 N3A      0.8305   2.6513   1.3773   N.2       1 RES1   0.0000
    42 C10A     1.1055   3.2848   0.2629   C.2       1 RES1   0.0000
    43 N4A      2.4036   3.2209  -0.0228   N.pl3     1 RES1   0.0000
    44 H1A      2.7894   3.5723  -0.7072   H         1 RES1   0.0000
    45 C11A     3.0052   2.5164   0.9416   C.2       1 RES1   0.0000
    46 H16A     3.9117   2.3141   1.0005   H         1 RES1   0.0000
    47 C12A     2.0421   2.1597   1.8092   C.2       1 RES1   0.0000
    48 H17A     2.1737   1.6593   2.5809   H         1 RES1   0.0000
    49 H15A     0.4726   3.7231  -0.2601   H         1 RES1   0.0000
    50 C9A      0.2709   1.3593   4.6644   C.2       1 RES1   0.0000
    51 C5A      0.5744   2.5785   5.2738   C.2       1 RES1   0.0000
    52 C3A      0.4001   3.8651   4.6730   C.2       1 RES1   0.0000
    53 C4A      1.0039   5.0878   5.2947   C.3       1 RES1   0.0000
    54 H6A      1.6380   4.8251   5.9648   H         1 RES1   0.0000
    55 H7A      0.3105   5.6166   5.6990   H         1 RES1   0.0000
    56 H8A      1.4457   5.6060   4.6188   H         1 RES1   0.0000
    57 C6A      1.0935   2.5057   6.6587   C.2       1 RES1   0.0000
    58 O1A      0.8997   3.2990   7.5291   O.2       1 RES1   0.0000
    59 O2A      1.8194   1.4055   6.8523   O.3       1 RES1   0.0000
    60 C7A      2.3661   1.1979   8.1879   C.3       1 RES1   0.0000
    61 H9A      3.0965   1.8225   8.3151   H         1 RES1   0.0000
    62 H10A     1.6783   1.4250   8.8324   H         1 RES1   0.0000
    63 C8A      2.7717   0.0852   8.4442   C.3       1 RES1   0.0000
    64 H11A     2.8412  -0.0195   9.3962   H         1 RES1   0.0000
    65 H12A     3.6362  -0.0408   8.0436   H         1 RES1   0.0000
    66 H13A     2.1594  -0.5679   8.0949   H         1 RES1   0.0000
    67 H14A     0.4828   0.5856   5.1352   H         1 RES1   0.0000
    68 H2A      0.3673  -0.5217   2.7328   H         1 RES1   0.0000
    69 H3A     -0.9022  -0.6814   3.6402   H         1 RES1   0.0000
    70 H4A      0.5074   5.4516   2.3303   H         1 RES1   0.0000
    71 H5A     -0.3938   5.9910   3.5007   H         1 RES1   0.0000
    72 P1      -2.7256   6.3623   7.1191   P.3       2 RES2  -1.0000
    73 F1      -3.2992   6.3424   8.6036   F         2 RES2   0.0000
    74 F2      -2.7256   7.9005   7.1191   F         2 RES2   0.0000
    75 F3      -1.2850   6.3566   7.7085   F         2 RES2   0.0000
    76 F4      -2.7256   4.7825   7.1191   F         2 RES2   0.0000
    77 F1A     -2.1520   6.3424   5.6345   F         2 RES2   0.0000
    78 F3A     -4.1663   6.3566   6.5296   F         2 RES2   0.0000
@<TRIPOS>BOND
     1     1     2    1
     2     2    12    1
     3     3     1    1
     4     4     1    1
     5     5     6    1
     6     7    21    2
     7     8    21    1
     8     9     3    1
     9    10     9    1
    10    11     9    1
    11    12    13    1
    12    14    12    1
    13    15     2    1
    14    16    15    1
    15    17    16    1
    16    18    16    1
    17    19    16    1
    18    20    15    2
    19    21    20    1
    20    22     8    1
    21    23    22    1
    22    24    22    1
    23    25    22    1
    24    26    25    1
    25    27    25    1
    26    28    25    1
    27    29     3    2
    28    30    29    1
    29    31     4    2
    30    32    31    1
    31    33     5    1
    32    34    33    1
    33    35     4    1
    34    36    35    1
    35    37    12    1
    36    38     1    1
    37    39     9    1
    38    40     1    1
    39    41     1    1
    40    42    41    2
    41    43    42    1
    42    44    43    1
    43    45    43    1
    44    46    45    1
    45    47    41    1
    46    48    47    1
    47    49    42    1
    48    50    40    1
    49    51    50    2
    50    52    38    2
    51    53    52    1
    52    54    53    1
    53    55    53    1
    54    56    53    1
    55    57    51    1
    56    58    57    2
    57    59    57    1
    58    60    59    1
    59    61    60    1
    60    62    60    1
    61    63    60    1
    62    64    63    1
    63    65    63    1
    64    66    63    1
    65    67    50    1
    66    68    39    1
    67    69    39    1
    68    70    37    1
    69    71    37    1
    70     5    31    1
    71    20    29    1
    72    33    35    2
    73    37    38    1
    74    39    40    1
    75    45    47    2
    76    51    52    1
    77    72    73    1
    78    74    72    1
    79    75    72    1
    80    76    72    1
    81    77    72    1
    82    78    72    1
@<TRIPOS>SUBSTRUCTURE
     1 RES1        1 GROUP             0 ****  ****    0  
     2 RES2       72 GROUP             0 ****  ****    0  
@<TRIPOS>CRYSIN
   17.4300   17.7460   10.1640   90.0000  110.9500   90.0000    15     1
