@<TRIPOS>MOLECULE
LEXLIK
    90    89     4     0     0
SMALL
USER_CHARGES
****
Generated from the CSD

@<TRIPOS>ATOM
     1 Fe1      8.1761   2.3887   3.8853   Fe        1 RES1   2.0000
     2 P1       7.8270   1.1071   5.7223   P.3       1 RES1   0.0000
     3 P2       8.1515   3.9332   2.2254   P.3       1 RES1   0.0000
     4 O1      10.4672   3.5893   5.2063   O.2       1 RES1   0.0000
     5 N1       6.9322   3.6392   4.7818   N.ar      1 RES1   0.0000
     6 N2       6.8967   2.2031   6.6112   N.pl3     1 RES1   0.0000
     7 H1       6.6780   2.0187   7.4435   H         1 RES1   0.0000
     8 N3       6.9932   4.9764   2.8877   N.pl3     1 RES1   0.0000
     9 H2       6.6903   5.6509   2.4123   H         1 RES1   0.0000
    10 N4       9.3296   1.1366   2.9792   N.1       1 RES1   0.0000
    11 N5       6.6313   1.4970   3.0291   N.1       1 RES1   0.0000
    12 C1       6.4789   3.3838   6.0381   C.ar      1 RES1   0.0000
    13 C2       5.6405   4.2669   6.7169   C.ar      1 RES1   0.0000
    14 H3       5.3496   4.0825   7.6030   H         1 RES1   0.0000
    15 C3       5.2437   5.4215   6.0602   C.ar      1 RES1   0.0000
    16 H4       4.6724   6.0382   6.5017   H         1 RES1   0.0000
    17 C4       5.6668   5.6883   4.7723   C.ar      1 RES1   0.0000
    18 H5       5.3811   6.4718   4.3167   H         1 RES1   0.0000
    19 C5       6.5245   4.7776   4.1599   C.ar      1 RES1   0.0000
    20 C6       9.1828   0.5566   6.8471   C.3       1 RES1   0.0000
    21 H6       8.8392  -0.2393   7.3461   H         1 RES1   0.0000
    22 C7      10.4059   0.0856   6.0487   C.3       1 RES1   0.0000
    23 H7      11.1105  -0.1984   6.6670   H         1 RES1   0.0000
    24 H8      10.7374   0.8220   5.4919   H         1 RES1   0.0000
    25 H9      10.1514  -0.6676   5.4741   H         1 RES1   0.0000
    26 C8       9.5677   1.6016   7.8935   C.3       1 RES1   0.0000
    27 H10     10.3015   1.2576   8.4445   H         1 RES1   0.0000
    28 H11      8.7943   1.7940   8.4622   H         1 RES1   0.0000
    29 H12      9.8548   2.4239   7.4435   H         1 RES1   0.0000
    30 C9       6.7591  -0.3828   5.5332   C.3       1 RES1   0.0000
    31 H13      5.9325  -0.0829   5.0578   H         1 RES1   0.0000
    32 C10      7.4262  -1.4290   4.6344   C.3       1 RES1   0.0000
    33 H14      6.8385  -2.2087   4.5500   H         1 RES1   0.0000
    34 H15      8.2792  -1.7038   5.0313   H         1 RES1   0.0000
    35 H16      7.5869  -1.0435   3.7469   H         1 RES1   0.0000
    36 C11      6.2995  -0.9963   6.8598   C.3       1 RES1   0.0000
    37 H17      5.7379  -1.7793   6.6818   H         1 RES1   0.0000
    38 H18      5.7843  -0.3338   7.3638   H         1 RES1   0.0000
    39 H19      7.0832  -1.2681   7.3815   H         1 RES1   0.0000
    40 C12      9.6027   5.0085   1.8681   C.3       1 RES1   0.0000
    41 H20      9.3960   5.5133   1.0305   H         1 RES1   0.0000
    42 C13     10.8460   4.1686   1.5903   C.3       1 RES1   0.0000
    43 H21     11.6037   4.7596   1.3995   H         1 RES1   0.0000
    44 H22     10.6814   3.5870   0.8179   H         1 RES1   0.0000
    45 H23     11.0507   3.6185   2.3739   H         1 RES1   0.0000
    46 C14      9.8622   6.0438   2.9668   C.3       1 RES1   0.0000
    47 H24     10.6450   6.5841   2.7282   H         1 RES1   0.0000
    48 H25     10.0292   5.5837   3.8148   H         1 RES1   0.0000
    49 H26      9.0794   6.6261   3.0589   H         1 RES1   0.0000
    50 C15      7.4215   3.4504   0.6065   C.3       1 RES1   0.0000
    51 H27      6.5231   3.0580   0.8061   H         1 RES1   0.0000
    52 C16      8.2253   2.3599  -0.1019   C.3       1 RES1   0.0000
    53 H28      7.7931   2.1352  -0.9537   H         1 RES1   0.0000
    54 H29      8.2630   1.5610   0.4665   H         1 RES1   0.0000
    55 H30      9.1350   2.6821  -0.2716   H         1 RES1   0.0000
    56 C17      7.1804   4.6397  -0.3271   C.3       1 RES1   0.0000
    57 H31      6.7876   4.3219  -1.1663   H         1 RES1   0.0000
    58 H32      8.0323   5.0861  -0.5138   H         1 RES1   0.0000
    59 H33      6.5673   5.2729   0.1033   H         1 RES1   0.0000
    60 C18      9.5673   3.1309   4.6749   C.1       1 RES1   0.0000
    61 C19     10.0478   0.4053   2.4829   C.1       1 RES1   0.0000
    62 C20     10.9570  -0.5406   1.8537   C.3       1 RES1   0.0000
    63 H34     11.6097  -0.0535   1.3080   H         1 RES1   0.0000
    64 H35     10.4477  -1.1537   1.2844   H         1 RES1   0.0000
    65 H36     11.4266  -1.0519   2.5452   H         1 RES1   0.0000
    66 C21      5.8016   0.8336   2.6066   C.1       1 RES1   0.0000
    67 C22      4.7652  -0.0797   2.1365   C.3       1 RES1   0.0000
    68 H37      4.9387  -0.3170   1.2017   H         1 RES1   0.0000
    69 H38      3.8904   0.3559   2.2056   H         1 RES1   0.0000
    70 H39      4.7713  -0.8912   2.6869   H         1 RES1   0.0000
    71 B1       5.7516   2.5247  10.2157   B         2 RES2  -1.0000
    72 F1       5.9732   1.5658   9.2068   F         2 RES2   0.0000
    73 F2       6.8224   3.3802  10.2228   F         2 RES2   0.0000
    74 F3       4.5870   3.1939   9.8966   F         2 RES2   0.0000
    75 F4       5.6136   1.8824  11.4142   F         2 RES2   0.0000
    76 B2       7.4271   8.2916   0.6502   B         3 RES3  -1.0000
    77 F5       6.8473   7.5866   1.7226   F         3 RES3   0.0000
    78 F6       8.6729   7.7592   0.3652   F         3 RES3   0.0000
    79 F7       6.6055   8.1514  -0.4453   F         3 RES3   0.0000
    80 F8       7.5552   9.6230   0.9912   F         3 RES3   0.0000
    81 O2       1.6646   1.6423   3.3657   O.2       4 RES4   0.0000
    82 C23      2.5421   2.2181   3.9612   C.2       4 RES4   0.0000
    83 C24      3.0846   1.6586   5.2362   C.3       4 RES4   0.0000
    84 H40      2.5817   0.8545   5.4801   H         4 RES4   0.0000
    85 H41      2.9995   2.3273   5.9495   H         4 RES4   0.0000
    86 H42      4.0301   1.4287   5.1169   H         4 RES4   0.0000
    87 C25      3.1566   3.4831   3.4029   C.3       4 RES4   0.0000
    88 H43      2.7018   3.7277   2.5688   H         4 RES4   0.0000
    89 H44      4.1080   3.3330   3.2243   H         4 RES4   0.0000
    90 H45      3.0583   4.2095   4.0539   H         4 RES4   0.0000
@<TRIPOS>BOND
     1     1     2    1
     2     2     6    1
     3     3     1    1
     4     4    60    3
     5     5     1    1
     6     6     7    1
     7     8     3    1
     8     9     8    1
     9    10     1    1
    10    11     1    1
    11    12     5   ar
    12    13    12   ar
    13    14    13    1
    14    15    13   ar
    15    16    15    1
    16    17    15   ar
    17    18    17    1
    18    19     5   ar
    19    20     2    1
    20    21    20    1
    21    22    20    1
    22    23    22    1
    23    24    22    1
    24    25    22    1
    25    26    20    1
    26    27    26    1
    27    28    26    1
    28    29    26    1
    29    30     2    1
    30    31    30    1
    31    32    30    1
    32    33    32    1
    33    34    32    1
    34    35    32    1
    35    36    30    1
    36    37    36    1
    37    38    36    1
    38    39    36    1
    39    40     3    1
    40    41    40    1
    41    42    40    1
    42    43    42    1
    43    44    42    1
    44    45    42    1
    45    46    40    1
    46    47    46    1
    47    48    46    1
    48    49    46    1
    49    50     3    1
    50    51    50    1
    51    52    50    1
    52    53    52    1
    53    54    52    1
    54    55    52    1
    55    56    50    1
    56    57    56    1
    57    58    56    1
    58    59    56    1
    59    60     1    1
    60    61    10    3
    61    62    61    1
    62    63    62    1
    63    64    62    1
    64    65    62    1
    65    66    11    3
    66    67    66    1
    67    68    67    1
    68    69    67    1
    69    70    67    1
    70     6    12    1
    71     8    19    1
    72    17    19   ar
    73    71    72    1
    74    73    71    1
    75    74    71    1
    76    75    71    1
    77    76    77    1
    78    78    76    1
    79    79    76    1
    80    80    76    1
    81    81    82    2
    82    82    83    1
    83    83    84    1
    84    85    83    1
    85    86    83    1
    86    87    82    1
    87    88    87    1
    88    89    87    1
    89    90    87    1
@<TRIPOS>SUBSTRUCTURE
     1 RES1        1 GROUP             0 ****  ****    0  
     2 RES2       71 GROUP             0 ****  ****    0  
     3 RES3       76 GROUP             0 ****  ****    0  
     4 RES4       81 GROUP             0 ****  ****    0  
@<TRIPOS>CRYSIN
   10.8683   10.4976   29.9630   90.0000   99.7960   90.0000    14     1
