@<TRIPOS>MOLECULE
LEZTUG
   122   125    12     0     0
SMALL
USER_CHARGES
****
Generated from the CSD

@<TRIPOS>ATOM
     1 Cl1      6.3557   4.3042   4.1665   Cl        1 RES1  -1.0000
     2 Fe1      7.6602   2.7880  11.8752   Fe        2 RES2   2.0000
     3 N1       9.2314   3.3970  10.8532   N.ar      2 RES2   0.0000
     4 N2       7.0149   4.6562  11.9834   N.ar      2 RES2   0.0000
     5 N3       8.4370   3.2152  13.6290   N.ar      2 RES2   0.0000
     6 N4       6.9039   2.5322  10.0784   N.ar      2 RES2   0.0000
     7 N5       8.2859   0.9100  11.8705   N.ar      2 RES2   0.0000
     8 C1       7.4599   5.3051  13.1029   C.ar      2 RES2   0.0000
     9 N6       6.1047   2.0171  12.7749   N.ar      2 RES2   0.0000
    10 C2       8.2178   4.5220  14.0180   C.ar      2 RES2   0.0000
    11 C3       9.0738   3.2393   9.5110   C.ar      2 RES2   0.0000
    12 C4       7.3519   0.0434  12.3814   C.ar      2 RES2   0.0000
    13 C5      10.0850   3.5258   8.5670   C.ar      2 RES2   0.0000
    14 C6       7.7879   2.7852   9.0718   C.ar      2 RES2   0.0000
    15 C7       8.6649   5.0630  15.2152   C.ar      2 RES2   0.0000
    16 C9       6.1837   2.3095   7.3788   C.ar      2 RES2   0.0000
    17 H1       5.9331   2.2273   6.4866   H         2 RES2   0.0000
    18 C10     10.3876   3.8846  11.2803   C.ar      2 RES2   0.0000
    19 H2      10.5118   4.0125  12.1923   H         2 RES2   0.0000
    20 C11      5.8869   6.6782  11.3626   C.ar      2 RES2   0.0000
    21 H3       5.3389   7.1171  10.7525   H         2 RES2   0.0000
    22 C12      6.2456   5.3416  11.1460   C.ar      2 RES2   0.0000
    23 H4       5.9312   4.9143  10.3819   H         2 RES2   0.0000
    24 C13      6.1678   0.6481  12.8786   C.ar      2 RES2   0.0000
    25 C14      7.4943   2.6856   7.7220   C.ar      2 RES2   0.0000
    26 C15      9.4107   0.3689  11.4099   C.ar      2 RES2   0.0000
    27 H5      10.0678   0.9301  11.0667   H         2 RES2   0.0000
    28 C16      9.0778   2.4375  14.4938   C.ar      2 RES2   0.0000
    29 H6       9.2344   1.5490  14.2666   H         2 RES2   0.0000
    30 C17     11.4233   4.2145  10.4033   C.ar      2 RES2   0.0000
    31 H7      12.2110   4.5812  10.7342   H         2 RES2   0.0000
    32 C18      7.1584   6.6449  13.3911   C.ar      2 RES2   0.0000
    33 C19      9.3381   4.2182  16.0892   C.ar      2 RES2   0.0000
    34 H8       9.6582   4.5353  16.9036   H         2 RES2   0.0000
    35 C20      8.5172   2.9573   6.7596   C.ar      2 RES2   0.0000
    36 H9       8.3387   2.8705   5.8506   H         2 RES2   0.0000
    37 C21      9.6473  -1.0206  11.4175   C.ar      2 RES2   0.0000
    38 H11     10.4419  -1.3597  11.0728   H         2 RES2   0.0000
    39 C22      8.7053  -1.8713  11.9330   C.ar      2 RES2   0.0000
    40 H12      8.8550  -2.7903  11.9452   H         2 RES2   0.0000
    41 C23      5.6799   2.1600   9.7047   C.ar      2 RES2   0.0000
    42 H13      5.0579   1.9548  10.3651   H         2 RES2   0.0000
    43 C24      8.3815   6.4522  15.4760   C.ar      2 RES2   0.0000
    44 H14      8.6957   6.8411  16.2585   H         2 RES2   0.0000
    45 C25      5.0273   2.6158  13.2904   C.ar      2 RES2   0.0000
    46 H15      4.9701   3.5421  13.2432   H         2 RES2   0.0000
    47 C26      5.2881   2.0649   8.3733   C.ar      2 RES2   0.0000
    48 H16      4.4114   1.8349   8.1628   H         2 RES2   0.0000
    49 C27      9.5216   2.9077  15.7277   C.ar      2 RES2   0.0000
    50 H18      9.9472   2.3246  16.3134   H         2 RES2   0.0000
    51 C28      4.0217   0.5556  13.9463   C.ar      2 RES2   0.0000
    52 H19      3.3097   0.0855  14.3138   H         2 RES2   0.0000
    53 C29      7.5167  -1.3397  12.4394   C.ar      2 RES2   0.0000
    54 C30      6.3438   7.3378  12.4775   C.ar      2 RES2   0.0000
    55 H20      6.1175   8.2280  12.6255   H         2 RES2   0.0000
    56 C31      5.1415  -0.1395  13.4369   C.ar      2 RES2   0.0000
    57 C32      7.6708   7.2003  14.6113   C.ar      2 RES2   0.0000
    58 H21      7.5090   8.0940  14.8095   H         2 RES2   0.0000
    59 C33     11.2824   3.9966   9.0581   C.ar      2 RES2   0.0000
    60 H22     11.9903   4.1658   8.4800   H         2 RES2   0.0000
    61 C35      9.7811   3.3532   7.1882   C.ar      2 RES2   0.0000
    62 H24     10.4451   3.5091   6.5552   H         2 RES2   0.0000
    63 C36      3.9853   1.9189  13.8975   C.ar      2 RES2   0.0000
    64 H25      3.2684   2.3814  14.2681   H         2 RES2   0.0000
    65 C37      6.4477  -2.1255  12.9930   C.ar      2 RES2   0.0000
    66 H26      6.5399  -3.0501  13.0388   H         2 RES2   0.0000
    67 C43      5.3239  -1.5586  13.4445   C.ar      2 RES2   0.0000
    68 H30      4.6431  -2.1007  13.7709   H         2 RES2   0.0000
    69 C8       8.0524   7.7012   8.9467   C.ar      3 RES3   0.0000
    70 O1       9.8773   7.2687  10.3240   O.3       3 RES3   0.0000
    71 H10     10.2817   7.5435  10.9813   H         3 RES3   0.0000
    72 O2       5.5997   6.7960   5.7088   O.3       3 RES3   0.0000
    73 H17      5.9120   6.1780   5.2695   H         3 RES3   0.0000
    74 C34      6.8898   8.4331   8.6859   C.ar      3 RES3   0.0000
    75 H23      6.6591   9.1391   9.2457   H         3 RES3   0.0000
    76 O3       8.6559   9.0532  10.7769   O.2       3 RES3   0.0000
    77 C38      6.4161   7.0620   6.7611   C.ar      3 RES3   0.0000
    78 C39      7.5788   6.3366   7.0143   C.ar      3 RES3   0.0000
    79 H27      7.8180   5.6334   6.4561   H         3 RES3   0.0000
    80 C40      8.8712   8.0466  10.0784   C.2       3 RES3   0.0000
    81 C41      8.3867   6.6644   8.1063   C.ar      3 RES3   0.0000
    82 H28      9.1607   6.1737   8.2665   H         3 RES3   0.0000
    83 C42      6.0636   8.1246   7.5924   C.ar      3 RES3   0.0000
    84 H29      5.2957   8.6218   7.4246   H         3 RES3   0.0000
    85 O4       8.9655  -0.2757   6.1434   O.3       4 RES4   0.0000
    86 H31      8.1925  -0.3782   6.3966   H         4 RES4   0.0000
    87 O5       9.3563  -0.2105   8.3473   O.2       4 RES4   0.0000
    88 O6      14.9151   1.8758   6.2075   O.3       4 RES4   0.0000
    89 H32     15.0030   2.1599   5.4434   H         4 RES4   0.0000
    90 C44     11.4481   0.8292   5.6050   C.ar      4 RES4   0.0000
    91 H33     10.8281   0.7695   4.9157   H         4 RES4   0.0000
    92 C45     13.6386   1.4122   6.3783   C.ar      4 RES4   0.0000
    93 C46      9.7450  -0.0550   7.1897   C.2       4 RES4   0.0000
    94 C47     11.1087   0.4051   6.8740   C.ar      4 RES4   0.0000
    95 C48     12.7029   1.3430   5.3580   C.ar      4 RES4   0.0000
    96 H34     12.9225   1.6415   4.5054   H         4 RES4   0.0000
    97 C49     12.0269   0.5127   7.8943   C.ar      4 RES4   0.0000
    98 H35     11.7978   0.2389   8.7530   H         4 RES4   0.0000
    99 C50     13.2809   1.0219   7.6503   C.ar      4 RES4   0.0000
   100 H36     13.8909   1.1031   8.3473   H         4 RES4   0.0000
   101 C51     13.8511   1.6430  11.5197   C.ar      5 RES5   0.0000
   102 O7      14.5876   2.4258  10.6839   O.3       5 RES5   0.0000
   103 H37     14.4968   3.2121  10.8959   H         5 RES5   0.0000
   104 C52     11.6357  -0.8826  14.1232   C.2       5 RES5   0.0000
   105 C53     13.1099   2.1754  12.5629   C.ar      5 RES5   0.0000
   106 H38     13.0811   3.0953  12.6895   H         5 RES5   0.0000
   107 C54     12.4188   1.3444  13.4109   C.ar      5 RES5   0.0000
   108 H39     11.9300   1.7102  14.1125   H         5 RES5   0.0000
   109 C55     12.4396  -0.0251  13.2386   C.ar      5 RES5   0.0000
   110 C56     13.1813  -0.5541  12.1893   C.ar      5 RES5   0.0000
   111 H40     13.2172  -1.4756  12.0642   H         5 RES5   0.0000
   112 C57     13.8615   0.2818  11.3352   C.ar      5 RES5   0.0000
   113 H41     14.3362  -0.0801  10.6214   H         5 RES5   0.0000
   114 O8      10.7109  -0.3199  14.7790   O.co2     5 RES5   0.0000
   115 O9      11.8167  -2.1286  14.2208   O.co2     5 RES5  -1.0000
   116 O10     12.6404   5.5722  13.7613   O.3       6 RES6   0.0000
   117 O11     18.6459  10.8866  13.7724   O.3       7 RES7   0.0000
   118 O12     14.8447   4.9229  11.6875   O.3       8 RES8   0.0000
   119 O13      3.6666   2.8338   3.8496   O.3       9 RES9   0.0000
   120 O14     11.8398   7.8746  12.0871   O.3      10 RES10   0.0000
   121 O15      9.2835   9.9340  13.1761   O.3      11 RES11   0.0000
   122 O16     11.2819   8.9597  14.4984   O.3      12 RES12   0.0000
@<TRIPOS>BOND
     1     2     3    1
     2     3    11   ar
     3     4     2    1
     4     5     2    1
     5     6     2    1
     6     7     2    1
     7     8     4   ar
     8     9     2    1
     9    10     5   ar
    10    11    13   ar
    11    12     7   ar
    12    13    59   ar
    13    14     6   ar
    14    15    10   ar
    15    16    17    1
    16    18     3   ar
    17    19    18    1
    18    20    21    1
    19    22     4   ar
    20    23    22    1
    21    24     9   ar
    22    25    14   ar
    23    26     7   ar
    24    27    26    1
    25    28     5   ar
    26    29    28    1
    27    30    18   ar
    28    31    30    1
    29    32     8   ar
    30    33    15   ar
    31    34    33    1
    32    35    25   ar
    33    36    35    1
    34    37    26   ar
    35    38    37    1
    36    39    37   ar
    37    40    39    1
    38    41     6   ar
    39    42    41    1
    40    43    15   ar
    41    44    43    1
    42    45     9   ar
    43    46    45    1
    44    47    16   ar
    45    48    47    1
    46    49    28   ar
    47    50    49    1
    48    51    52    1
    49    53    12   ar
    50    54    20   ar
    51    55    54    1
    52    56    24   ar
    53    57    32   ar
    54    58    57    1
    55    59    30   ar
    56    60    59    1
    57    61    13   ar
    58    62    61    1
    59    63    45   ar
    60    64    63    1
    61    65    53   ar
    62    66    65    1
    63    67    56   ar
    64    68    67    1
    65     8    10   ar
    66    11    14   ar
    67    12    24   ar
    68    16    25   ar
    69    20    22   ar
    70    32    54   ar
    71    33    49   ar
    72    35    61   ar
    73    39    53   ar
    74    41    47   ar
    75    43    57   ar
    76    51    56   ar
    77    51    63   ar
    78    65    67   ar
    79    69    74   ar
    80    70    71    1
    81    72    73    1
    82    74    75    1
    83    76    80    2
    84    77    72    1
    85    78    77   ar
    86    79    78    1
    87    80    69    1
    88    81    69   ar
    89    82    81    1
    90    83    74   ar
    91    84    83    1
    92    70    80    1
    93    77    83   ar
    94    78    81   ar
    95    85    86    1
    96    87    93    2
    97    88    89    1
    98    90    91    1
    99    92    88    1
   100    93    85    1
   101    94    90   ar
   102    95    90   ar
   103    96    95    1
   104    97    94   ar
   105    98    97    1
   106    99    92   ar
   107   100    99    1
   108    92    95   ar
   109    93    94    1
   110    97    99   ar
   111   101   102    1
   112   102   103    1
   113   104   109    1
   114   105   101   ar
   115   106   105    1
   116   107   105   ar
   117   108   107    1
   118   109   107   ar
   119   110   109   ar
   120   111   110    1
   121   112   101   ar
   122   113   112    1
   123   114   104    2
   124   115   104    1
   125   110   112   ar
@<TRIPOS>SUBSTRUCTURE
     1 RES1        1 GROUP             0 ****  ****    0  
     2 RES2        2 GROUP             0 ****  ****    0  
     3 RES3       69 GROUP             0 ****  ****    0  
     4 RES4       85 GROUP             0 ****  ****    0  
     5 RES5      101 GROUP             0 ****  ****    0  
     6 RES6      116 GROUP             0 ****  ****    0  
     7 RES7      117 GROUP             0 ****  ****    0  
     8 RES8      118 GROUP             0 ****  ****    0  
     9 RES9      119 GROUP             0 ****  ****    0  
    10 RES10     120 GROUP             0 ****  ****    0  
    11 RES11     121 GROUP             0 ****  ****    0  
    12 RES12     122 GROUP             0 ****  ****    0  
@<TRIPOS>CRYSIN
   12.0388   15.5286   15.7794   89.7590   75.8180   71.9000     2     1
