@<TRIPOS>MOLECULE
LIFZEI
    97   105     2     0     0
SMALL
USER_CHARGES
****
Generated from the CSD

@<TRIPOS>ATOM
     1 Fe1      1.6650   0.2871  15.6861   Fe        1 RES1   1.0000
     2 Cl1      1.9728   2.1921  16.7959   Cl        1 RES1   0.0000
     3 Cl2      3.7206  -0.6525  15.9359   Cl        1 RES1   0.0000
     4 N1      -2.2902   1.6755  15.0230   N.pl3     1 RES1   0.0000
     5 N2       2.0042   0.9230  13.6808   N.ar      1 RES1   0.0000
     6 N3      -1.1183   1.8261  15.6547   N.2       1 RES1   0.0000
     7 N4       0.9615  -1.4344  14.3855   N.3       1 RES1   0.0000
     8 N5       0.8150  -1.0960  17.0719   N.ar      1 RES1   0.0000
     9 C1      -1.0719  -0.0115  14.4473   C.2       1 RES1   0.0000
    10 C2      -2.2997   0.5571  14.2604   C.2       1 RES1   0.0000
    11 H1      -3.0069   0.2374  13.7126   H         1 RES1   0.0000
    12 N6      -0.3791   0.7923  15.2932   N.2       1 RES1   0.0000
    13 C3      -3.3909   2.6658  15.2635   C.3       1 RES1   0.0000
    14 C4       2.1655   2.2081  13.3089   C.ar      1 RES1   0.0000
    15 H2       2.0815   2.8879  13.9670   H         1 RES1   0.0000
    16 C5       0.5658  -2.3459  16.6190   C.ar      1 RES1   0.0000
    17 C6      -0.4491  -2.9437  18.6973   C.ar      1 RES1   0.0000
    18 H3      -0.8836  -3.5768  19.2554   H         1 RES1   0.0000
    19 C7       1.9125  -1.4504  13.2432   C.3       1 RES1   0.0000
    20 H4       1.5617  -2.0281  12.5190   H         1 RES1   0.0000
    21 H5       2.7856  -1.8131  13.5364   H         1 RES1   0.0000
    22 C8       0.4427  -0.7592  18.3175   C.ar      1 RES1   0.0000
    23 H6       0.6159   0.1213  18.6305   H         1 RES1   0.0000
    24 C9       1.0783  -2.6431  15.2328   C.3       1 RES1   0.0000
    25 H7       2.0252  -2.9267  15.2804   H         1 RES1   0.0000
    26 H8       0.5543  -3.3824  14.8335   H         1 RES1   0.0000
    27 C10      2.3512   0.2603  11.4128   C.ar      1 RES1   0.0000
    28 H9       2.3915  -0.4299  10.7604   H         1 RES1   0.0000
    29 C11      2.0825  -0.0428  12.7398   C.ar      1 RES1   0.0000
    30 C12     -0.4430  -1.2502  13.8892   C.3       1 RES1   0.0000
    31 H10     -0.4353  -1.1961  12.9005   H         1 RES1   0.0000
    32 H11     -0.9865  -2.0367  14.1468   H         1 RES1   0.0000
    33 C13     -0.0683  -3.2862  17.4096   C.ar      1 RES1   0.0000
    34 H12     -0.2408  -4.1580  17.0735   H         1 RES1   0.0000
    35 C14      2.5595   1.5788  11.0506   C.ar      1 RES1   0.0000
    36 H13      2.7764   1.8009  10.1537   H         1 RES1   0.0000
    37 C15     -0.1860  -1.6605  19.1579   C.ar      1 RES1   0.0000
    38 H14     -0.4345  -1.4048  20.0384   H         1 RES1   0.0000
    39 C16     -3.8608   2.4877  16.7031   C.3       1 RES1   0.0000
    40 H15     -4.1592   1.5640  16.8374   H         1 RES1   0.0000
    41 H16     -4.6042   3.0996  16.8828   H         1 RES1   0.0000
    42 H17     -3.1211   2.6845  17.3152   H         1 RES1   0.0000
    43 C17      2.4481   2.5748  12.0116   C.ar      1 RES1   0.0000
    44 H18      2.5645   3.4882  11.7796   H         1 RES1   0.0000
    45 C18     -2.8309   4.0561  15.0067   C.3       1 RES1   0.0000
    46 H19     -2.0808   4.2244  15.6147   H         1 RES1   0.0000
    47 H20     -3.5321   4.7241  15.1605   H         1 RES1   0.0000
    48 H21     -2.5198   4.1166  14.0796   H         1 RES1   0.0000
    49 C19     -4.5177   2.3643  14.2889   C.3       1 RES1   0.0000
    50 H22     -4.1768   2.4090  13.3711   H         1 RES1   0.0000
    51 H23     -5.2342   3.0237  14.4030   H         1 RES1   0.0000
    52 H24     -4.8694   1.4670  14.4629   H         1 RES1   0.0000
    53 C20      3.4420   5.6389  14.2531   C.ar      2 RES2   0.0000
    54 H25      3.2930   4.8712  13.7126   H         2 RES2   0.0000
    55 C21      5.8020   4.3073  10.9287   C.ar      2 RES2   0.0000
    56 H26      6.6219   3.9599  11.2582   H         2 RES2   0.0000
    57 C22      3.6237   7.9800  14.5083   C.ar      2 RES2   0.0000
    58 H27      3.5781   8.8622  14.1577   H         2 RES2   0.0000
    59 C23      3.7052   8.5565  11.5198   C.ar      2 RES2   0.0000
    60 C24      4.6176  11.1140  10.6400   C.ar      2 RES2   0.0000
    61 H28      4.9195  11.9618  10.3371   H         2 RES2   0.0000
    62 C25     -0.6574   5.9024  12.0487   C.ar      2 RES2   0.0000
    63 H29     -1.2101   5.3459  12.5844   H         2 RES2   0.0000
    64 C26      3.4163   6.9043  13.6354   C.ar      2 RES2   0.0000
    65 C27      4.0772   4.3381   9.2849   C.ar      2 RES2   0.0000
    66 H30      3.6995   4.0148   8.4750   H         2 RES2   0.0000
    67 C28      3.9396   5.8890  11.1921   C.ar      2 RES2   0.0000
    68 C29      4.9725   8.7451  10.9512   C.ar      2 RES2   0.0000
    69 H31      5.5434   7.9927  10.8476   H         2 RES2   0.0000
    70 C30      2.9252   9.7262  11.6430   C.ar      2 RES2   0.0000
    71 H32      2.0674   9.6608  12.0449   H         2 RES2   0.0000
    72 C31     -0.3455   7.2857  10.1302   C.ar      2 RES2   0.0000
    73 H33     -0.6790   7.6922   9.3379   H         2 RES2   0.0000
    74 C32      3.3624  10.9758  11.1975   C.ar      2 RES2   0.0000
    75 H34      2.7942  11.7332  11.2782   H         2 RES2   0.0000
    76 C33      1.5389   6.9338  11.6830   C.ar      2 RES2   0.0000
    77 C34      5.1517   5.3327  11.6208   C.ar      2 RES2   0.0000
    78 H35      5.5490   5.6664  12.4173   H         2 RES2   0.0000
    79 C35      5.2543   3.7947   9.7611   C.ar      2 RES2   0.0000
    80 H36      5.6815   3.0832   9.2980   H         2 RES2   0.0000
    81 C36     -1.1730   6.4724  10.8949   C.ar      2 RES2   0.0000
    82 H37     -2.0719   6.3100  10.6333   H         2 RES2   0.0000
    83 C37      3.4413   5.3608   9.9903   C.ar      2 RES2   0.0000
    84 H38      2.6330   5.7167   9.6413   H         2 RES2   0.0000
    85 C38      0.9721   7.5057  10.5244   C.ar      2 RES2   0.0000
    86 H39      1.5158   8.0687   9.9865   H         2 RES2   0.0000
    87 C39      3.6744   5.4540  15.6118   C.ar      2 RES2   0.0000
    88 H40      3.6615   4.5794  15.9817   H         2 RES2   0.0000
    89 C40      3.9252   6.5490  16.4250   C.ar      2 RES2   0.0000
    90 H41      4.1146   6.4311  17.3479   H         2 RES2   0.0000
    91 C41      0.6619   6.1351  12.4322   C.ar      2 RES2   0.0000
    92 H42      0.9809   5.7374  13.2330   H         2 RES2   0.0000
    93 C42      5.4294   9.9993  10.5294   C.ar      2 RES2   0.0000
    94 H43      6.3029  10.0856  10.1646   H         2 RES2   0.0000
    95 C43      3.8945   7.8178  15.8694   C.ar      2 RES2   0.0000
    96 H44      4.0581   8.5782  16.4141   H         2 RES2   0.0000
    97 B1       3.1491   7.0864  12.0209   B         2 RES2  -1.0000
@<TRIPOS>BOND
     1     1     2    1
     2     3     1    1
     3     4     6    1
     4     5     1    1
     5     6    12    2
     6     7     1    1
     7     8     1    1
     8     9    10    2
     9    10     4    1
    10    11    10    1
    11    12     1    1
    12    13     4    1
    13    14     5   ar
    14    15    14    1
    15    16     8   ar
    16    17    18    1
    17    19     7    1
    18    20    19    1
    19    21    19    1
    20    22     8   ar
    21    23    22    1
    22    24     7    1
    23    25    24    1
    24    26    24    1
    25    27    28    1
    26    29     5   ar
    27    30     7    1
    28    31    30    1
    29    32    30    1
    30    33    16   ar
    31    34    33    1
    32    35    27   ar
    33    36    35    1
    34    37    17   ar
    35    38    37    1
    36    39    13    1
    37    40    39    1
    38    41    39    1
    39    42    39    1
    40    43    14   ar
    41    44    43    1
    42    45    13    1
    43    46    45    1
    44    47    45    1
    45    48    45    1
    46    49    13    1
    47    50    49    1
    48    51    49    1
    49    52    49    1
    50     9    12    1
    51     9    30    1
    52    16    24    1
    53    17    33   ar
    54    19    29    1
    55    22    37   ar
    56    27    29   ar
    57    35    43   ar
    58    53    54    1
    59    55    56    1
    60    57    58    1
    61    59    68   ar
    62    60    61    1
    63    62    63    1
    64    64    53   ar
    65    65    66    1
    66    67    77   ar
    67    68    69    1
    68    70    59   ar
    69    71    70    1
    70    72    73    1
    71    74    60   ar
    72    75    74    1
    73    76    85   ar
    74    77    55   ar
    75    78    77    1
    76    79    55   ar
    77    80    79    1
    78    81    62   ar
    79    82    81    1
    80    83    65   ar
    81    84    83    1
    82    85    72   ar
    83    86    85    1
    84    87    53   ar
    85    88    87    1
    86    89    87   ar
    87    90    89    1
    88    91    62   ar
    89    92    91    1
    90    93    60   ar
    91    94    93    1
    92    95    57   ar
    93    96    95    1
    94    97    59    1
    95    57    64   ar
    96    64    97    1
    97    65    79   ar
    98    67    83   ar
    99    67    97    1
   100    68    93   ar
   101    70    74   ar
   102    72    81   ar
   103    76    91   ar
   104    76    97    1
   105    89    95   ar
@<TRIPOS>SUBSTRUCTURE
     1 RES1        1 GROUP             0 ****  ****    0  
     2 RES2       53 GROUP             0 ****  ****    0  
@<TRIPOS>CRYSIN
   10.0317   11.0755   18.8240   97.5900  100.7430  104.3190     2     1
