@<TRIPOS>MOLECULE
LIFZUY
    85    94     1     0     0
SMALL
NO_CHARGES
****
Generated from the CSD

@<TRIPOS>ATOM
     1 Fe1      6.2270   5.8334   5.3959   Fe        1 RES1   0.0000
     2 C1       6.2249   7.9916   7.7854   C.ar      1 RES1   0.0000
     3 H1       5.3752   8.2647   7.4593   H         1 RES1   0.0000
     4 C2       6.7138   8.5508   8.9530   C.ar      1 RES1   0.0000
     5 H2       6.2210   9.2088   9.4289   H         1 RES1   0.0000
     6 C3       7.9447   8.1156   9.4005   C.ar      1 RES1   0.0000
     7 H3       8.2956   8.4857  10.2026   H         1 RES1   0.0000
     8 C4       8.1145   6.7230   7.6344   C.ar      1 RES1   0.0000
     9 C5       8.8121   5.7124   6.8266   C.2       1 RES1   0.0000
    10 C6      10.1098   4.1594   6.0302   C.2       1 RES1   0.0000
    11 C7      11.1667   3.1577   5.8028   C.ar      1 RES1   0.0000
    12 C8      11.1967   2.5691   4.5353   C.ar      1 RES1   0.0000
    13 H4      10.5697   2.8416   3.8754   H         1 RES1   0.0000
    14 C9      12.1304   1.5927   4.2323   C.ar      1 RES1   0.0000
    15 H5      12.1417   1.2015   3.3660   H         1 RES1   0.0000
    16 C10     13.0488   1.1824   5.1878   C.ar      1 RES1   0.0000
    17 H6      13.6839   0.5057   4.9837   H         1 RES1   0.0000
    18 C11     13.0311   1.7675   6.4393   C.ar      1 RES1   0.0000
    19 H7      13.6622   1.4922   7.0946   H         1 RES1   0.0000
    20 C12     12.1031   2.7532   6.7536   C.ar      1 RES1   0.0000
    21 H8      12.1062   3.1516   7.6158   H         1 RES1   0.0000
    22 C13     10.6479   4.9489   8.3800   C.ar      1 RES1   0.0000
    23 C14     10.2182   4.0714   9.3590   C.ar      1 RES1   0.0000
    24 H9       9.4338   3.5511   9.2314   H         1 RES1   0.0000
    25 C15     10.9532   3.9657  10.5305   C.ar      1 RES1   0.0000
    26 H10     10.6759   3.3547  11.2030   H         1 RES1   0.0000
    27 C16     12.0933   4.7424  10.7357   C.ar      1 RES1   0.0000
    28 C17     12.4839   5.6314   9.7351   C.ar      1 RES1   0.0000
    29 H11     13.2521   6.1744   9.8681   H         1 RES1   0.0000
    30 C18     11.7722   5.7383   8.5504   C.ar      1 RES1   0.0000
    31 H12     12.0500   6.3409   7.8705   H         1 RES1   0.0000
    32 C19     12.9045   4.6098  11.9938   C.3       1 RES1   0.0000
    33 H13     12.3519   4.2136  12.6988   H         1 RES1   0.0000
    34 H14     13.2133   5.4960  12.2790   H         1 RES1   0.0000
    35 H15     13.6788   4.0339  11.8236   H         1 RES1   0.0000
    36 N1       6.9210   7.0784   7.1091   N.ar      1 RES1   0.0000
    37 N2       8.6670   7.1899   8.7477   N.ar      1 RES1   0.0000
    38 N3       8.3462   5.3619   5.6498   N.2       1 RES1   0.0000
    39 N4       9.1568   4.3856   5.1419   N.2       1 RES1   0.0000
    40 N5       9.9284   4.9808   7.1237   N.pl3     1 RES1   0.0000
    41 C20      6.3035   7.7929   2.8848   C.1       1 RES1   0.0000
    42 N6       6.5225   7.2683   3.9032   N.2       1 RES1   0.0000
    43 S1       5.9931   8.5423   1.4673   S.2       1 RES1   0.0000
    44 C1A      6.2291   3.6753   3.0065   C.ar      1 RES1   0.0000
    45 H1A      7.0788   3.4021   3.3325   H         1 RES1   0.0000
    46 C2A      5.7401   3.1160   1.8388   C.ar      1 RES1   0.0000
    47 H2A      6.2330   2.4580   1.3630   H         1 RES1   0.0000
    48 C3A      4.5092   3.5512   1.3914   C.ar      1 RES1   0.0000
    49 H3A      4.1583   3.1811   0.5892   H         1 RES1   0.0000
    50 C4A      4.3394   4.9438   3.1575   C.ar      1 RES1   0.0000
    51 C5A      3.6418   5.9544   3.9653   C.2       1 RES1   0.0000
    52 C6A      2.3441   7.5074   4.7617   C.2       1 RES1   0.0000
    53 C7A      1.2872   8.5091   4.9891   C.ar      1 RES1   0.0000
    54 C8A      1.2573   9.0978   6.2566   C.ar      1 RES1   0.0000
    55 H4A      1.8842   8.8252   6.9165   H         1 RES1   0.0000
    56 C9A      0.3235  10.0741   6.5596   C.ar      1 RES1   0.0000
    57 H5A      0.3122  10.4653   7.4259   H         1 RES1   0.0000
    58 C10A    -0.5949  10.4844   5.6041   C.ar      1 RES1   0.0000
    59 H6A     -1.2300  11.1611   5.8082   H         1 RES1   0.0000
    60 C11A    -0.5772   9.8993   4.3526   C.ar      1 RES1   0.0000
    61 H7A     -1.2083  10.1746   3.6973   H         1 RES1   0.0000
    62 C12A     0.3508   8.9136   4.0383   C.ar      1 RES1   0.0000
    63 H8A      0.3478   8.5153   3.1760   H         1 RES1   0.0000
    64 C13A     1.8061   6.7180   2.4119   C.ar      1 RES1   0.0000
    65 C14A     2.2357   7.5954   1.4328   C.ar      1 RES1   0.0000
    66 H9A      3.0201   8.1158   1.5605   H         1 RES1   0.0000
    67 C15A     1.5007   7.7012   0.2614   C.ar      1 RES1   0.0000
    68 H10A     1.7781   8.3121  -0.4112   H         1 RES1   0.0000
    69 C16A     0.3606   6.9245   0.0562   C.ar      1 RES1   0.0000
    70 C17A    -0.0299   6.0354   1.0567   C.ar      1 RES1   0.0000
    71 H11A    -0.7981   5.4924   0.9238   H         1 RES1   0.0000
    72 C18A     0.6817   5.9285   2.2415   C.ar      1 RES1   0.0000
    73 H12A     0.4040   5.3260   2.9214   H         1 RES1   0.0000
    74 C19A    -0.4506   7.0570  -1.2019   C.3       1 RES1   0.0000
    75 H13A     0.1020   7.4532  -1.9069   H         1 RES1   0.0000
    76 H14A    -0.7594   6.1708  -1.4871   H         1 RES1   0.0000
    77 H15A    -1.2248   7.6330  -1.0317   H         1 RES1   0.0000
    78 N1A      5.5330   4.5884   3.6827   N.ar      1 RES1   0.0000
    79 N2A      3.7869   4.4770   2.0442   N.ar      1 RES1   0.0000
    80 N3A      4.1077   6.3049   5.1421   N.2       1 RES1   0.0000
    81 N4A      3.2972   7.2812   5.6500   N.2       1 RES1   0.0000
    82 N5A      2.5255   6.6860   3.6682   N.pl3     1 RES1   0.0000
    83 C20A     6.1504   3.8740   7.9071   C.1       1 RES1   0.0000
    84 N6A      5.9315   4.3985   6.8887   N.2       1 RES1   0.0000
    85 S1A      6.4608   3.1245   9.3246   S.2       1 RES1   0.0000
@<TRIPOS>BOND
     1     1    36    1
     2     2     3    1
     3     4     2   ar
     4     5     4    1
     5     6     4   ar
     6     7     6    1
     7     8     9    1
     8     9    38    2
     9    10    11    1
    10    11    12   ar
    11    12    13    1
    12    14    12   ar
    13    15    14    1
    14    16    14   ar
    15    17    16    1
    16    18    16   ar
    17    19    18    1
    18    20    11   ar
    19    21    20    1
    20    22    23   ar
    21    23    24    1
    22    25    23   ar
    23    26    25    1
    24    27    25   ar
    25    28    27   ar
    26    29    28    1
    27    30    22   ar
    28    31    30    1
    29    32    27    1
    30    33    32    1
    31    34    32    1
    32    35    32    1
    33    36     2   ar
    34    37     6   ar
    35    38     1    1
    36    39    10    2
    37    40     9    1
    38    41    42    2
    39    42     1    1
    40    43    41    2
    41    44    45    1
    42    46    44   ar
    43    47    46    1
    44    48    46   ar
    45    49    48    1
    46    50    51    1
    47    51    80    2
    48    52    53    1
    49    53    54   ar
    50    54    55    1
    51    56    54   ar
    52    57    56    1
    53    58    56   ar
    54    59    58    1
    55    60    58   ar
    56    61    60    1
    57    62    53   ar
    58    63    62    1
    59    64    65   ar
    60    65    66    1
    61    67    65   ar
    62    68    67    1
    63    69    67   ar
    64    70    69   ar
    65    71    70    1
    66    72    64   ar
    67    73    72    1
    68    74    69    1
    69    75    74    1
    70    76    74    1
    71    77    74    1
    72    78     1    1
    73    79    48   ar
    74    80     1    1
    75    81    52    2
    76    82    51    1
    77    83    84    2
    78    84     1    1
    79    85    83    2
    80     8    36   ar
    81     8    37   ar
    82    10    40    1
    83    18    20   ar
    84    22    40    1
    85    28    30   ar
    86    38    39    1
    87    44    78   ar
    88    50    78   ar
    89    50    79   ar
    90    52    82    1
    91    60    62   ar
    92    64    82    1
    93    70    72   ar
    94    80    81    1
@<TRIPOS>SUBSTRUCTURE
     1 RES1        1 GROUP             0 ****  ****    0  
@<TRIPOS>CRYSIN
    8.9726    9.2240   11.4261   76.5410   75.6580   85.9530     2     1
