@<TRIPOS>MOLECULE
LIGBIP
    85    94     1     0     0
SMALL
NO_CHARGES
****
Generated from the CSD

@<TRIPOS>ATOM
     1 Fe1      9.9228   9.3116   0.0000   Fe        1 RES1   0.0000
     2 N1       9.2371   8.1034  -1.7120   N.ar      1 RES1   0.0000
     3 N2       9.5867   6.5498  -3.4907   N.ar      1 RES1   0.0000
     4 N3       7.8219   9.8053  -0.2686   N.2       1 RES1   0.0000
     5 N4       7.0229  10.7870   0.2588   N.2       1 RES1   0.0000
     6 N5       6.2358  10.2122  -1.7251   N.pl3     1 RES1   0.0000
     7 C1       9.9648   7.1785  -2.3464   C.ar      1 RES1   0.0000
     8 H1      10.8048   6.9437  -1.9708   H         1 RES1   0.0000
     9 C2       8.3791   6.9065  -4.0246   C.ar      1 RES1   0.0000
    10 H2       8.0773   6.4827  -4.8206   H         1 RES1   0.0000
    11 C3       7.5849   7.8779  -3.4263   C.ar      1 RES1   0.0000
    12 H3       6.7541   8.1365  -3.8073   H         1 RES1   0.0000
    13 C4       8.0431   8.4537  -2.2612   C.ar      1 RES1   0.0000
    14 C5       7.3492   9.4714  -1.4423   C.2       1 RES1   0.0000
    15 C6       6.0655  11.0305  -0.6256   C.2       1 RES1   0.0000
    16 C7       5.0312  12.0511  -0.3920   C.ar      1 RES1   0.0000
    17 C8       5.0043  12.6409   0.8680   C.ar      1 RES1   0.0000
    18 H4       5.6275  12.3584   1.5275   H         1 RES1   0.0000
    19 C9       4.0921  13.6276   1.1792   C.ar      1 RES1   0.0000
    20 H5       4.0891  14.0203   2.0451   H         1 RES1   0.0000
    21 C10      3.1793  14.0436   0.2206   C.ar      1 RES1   0.0000
    22 H6       2.5506  14.7267   0.4247   H         1 RES1   0.0000
    23 C11      3.1877  13.4648  -1.0242   C.ar      1 RES1   0.0000
    24 H7       2.5594  13.7510  -1.6760   H         1 RES1   0.0000
    25 C12      4.1003  12.4710  -1.3419   C.ar      1 RES1   0.0000
    26 H8       4.0905  12.0748  -2.2067   H         1 RES1   0.0000
    27 C13      5.5131  10.2420  -2.9797   C.ar      1 RES1   0.0000
    28 C14      4.3713   9.4776  -3.1336   C.ar      1 RES1   0.0000
    29 H9       4.0640   8.9188  -2.4294   H         1 RES1   0.0000
    30 C15      3.6857   9.5430  -4.3358   C.ar      1 RES1   0.0000
    31 H10      2.9036   9.0175  -4.4559   H         1 RES1   0.0000
    32 C16      4.1224  10.3643  -5.3687   C.ar      1 RES1   0.0000
    33 C17      5.2682  11.1191  -5.1765   C.ar      1 RES1   0.0000
    34 H11      5.5725  11.6901  -5.8720   H         1 RES1   0.0000
    35 C18      5.9794  11.0594  -3.9897   C.ar      1 RES1   0.0000
    36 H12      6.7718  11.5701  -3.8728   H         1 RES1   0.0000
    37 C19      3.3582  10.4405  -6.6636   C.3       1 RES1   0.0000
    38 H13      2.4840  10.8526  -6.5031   H         1 RES1   0.0000
    39 H14      3.2326   9.5368  -7.0218   H         1 RES1   0.0000
    40 H15      3.8605  10.9808  -7.3078   H         1 RES1   0.0000
    41 Se1      9.7637  12.0627  -4.0737   Se        1 RES1   0.0000
    42 C20     10.0848  11.2751  -2.4949   C.1       1 RES1   0.0000
    43 N6      10.2810  10.7639  -1.4740   N.2       1 RES1   0.0000
    44 N1A     10.6086  10.5199   1.7120   N.ar      1 RES1   0.0000
    45 N2A     10.2589  12.0735   3.4907   N.ar      1 RES1   0.0000
    46 N3A     12.0237   8.8180   0.2686   N.2       1 RES1   0.0000
    47 N4A     12.8227   7.8363  -0.2588   N.2       1 RES1   0.0000
    48 N5A     13.6098   8.4111   1.7251   N.pl3     1 RES1   0.0000
    49 C1A      9.8808  11.4448   2.3464   C.ar      1 RES1   0.0000
    50 H1A      9.0409  11.6796   1.9708   H         1 RES1   0.0000
    51 C2A     11.4665  11.7168   4.0246   C.ar      1 RES1   0.0000
    52 H2A     11.7683  12.1405   4.8206   H         1 RES1   0.0000
    53 C3A     12.2607  10.7454   3.4263   C.ar      1 RES1   0.0000
    54 H3A     13.0916  10.4868   3.8073   H         1 RES1   0.0000
    55 C4A     11.8025  10.1696   2.2612   C.ar      1 RES1   0.0000
    56 C5A     12.4964   9.1519   1.4423   C.2       1 RES1   0.0000
    57 C6A     13.7801   7.5928   0.6256   C.2       1 RES1   0.0000
    58 C7A     14.8144   6.5722   0.3920   C.ar      1 RES1   0.0000
    59 C8A     14.8414   5.9824  -0.8680   C.ar      1 RES1   0.0000
    60 H4A     14.2181   6.2649  -1.5275   H         1 RES1   0.0000
    61 C9A     15.7535   4.9957  -1.1792   C.ar      1 RES1   0.0000
    62 H5A     15.7565   4.6030  -2.0451   H         1 RES1   0.0000
    63 C10A    16.6664   4.5797  -0.2206   C.ar      1 RES1   0.0000
    64 H6A     17.2950   3.8966  -0.4247   H         1 RES1   0.0000
    65 C11A    16.6580   5.1584   1.0242   C.ar      1 RES1   0.0000
    66 H7A     17.2862   4.8723   1.6760   H         1 RES1   0.0000
    67 C12A    15.7454   6.1523   1.3419   C.ar      1 RES1   0.0000
    68 H8A     15.7551   6.5485   2.2067   H         1 RES1   0.0000
    69 C13A    14.3325   8.3813   2.9797   C.ar      1 RES1   0.0000
    70 C14A    15.4744   9.1457   3.1336   C.ar      1 RES1   0.0000
    71 H9A     15.7816   9.7044   2.4294   H         1 RES1   0.0000
    72 C15A    16.1599   9.0803   4.3358   C.ar      1 RES1   0.0000
    73 H10A    16.9420   9.6058   4.4559   H         1 RES1   0.0000
    74 C16A    15.7233   8.2590   5.3687   C.ar      1 RES1   0.0000
    75 C17A    14.5775   7.5042   5.1765   C.ar      1 RES1   0.0000
    76 H11A    14.2731   6.9332   5.8720   H         1 RES1   0.0000
    77 C18A    13.8663   7.5639   3.9897   C.ar      1 RES1   0.0000
    78 H12A    13.0738   7.0532   3.8728   H         1 RES1   0.0000
    79 C19A    16.4874   8.1828   6.6636   C.3       1 RES1   0.0000
    80 H13A    17.3616   7.7707   6.5031   H         1 RES1   0.0000
    81 H14A    16.6130   9.0865   7.0218   H         1 RES1   0.0000
    82 H15A    15.9852   7.6425   7.3078   H         1 RES1   0.0000
    83 Se1A    10.0820   6.5606   4.0737   Se        1 RES1   0.0000
    84 C20A     9.7608   7.3482   2.4949   C.1       1 RES1   0.0000
    85 N6A      9.5646   7.8594   1.4740   N.2       1 RES1   0.0000
@<TRIPOS>BOND
     1     1     2    1
     2     2     7   ar
     3     3     7   ar
     4     4     1    1
     5     5     4    1
     6     6    14    1
     7     7     8    1
     8     9     3   ar
     9    10     9    1
    10    11     9   ar
    11    12    11    1
    12    13     2   ar
    13    14     4    2
    14    15     5    2
    15    16    15    1
    16    17    16   ar
    17    18    17    1
    18    19    17   ar
    19    20    19    1
    20    21    19   ar
    21    22    21    1
    22    23    21   ar
    23    24    23    1
    24    25    16   ar
    25    26    25    1
    26    27     6    1
    27    28    27   ar
    28    29    28    1
    29    30    28   ar
    30    31    30    1
    31    32    30   ar
    32    33    32   ar
    33    34    33    1
    34    35    27   ar
    35    36    35    1
    36    37    32    1
    37    38    37    1
    38    39    37    1
    39    40    37    1
    40    41    42    2
    41    42    43    2
    42    43     1    1
    43    44     1    1
    44    45    49   ar
    45    46     1    1
    46    47    46    1
    47    48    56    1
    48    49    44   ar
    49    50    49    1
    50    51    45   ar
    51    52    51    1
    52    53    51   ar
    53    54    53    1
    54    55    44   ar
    55    56    46    2
    56    57    47    2
    57    58    57    1
    58    59    58   ar
    59    60    59    1
    60    61    59   ar
    61    62    61    1
    62    63    61   ar
    63    64    63    1
    64    65    63   ar
    65    66    65    1
    66    67    58   ar
    67    68    67    1
    68    69    48    1
    69    70    69   ar
    70    71    70    1
    71    72    70   ar
    72    73    72    1
    73    74    72   ar
    74    75    74   ar
    75    76    75    1
    76    77    69   ar
    77    78    77    1
    78    79    74    1
    79    80    79    1
    80    81    79    1
    81    82    79    1
    82    83    84    2
    83    84    85    2
    84    85     1    1
    85     6    15    1
    86    11    13   ar
    87    13    14    1
    88    23    25   ar
    89    33    35   ar
    90    48    57    1
    91    53    55   ar
    92    55    56    1
    93    65    67   ar
    94    75    77   ar
@<TRIPOS>SUBSTRUCTURE
     1 RES1        1 GROUP             0 ****  ****    0  
@<TRIPOS>CRYSIN
    9.0098    9.3563   11.5968   75.8040   75.2910   84.4000     2     1
