@<TRIPOS>MOLECULE
LIGBEL
    85    94     1     0     0
SMALL
NO_CHARGES
****
Generated from the CSD

@<TRIPOS>ATOM
     1 Fe1      4.0176   3.7485  12.4980   Fe        1 RES1   0.0000
     2 N1       2.2530   4.9572  11.8492   N.ar      1 RES1   0.0000
     3 N2       0.7740   6.8193  12.0441   N.ar      1 RES1   0.0000
     4 N3       2.9993   2.5422  11.0275   N.2       1 RES1   0.0000
     5 N4       3.2385   1.3405  10.4261   N.2       1 RES1   0.0000
     6 N5       1.2453   2.0719   9.7995   N.pl3     1 RES1   0.0000
     7 C1       1.9372   6.1858  12.2548   C.ar      1 RES1   0.0000
     8 H1       2.6009   6.6603  12.7405   H         1 RES1   0.0000
     9 C2      -0.1372   6.1318  11.3467   C.ar      1 RES1   0.0000
    10 H2      -0.9823   6.5344  11.1883   H         1 RES1   0.0000
    11 C3       0.0920   4.8558  10.8436   C.ar      1 RES1   0.0000
    12 H3      -0.5685   4.3925  10.3409   H         1 RES1   0.0000
    13 C4       1.3272   4.2935  11.1090   C.ar      1 RES1   0.0000
    14 C5       1.8126   2.9771  10.6563   C.2       1 RES1   0.0000
    15 C6       2.1795   1.0631   9.6802   C.2       1 RES1   0.0000
    16 C7       2.0952  -0.1582   8.8649   C.ar      1 RES1   0.0000
    17 C8       3.2955  -0.8569   8.6691   C.ar      1 RES1   0.0000
    18 H4       4.1026  -0.5203   9.0386   H         1 RES1   0.0000
    19 C9       3.3128  -2.0324   7.9398   C.ar      1 RES1   0.0000
    20 H5       4.1281  -2.5040   7.8213   H         1 RES1   0.0000
    21 C10      2.1411  -2.5265   7.3808   C.ar      1 RES1   0.0000
    22 H6       2.1569  -3.3242   6.8664   H         1 RES1   0.0000
    23 C11      0.9501  -1.8495   7.5788   C.ar      1 RES1   0.0000
    24 H7       0.1476  -2.1906   7.2014   H         1 RES1   0.0000
    25 C12      0.9147  -0.6792   8.3220   C.ar      1 RES1   0.0000
    26 H8       0.0891  -0.2309   8.4637   H         1 RES1   0.0000
    27 C13     -0.0738   2.1276   9.2053   C.ar      1 RES1   0.0000
    28 C14     -0.2080   2.3998   7.8585   C.ar      1 RES1   0.0000
    29 H9       0.5563   2.5767   7.3239   H         1 RES1   0.0000
    30 C15     -1.4809   2.4110   7.2996   C.ar      1 RES1   0.0000
    31 H10     -1.5828   2.5887   6.3715   H         1 RES1   0.0000
    32 C16     -2.6087   2.1651   8.0777   C.ar      1 RES1   0.0000
    33 C17     -2.4408   1.8840   9.4233   C.ar      1 RES1   0.0000
    34 H11     -3.2022   1.7078   9.9634   H         1 RES1   0.0000
    35 C18     -1.1762   1.8563   9.9957   C.ar      1 RES1   0.0000
    36 H12     -1.0691   1.6531  10.9183   H         1 RES1   0.0000
    37 C19     -3.9873   2.1876   7.4643   C.3       1 RES1   0.0000
    38 H13     -3.9174   2.4028   6.5115   H         1 RES1   0.0000
    39 H14     -4.4064   1.3090   7.5713   H         1 RES1   0.0000
    40 H15     -4.5338   2.8669   7.9138   H         1 RES1   0.0000
    41 N6       2.7774   2.9208  13.9771   N.2       1 RES1   0.0000
    42 C20      2.1165   2.4320  14.8064   C.1       1 RES1   0.0000
    43 S1       1.2124   1.7464  15.9855   S.2       1 RES1   0.0000
    44 N1B      5.7823   2.5398  13.1469   N.ar      1 RES1   0.0000
    45 N2B      7.2613   0.6777  12.9520   N.ar      1 RES1   0.0000
    46 N3B      5.0360   4.9548  13.9686   N.2       1 RES1   0.0000
    47 N4B      4.7968   6.1565  14.5700   N.2       1 RES1   0.0000
    48 N5B      6.7900   5.4251  15.1966   N.pl3     1 RES1   0.0000
    49 C1B      6.0981   1.3112  12.7413   C.ar      1 RES1   0.0000
    50 H1B      5.4343   0.8367  12.2556   H         1 RES1   0.0000
    51 C2B      8.1725   1.3652  13.6494   C.ar      1 RES1   0.0000
    52 H2B      9.0176   0.9626  13.8078   H         1 RES1   0.0000
    53 C3B      7.9433   2.6412  14.1525   C.ar      1 RES1   0.0000
    54 H3B      8.6038   3.1045  14.6552   H         1 RES1   0.0000
    55 C4B      6.7081   3.2035  13.8871   C.ar      1 RES1   0.0000
    56 C5B      6.2227   4.5199  14.3398   C.2       1 RES1   0.0000
    57 C6B      5.8558   6.4339  15.3159   C.2       1 RES1   0.0000
    58 C7B      5.9401   7.6552  16.1312   C.ar      1 RES1   0.0000
    59 C8B      4.7398   8.3539  16.3270   C.ar      1 RES1   0.0000
    60 H4B      3.9327   8.0173  15.9575   H         1 RES1   0.0000
    61 C9B      4.7225   9.5294  17.0563   C.ar      1 RES1   0.0000
    62 H5B      3.9072  10.0010  17.1748   H         1 RES1   0.0000
    63 C10B     5.8942  10.0235  17.6153   C.ar      1 RES1   0.0000
    64 H6B      5.8784  10.8212  18.1297   H         1 RES1   0.0000
    65 C11B     7.0852   9.3465  17.4173   C.ar      1 RES1   0.0000
    66 H7B      7.8877   9.6876  17.7947   H         1 RES1   0.0000
    67 C12B     7.1206   8.1762  16.6741   C.ar      1 RES1   0.0000
    68 H8B      7.9462   7.7279  16.5324   H         1 RES1   0.0000
    69 C13B     8.1091   5.3694  15.7908   C.ar      1 RES1   0.0000
    70 C14B     8.2432   5.0972  17.1376   C.ar      1 RES1   0.0000
    71 H9B      7.4790   4.9203  17.6722   H         1 RES1   0.0000
    72 C15B     9.5162   5.0860  17.6965   C.ar      1 RES1   0.0000
    73 H10B     9.6181   4.9083  18.6246   H         1 RES1   0.0000
    74 C16B    10.6440   5.3319  16.9184   C.ar      1 RES1   0.0000
    75 C17B    10.4761   5.6130  15.5728   C.ar      1 RES1   0.0000
    76 H11B    11.2375   5.7892  15.0327   H         1 RES1   0.0000
    77 C18B     9.2115   5.6407  15.0004   C.ar      1 RES1   0.0000
    78 H12B     9.1044   5.8439  14.0778   H         1 RES1   0.0000
    79 C19B    12.0226   5.3094  17.5318   C.3       1 RES1   0.0000
    80 H13B    11.9527   5.0942  18.4846   H         1 RES1   0.0000
    81 H14B    12.4417   6.1880  17.4248   H         1 RES1   0.0000
    82 H15B    12.5691   4.6301  17.0823   H         1 RES1   0.0000
    83 N6B      5.2579   4.5762  11.0190   N.2       1 RES1   0.0000
    84 C20B     5.9188   5.0650  10.1897   C.1       1 RES1   0.0000
    85 S1B      6.8229   5.7506   9.0106   S.2       1 RES1   0.0000
@<TRIPOS>BOND
     1     1     2    1
     2     2     7   ar
     3     3     7   ar
     4     4     1    1
     5     5     4    1
     6     6    14    1
     7     7     8    1
     8     9     3   ar
     9    10     9    1
    10    11     9   ar
    11    12    11    1
    12    13     2   ar
    13    14     4    2
    14    15     5    2
    15    16    15    1
    16    17    16   ar
    17    18    17    1
    18    19    17   ar
    19    20    19    1
    20    21    19   ar
    21    22    21    1
    22    23    21   ar
    23    24    23    1
    24    25    16   ar
    25    26    25    1
    26    27     6    1
    27    28    27   ar
    28    29    28    1
    29    30    28   ar
    30    31    30    1
    31    32    30   ar
    32    33    32   ar
    33    34    33    1
    34    35    27   ar
    35    36    35    1
    36    37    32    1
    37    38    37    1
    38    39    37    1
    39    40    37    1
    40    41     1    1
    41    42    41    2
    42    43    42    2
    43    44     1    1
    44    45    49   ar
    45    46     1    1
    46    47    46    1
    47    48    56    1
    48    49    44   ar
    49    50    49    1
    50    51    45   ar
    51    52    51    1
    52    53    51   ar
    53    54    53    1
    54    55    44   ar
    55    56    46    2
    56    57    47    2
    57    58    57    1
    58    59    58   ar
    59    60    59    1
    60    61    59   ar
    61    62    61    1
    62    63    61   ar
    63    64    63    1
    64    65    63   ar
    65    66    65    1
    66    67    58   ar
    67    68    67    1
    68    69    48    1
    69    70    69   ar
    70    71    70    1
    71    72    70   ar
    72    73    72    1
    73    74    72   ar
    74    75    74   ar
    75    76    75    1
    76    77    69   ar
    77    78    77    1
    78    79    74    1
    79    80    79    1
    80    81    79    1
    81    82    79    1
    82    83     1    1
    83    84    83    2
    84    85    84    2
    85     6    15    1
    86    11    13   ar
    87    13    14    1
    88    23    25   ar
    89    33    35   ar
    90    48    57    1
    91    53    55   ar
    92    55    56    1
    93    65    67   ar
    94    75    77   ar
@<TRIPOS>SUBSTRUCTURE
     1 RES1        1 GROUP             0 ****  ****    0  
@<TRIPOS>CRYSIN
    9.6929    7.4970   25.0510   90.0000   93.7940   90.0000   231     1
