@<TRIPOS>MOLECULE
LIGBAH
    85    94     1     0     0
SMALL
NO_CHARGES
****
Generated from the CSD

@<TRIPOS>ATOM
     1 Fe1     10.3680   1.2069   5.4387   Fe        1 RES1   0.0000
     2 C1      10.3267   3.3012   7.8850   C.ar      1 RES1   0.0000
     3 H1       9.4762   3.5745   7.5619   H         1 RES1   0.0000
     4 C2      10.8048   3.8408   9.0532   C.ar      1 RES1   0.0000
     5 H2      10.2979   4.4744   9.5470   H         1 RES1   0.0000
     6 C3      12.0471   3.4289   9.4829   C.ar      1 RES1   0.0000
     7 H3      12.4024   3.8048  10.2791   H         1 RES1   0.0000
     8 C4      12.2284   2.0539   7.7055   C.ar      1 RES1   0.0000
     9 C5      12.9311   1.0598   6.8875   C.2       1 RES1   0.0000
    10 C6      14.2463  -0.4811   6.0706   C.2       1 RES1   0.0000
    11 C7      15.3015  -1.4804   5.8487   C.ar      1 RES1   0.0000
    12 C8      15.3852  -2.0102   4.5630   C.ar      1 RES1   0.0000
    13 H4      14.7937  -1.7007   3.8876   H         1 RES1   0.0000
    14 C9      16.3256  -2.9840   4.2607   C.ar      1 RES1   0.0000
    15 H5      16.3756  -3.3363   3.3796   H         1 RES1   0.0000
    16 C10     17.1845  -3.4411   5.2309   C.ar      1 RES1   0.0000
    17 H6      17.8169  -4.1202   5.0264   H         1 RES1   0.0000
    18 C11     17.1265  -2.9151   6.4959   C.ar      1 RES1   0.0000
    19 H7      17.7347  -3.2170   7.1595   H         1 RES1   0.0000
    20 C12     16.1852  -1.9432   6.8146   C.ar      1 RES1   0.0000
    21 H8      16.1471  -1.5940   7.6979   H         1 RES1   0.0000
    22 C13     14.7738   0.2934   8.4386   C.ar      1 RES1   0.0000
    23 C14     14.3311  -0.5653   9.4198   C.ar      1 RES1   0.0000
    24 H9      13.5467  -1.0861   9.2925   H         1 RES1   0.0000
    25 C15     15.0542  -0.6540  10.5956   C.ar      1 RES1   0.0000
    26 H10     14.7655  -1.2503  11.2754   H         1 RES1   0.0000
    27 C16     16.1941   0.1152  10.7990   C.ar      1 RES1   0.0000
    28 C17     16.6000   0.9873   9.7907   C.ar      1 RES1   0.0000
    29 H11     17.3698   1.5275   9.9223   H         1 RES1   0.0000
    30 C18     15.9015   1.0772   8.6040   C.ar      1 RES1   0.0000
    31 H12     16.1891   1.6649   7.9143   H         1 RES1   0.0000
    32 C19     16.9821  -0.0038  12.0749   C.3       1 RES1   0.0000
    33 H13     16.3967  -0.3313  12.7896   H         1 RES1   0.0000
    34 H14     17.3391   0.8744  12.3208   H         1 RES1   0.0000
    35 H15     17.7216  -0.6335  11.9433   H         1 RES1   0.0000
    36 N1      11.0283   2.4010   7.1910   N.ar      1 RES1   0.0000
    37 N2      12.7744   2.5193   8.8215   N.ar      1 RES1   0.0000
    38 N3      12.4742   0.7190   5.7052   N.2       1 RES1   0.0000
    39 N4      13.2970  -0.2498   5.1841   N.2       1 RES1   0.0000
    40 N5      14.0551   0.3310   7.1780   N.pl3     1 RES1   0.0000
    41 Se1     10.2085   4.0114   1.4050   Se        1 RES1   0.0000
    42 C20     10.5159   3.2070   2.9630   C.1       1 RES1   0.0000
    43 N6      10.7145   2.6842   3.9865   N.2       1 RES1   0.0000
    44 C1A     10.4094  -0.8875   2.9924   C.ar      1 RES1   0.0000
    45 H1A     11.2599  -1.1608   3.3154   H         1 RES1   0.0000
    46 C2A      9.9312  -1.4271   1.8241   C.ar      1 RES1   0.0000
    47 H2A     10.4382  -2.0606   1.3303   H         1 RES1   0.0000
    48 C3A      8.6890  -1.0151   1.3945   C.ar      1 RES1   0.0000
    49 H3A      8.3337  -1.3911   0.5983   H         1 RES1   0.0000
    50 C4A      8.5077   0.3598   3.1718   C.ar      1 RES1   0.0000
    51 C5A      7.8050   1.3539   3.9898   C.2       1 RES1   0.0000
    52 C6A      6.4898   2.8948   4.8067   C.2       1 RES1   0.0000
    53 C7A      5.4346   3.8942   5.0286   C.ar      1 RES1   0.0000
    54 C8A      5.3509   4.4239   6.3143   C.ar      1 RES1   0.0000
    55 H4A      5.9424   4.1144   6.9898   H         1 RES1   0.0000
    56 C9A      4.4105   5.3977   6.6167   C.ar      1 RES1   0.0000
    57 H5A      4.3605   5.7500   7.4977   H         1 RES1   0.0000
    58 C10A     3.5516   5.8549   5.6464   C.ar      1 RES1   0.0000
    59 H6A      2.9192   6.5339   5.8509   H         1 RES1   0.0000
    60 C11A     3.6096   5.3288   4.3814   C.ar      1 RES1   0.0000
    61 H7A      3.0013   5.6308   3.7179   H         1 RES1   0.0000
    62 C12A     4.5509   4.3569   4.0627   C.ar      1 RES1   0.0000
    63 H8A      4.5889   4.0078   3.1794   H         1 RES1   0.0000
    64 C13A     5.9622   2.1203   2.4387   C.ar      1 RES1   0.0000
    65 C14A     6.4050   2.9791   1.4576   C.ar      1 RES1   0.0000
    66 H9A      7.1894   3.4999   1.5848   H         1 RES1   0.0000
    67 C15A     5.6819   3.0677   0.2817   C.ar      1 RES1   0.0000
    68 H10A     5.9705   3.6640  -0.3981   H         1 RES1   0.0000
    69 C16A     4.5420   2.2985   0.0783   C.ar      1 RES1   0.0000
    70 C17A     4.1361   1.4264   1.0866   C.ar      1 RES1   0.0000
    71 H11A     3.3662   0.8862   0.9550   H         1 RES1   0.0000
    72 C18A     4.8345   1.3365   2.2734   C.ar      1 RES1   0.0000
    73 H12A     4.5470   0.7488   2.9630   H         1 RES1   0.0000
    74 C19A     3.7540   2.4175  -1.1976   C.3       1 RES1   0.0000
    75 H13A     4.3393   2.7451  -1.9122   H         1 RES1   0.0000
    76 H14A     3.3969   1.5393  -1.4434   H         1 RES1   0.0000
    77 H15A     3.0144   3.0472  -1.0660   H         1 RES1   0.0000
    78 N1A      9.7078   0.0127   3.6863   N.ar      1 RES1   0.0000
    79 N2A      7.9617  -0.1056   2.0558   N.ar      1 RES1   0.0000
    80 N3A      8.2619   1.6947   5.1722   N.2       1 RES1   0.0000
    81 N4A      7.4391   2.6636   5.6932   N.2       1 RES1   0.0000
    82 N5A      6.6809   2.0828   3.6994   N.pl3     1 RES1   0.0000
    83 Se1A    10.5276  -1.5977   9.4723   Se        1 RES1   0.0000
    84 C20A    10.2201  -0.7933   7.9143   C.1       1 RES1   0.0000
    85 N6A     10.0216  -0.2705   6.8908   N.2       1 RES1   0.0000
@<TRIPOS>BOND
     1     1    36    1
     2     2     3    1
     3     4     2   ar
     4     5     4    1
     5     6     4   ar
     6     7     6    1
     7     8     9    1
     8     9    38    2
     9    10    11    1
    10    11    12   ar
    11    12    13    1
    12    14    12   ar
    13    15    14    1
    14    16    14   ar
    15    17    16    1
    16    18    16   ar
    17    19    18    1
    18    20    11   ar
    19    21    20    1
    20    22    23   ar
    21    23    24    1
    22    25    23   ar
    23    26    25    1
    24    27    25   ar
    25    28    27   ar
    26    29    28    1
    27    30    22   ar
    28    31    30    1
    29    32    27    1
    30    33    32    1
    31    34    32    1
    32    35    32    1
    33    36     2   ar
    34    37     6   ar
    35    38     1    1
    36    39    10    2
    37    40     9    1
    38    41    42    2
    39    42    43    2
    40    43     1    1
    41    44    45    1
    42    46    44   ar
    43    47    46    1
    44    48    46   ar
    45    49    48    1
    46    50    51    1
    47    51    80    2
    48    52    53    1
    49    53    54   ar
    50    54    55    1
    51    56    54   ar
    52    57    56    1
    53    58    56   ar
    54    59    58    1
    55    60    58   ar
    56    61    60    1
    57    62    53   ar
    58    63    62    1
    59    64    65   ar
    60    65    66    1
    61    67    65   ar
    62    68    67    1
    63    69    67   ar
    64    70    69   ar
    65    71    70    1
    66    72    64   ar
    67    73    72    1
    68    74    69    1
    69    75    74    1
    70    76    74    1
    71    77    74    1
    72    78     1    1
    73    79    48   ar
    74    80     1    1
    75    81    52    2
    76    82    51    1
    77    83    84    2
    78    84    85    2
    79    85     1    1
    80     8    36   ar
    81     8    37   ar
    82    10    40    1
    83    18    20   ar
    84    22    40    1
    85    28    30   ar
    86    38    39    1
    87    44    78   ar
    88    50    78   ar
    89    50    79   ar
    90    52    82    1
    91    60    62   ar
    92    64    82    1
    93    70    72   ar
    94    80    81    1
@<TRIPOS>SUBSTRUCTURE
     1 RES1        1 GROUP             0 ****  ****    0  
@<TRIPOS>CRYSIN
    9.0208    9.2522   11.4631   76.8070   76.4050   85.5330     2     1
