@<TRIPOS>MOLECULE
LIGGOB
   108   116     2     0     0
SMALL
USER_CHARGES
****
Generated from the CSD

@<TRIPOS>ATOM
     1 Fe1     10.6030  12.7023  12.6758   Fe        1 RES1   1.0000
     2 N1       8.7775  11.5035  12.4034   N.3       1 RES1   0.0000
     3 N2      12.7852  12.6801  12.8070   N.3       1 RES1   0.0000
     4 N3      11.1369  11.5351  10.7887   N.3       1 RES1   0.0000
     5 N4      10.8967  11.1046  14.2664   N.3       1 RES1   0.0000
     6 C1      12.4742  10.9310  11.0330   C.3       1 RES1   0.0000
     7 H1      12.8613  10.6256  10.1741   H         1 RES1   0.0000
     8 H2      12.3791  10.1437  11.6250   H         1 RES1   0.0000
     9 C2      10.0934   9.9387  13.8642   C.3       1 RES1   0.0000
    10 H3       9.9962   9.3204  14.6307   H         1 RES1   0.0000
    11 H4      10.5512   9.4548  13.1329   H         1 RES1   0.0000
    12 C3       7.5836  12.3661  12.5820   C.3       1 RES1   0.0000
    13 H5       7.6216  13.1120  11.9474   H         1 RES1   0.0000
    14 H6       7.5680  12.7162  13.4961   H         1 RES1   0.0000
    15 H7       6.7724  11.8401  12.4208   H         1 RES1   0.0000
    16 C4      10.4400  11.5605  15.6081   C.3       1 RES1   0.0000
    17 H8       9.5092  11.8627  15.5510   H         1 RES1   0.0000
    18 H9      11.0060  12.3008  15.9121   H         1 RES1   0.0000
    19 H10     10.5030  10.8174  16.2447   H         1 RES1   0.0000
    20 C5       8.7277  10.3931  13.3988   C.3       1 RES1   0.0000
    21 H11      8.2531   9.6225  12.9962   H         1 RES1   0.0000
    22 H12      8.2042  10.6905  14.1838   H         1 RES1   0.0000
    23 C6      12.3438  10.7905  14.3621   C.3       1 RES1   0.0000
    24 H13     12.5896  10.1135  13.6839   H         1 RES1   0.0000
    25 H14     12.5527  10.4247  15.2571   H         1 RES1   0.0000
    26 C7      13.3056  14.0643  12.8268   C.3       1 RES1   0.0000
    27 H15     14.2827  14.0456  12.9064   H         1 RES1   0.0000
    28 H16     12.9247  14.5456  13.5920   H         1 RES1   0.0000
    29 H17     13.0550  14.5199  11.9963   H         1 RES1   0.0000
    30 C8      13.1226  12.0637  14.1285   C.3       1 RES1   0.0000
    31 H18     12.9200  12.7087  14.8510   H         1 RES1   0.0000
    32 H19     14.0912  11.8658  14.1593   H         1 RES1   0.0000
    33 C9      13.4053  11.9458  11.6792   C.3       1 RES1   0.0000
    34 H20     14.2122  11.4760  12.0086   H         1 RES1   0.0000
    35 H21     13.6938  12.5969  10.9924   H         1 RES1   0.0000
    36 C10     10.1247  10.4834  10.5833   C.3       1 RES1   0.0000
    37 H22     10.3558   9.6845  11.1209   H         1 RES1   0.0000
    38 H23     10.1011  10.2207   9.6293   H         1 RES1   0.0000
    39 C11      8.7727  11.0153  11.0046   C.3       1 RES1   0.0000
    40 H24      8.5120  11.7555  10.4027   H         1 RES1   0.0000
    41 H25      8.0977  10.2962  10.9128   H         1 RES1   0.0000
    42 C12     11.2119  12.4134   9.6120   C.3       1 RES1   0.0000
    43 H26     11.5456  11.9035   8.8437   H         1 RES1   0.0000
    44 H27     11.8203  13.1588   9.7987   H         1 RES1   0.0000
    45 H28     10.3192  12.7631   9.4089   H         1 RES1   0.0000
    46 C13      7.4012  18.1310  10.2588   C.ar      1 RES1   0.0000
    47 H29      6.7969  18.7375   9.8476   H         1 RES1   0.0000
    48 C14     10.0934  15.4025  12.2155   C.3       1 RES1   0.0000
    49 H30     10.9865  15.8417  12.3106   H         1 RES1   0.0000
    50 C15      9.5555  15.0781  13.6171   C.3       1 RES1   0.0000
    51 H31      9.7702  15.8175  14.2389   H         1 RES1   0.0000
    52 H32      8.5711  14.9761  13.5839   H         1 RES1   0.0000
    53 C16      8.1909  18.5455  11.3213   C.ar      1 RES1   0.0000
    54 H33      8.1303  19.4399  11.6352   H         1 RES1   0.0000
    55 C17      9.0623  17.6669  11.9206   C.ar      1 RES1   0.0000
    56 H34      9.6046  17.9641  12.6411   H         1 RES1   0.0000
    57 C18      8.3638  15.9433  10.4143   C.ar      1 RES1   0.0000
    58 H35      8.4175  15.0471  10.1027   H         1 RES1   0.0000
    59 C19      9.1622  16.3495  11.4880   C.ar      1 RES1   0.0000
    60 C20      7.4999  16.8275   9.8038   C.ar      1 RES1   0.0000
    61 H36      6.9711  16.5411   9.0682   H         1 RES1   0.0000
    62 O1      10.1434  13.8883  14.0709   O.3       1 RES1   0.0000
    63 O2      10.2633  14.1773  11.5384   O.3       1 RES1   0.0000
    64 C21      0.8531   7.4303  15.5667   C.ar      2 RES2   0.0000
    65 C22      2.9470   5.2809  13.3929   C.ar      2 RES2   0.0000
    66 H37      2.7635   4.4804  13.8695   H         2 RES2   0.0000
    67 C23      1.0635   4.4987  16.3382   C.ar      2 RES2   0.0000
    68 H38      1.4945   5.1859  16.8324   H         2 RES2   0.0000
    69 C24      2.0088   6.3143  13.4388   C.ar      2 RES2   0.0000
    70 B1       0.6609   6.2932  14.3883   B         2 RES2  -1.0000
    71 C25      2.3500   7.4538  12.6915   C.ar      2 RES2   0.0000
    72 H39      1.7487   8.1890  12.6922   H         2 RES2   0.0000
    73 C26      4.1433   5.3717  12.6760   C.ar      2 RES2   0.0000
    74 H40      4.7583   4.6481  12.6860   H         2 RES2   0.0000
    75 C27      4.4354   6.5157  11.9502   C.ar      2 RES2   0.0000
    76 H41      5.2463   6.5817  11.4597   H         2 RES2   0.0000
    77 C28      3.5245   7.5627  11.9502   C.ar      2 RES2   0.0000
    78 H42      3.7004   8.3491  11.4474   H         2 RES2   0.0000
    79 C29     -3.1733   6.6590  13.3886   C.ar      2 RES2   0.0000
    80 H43     -4.0049   6.6028  13.8430   H         2 RES2   0.0000
    81 C30     -0.7335   6.8216  12.1214   C.ar      2 RES2   0.0000
    82 H44      0.0955   6.8793  11.6617   H         2 RES2   0.0000
    83 C31     -3.1386   6.9553  12.0327   C.ar      2 RES2   0.0000
    84 H45     -3.9413   7.1179  11.5515   H         2 RES2   0.0000
    85 C32     -1.9887   6.4460  14.0756   C.ar      2 RES2   0.0000
    86 H46     -2.0413   6.2131  14.9959   H         2 RES2   0.0000
    87 C33     -0.7177   6.5533  13.4957   C.ar      2 RES2   0.0000
    88 C34     -1.9102   7.0078  11.3989   C.ar      2 RES2   0.0000
    89 H47     -1.8682   7.1723  10.4639   H         2 RES2   0.0000
    90 C35      2.0442   8.1449  15.7793   C.ar      2 RES2   0.0000
    91 H48      2.7650   8.0107  15.1755   H         2 RES2   0.0000
    92 C36      1.2042   9.2612  17.7302   C.ar      2 RES2   0.0000
    93 H49      1.3253   9.8672  18.4506   H         2 RES2   0.0000
    94 C37      2.2197   9.0346  16.8263   C.ar      2 RES2   0.0000
    95 H50      3.0472   9.4926  16.9222   H         2 RES2   0.0000
    96 C38     -0.1507   7.7054  16.5153   C.ar      2 RES2   0.0000
    97 H51     -0.9843   7.2584  16.4284   H         2 RES2   0.0000
    98 C39      0.0065   8.5906  17.5682   C.ar      2 RES2   0.0000
    99 H52     -0.7072   8.7373  18.1792   H         2 RES2   0.0000
   100 C40     -0.1928   2.4710  14.9680   C.ar      2 RES2   0.0000
   101 H53     -0.6317   1.7810  14.4837   H         2 RES2   0.0000
   102 C41      0.5068   4.8128  15.0980   C.ar      2 RES2   0.0000
   103 C42      0.3873   2.1889  16.1980   C.ar      2 RES2   0.0000
   104 H54      0.3557   1.3112  16.5610   H         2 RES2   0.0000
   105 C43     -0.1360   3.7470  14.4442   C.ar      2 RES2   0.0000
   106 H55     -0.5492   3.9125  13.6043   H         2 RES2   0.0000
   107 C44      1.0113   3.2170  16.8795   C.ar      2 RES2   0.0000
   108 H56      1.4091   3.0469  17.7262   H         2 RES2   0.0000
@<TRIPOS>BOND
     1     1     2    1
     2     2    12    1
     3     3     1    1
     4     4     1    1
     5     5     1    1
     6     6     4    1
     7     7     6    1
     8     8     6    1
     9     9     5    1
    10    10     9    1
    11    11     9    1
    12    12    13    1
    13    14    12    1
    14    15    12    1
    15    16     5    1
    16    17    16    1
    17    18    16    1
    18    19    16    1
    19    20     2    1
    20    21    20    1
    21    22    20    1
    22    23     5    1
    23    24    23    1
    24    25    23    1
    25    26     3    1
    26    27    26    1
    27    28    26    1
    28    29    26    1
    29    30     3    1
    30    31    30    1
    31    32    30    1
    32    33     3    1
    33    34    33    1
    34    35    33    1
    35    36     4    1
    36    37    36    1
    37    38    36    1
    38    39     2    1
    39    40    39    1
    40    41    39    1
    41    42     4    1
    42    43    42    1
    43    44    42    1
    44    45    42    1
    45    46    47    1
    46    48    49    1
    47    50    48    1
    48    51    50    1
    49    52    50    1
    50    53    46   ar
    51    54    53    1
    52    55    53   ar
    53    56    55    1
    54    57    58    1
    55    59    48    1
    56    60    46   ar
    57    61    60    1
    58    62     1    1
    59    63     1    1
    60     6    33    1
    61     9    20    1
    62    23    30    1
    63    36    39    1
    64    48    63    1
    65    50    62    1
    66    55    59   ar
    67    57    59   ar
    68    57    60   ar
    69    64    70    1
    70    65    66    1
    71    67    68    1
    72    69    65   ar
    73    70    69    1
    74    71    69   ar
    75    72    71    1
    76    73    65   ar
    77    74    73    1
    78    75    73   ar
    79    76    75    1
    80    77    71   ar
    81    78    77    1
    82    79    80    1
    83    81    82    1
    84    83    79   ar
    85    84    83    1
    86    85    79   ar
    87    86    85    1
    88    87    70    1
    89    88    81   ar
    90    89    88    1
    91    90    64   ar
    92    91    90    1
    93    92    93    1
    94    94    90   ar
    95    95    94    1
    96    96    64   ar
    97    97    96    1
    98    98    92   ar
    99    99    98    1
   100   100   101    1
   101   102    67   ar
   102   103   100   ar
   103   104   103    1
   104   105   100   ar
   105   106   105    1
   106   107    67   ar
   107   108   107    1
   108    70   102    1
   109    75    77   ar
   110    81    87   ar
   111    83    88   ar
   112    85    87   ar
   113    92    94   ar
   114    96    98   ar
   115   102   105   ar
   116   103   107   ar
@<TRIPOS>SUBSTRUCTURE
     1 RES1        1 GROUP             0 ****  ****    0  
     2 RES2       64 GROUP             0 ****  ****    0  
@<TRIPOS>CRYSIN
   12.3793   15.1060   20.4110   90.0000   91.3430   90.0000   231     1
