@<TRIPOS>MOLECULE
LIHGOZ
    80    86     1     0     0
SMALL
NO_CHARGES
****
Generated from the CSD

@<TRIPOS>ATOM
     1 Fe1     -0.5474   7.6366   3.1597   Fe        1 RES1   0.0000
     2 N1      -2.2126   7.1180   2.3996   N.2       1 RES1   0.0000
     3 N2       0.0127   6.1952   2.1920   N.ar      1 RES1   0.0000
     4 N3       1.3811   7.7258   3.4833   N.2       1 RES1   0.0000
     5 N4      -0.9296   9.4429   2.9874   N.2       1 RES1   0.0000
     6 N5      -1.2896  10.4741   2.8183   N.3       1 RES1   0.0000
     7 C1      -3.4537   5.2701   1.2231   C.3       1 RES1   0.0000
     8 H1      -3.4168   4.3791   1.4059   H         1 RES1   0.0000
     9 H2      -3.5502   5.4219   0.2439   H         1 RES1   0.0000
    10 H3      -4.1898   5.6052   1.6989   H         1 RES1   0.0000
    11 C2      -2.2329   5.9767   1.7012   C.2       1 RES1   0.0000
    12 C3      -0.9324   5.4231   1.5305   C.ar      1 RES1   0.0000
    13 C4      -0.5459   4.2714   0.8687   C.ar      1 RES1   0.0000
    14 H4      -1.1800   3.7368   0.4201   H         1 RES1   0.0000
    15 C5       0.7810   3.8625   0.9099   C.ar      1 RES1   0.0000
    16 H5       1.0362   3.0922   0.4673   H         1 RES1   0.0000
    17 C6       1.7150   4.6134   1.6114   C.ar      1 RES1   0.0000
    18 H6       2.5667   4.3651   1.6600   H         1 RES1   0.0000
    19 C7       1.3249   5.7885   2.2406   C.ar      1 RES1   0.0000
    20 C8       2.1059   6.7201   2.9704   C.2       1 RES1   0.0000
    21 C9       3.5895   6.5698   3.0896   C.3       1 RES1   0.0000
    22 H7       4.0294   7.3569   3.4450   H         1 RES1   0.0000
    23 H8       3.9793   6.3760   2.2174   H         1 RES1   0.0000
    24 H9       3.7899   5.8388   3.6151   H         1 RES1   0.0000
    25 C10     -3.3554   7.7616   2.9503   C.ar      1 RES1   0.0000
    26 C11     -3.1849   8.0904   4.3098   C.ar      1 RES1   0.0000
    27 C12     -4.2300   8.7198   4.9806   C.ar      1 RES1   0.0000
    28 H10     -4.1410   8.9310   5.8633   H         1 RES1   0.0000
    29 C13     -5.4023   9.0267   4.3158   C.ar      1 RES1   0.0000
    30 H11     -6.0874   9.4005   4.7627   H         1 RES1   0.0000
    31 C14     -5.4979   8.8159   2.9556   C.ar      1 RES1   0.0000
    32 H12     -6.2441   9.1331   2.5269   H         1 RES1   0.0000
    33 C15     -4.4641   8.2222   2.2295   C.ar      1 RES1   0.0000
    34 C16     -1.8401   7.8739   4.9300   C.2       1 RES1   0.0000
    35 C17     -1.1991   6.6440   4.8544   C.2       1 RES1   0.0000
    36 H13     -1.6882   5.8143   4.5496   H         1 RES1   0.0000
    37 H14     -0.4899   6.4694   5.4636   H         1 RES1   0.0000
    38 C18     -1.4302   8.8960   5.9538   C.3       1 RES1   0.0000
    39 H15     -1.6866   9.8092   5.7096   H         1 RES1   0.0000
    40 H16     -1.8536   8.6881   6.8511   H         1 RES1   0.0000
    41 H17     -0.4756   8.9217   6.0088   H         1 RES1   0.0000
    42 C19     -4.4719   8.2701   0.7161   C.3       1 RES1   0.0000
    43 H18     -3.8423   7.6932   0.4222   H         1 RES1   0.0000
    44 C20     -4.1678   9.6959   0.2517   C.3       1 RES1   0.0000
    45 H19     -4.8859  10.3113   0.5492   H         1 RES1   0.0000
    46 H20     -3.3481  10.0544   0.6230   H         1 RES1   0.0000
    47 H21     -4.0876   9.6807  -0.6763   H         1 RES1   0.0000
    48 C21     -5.7682   7.7878   0.0889   C.3       1 RES1   0.0000
    49 H22     -6.4838   8.4195   0.2254   H         1 RES1   0.0000
    50 H23     -5.6389   7.6955  -0.8669   H         1 RES1   0.0000
    51 H24     -6.0426   6.9131   0.4488   H         1 RES1   0.0000
    52 C22      2.0677   8.7895   4.1932   C.ar      1 RES1   0.0000
    53 C23      2.5047   8.5961   5.5151   C.ar      1 RES1   0.0000
    54 C24      3.0576   9.6946   6.1780   C.ar      1 RES1   0.0000
    55 H25      3.3366   9.5791   7.0007   H         1 RES1   0.0000
    56 C25      3.1781  10.9221   5.5792   C.ar      1 RES1   0.0000
    57 H26      3.5305  11.6659   6.0129   H         1 RES1   0.0000
    58 C26      2.7927  11.0822   4.2611   C.ar      1 RES1   0.0000
    59 H27      2.9113  11.9263   3.8344   H         1 RES1   0.0000
    60 C27      2.2468  10.0262   3.5389   C.ar      1 RES1   0.0000
    61 C28      2.4953   7.2646   6.2375   C.3       1 RES1   0.0000
    62 H28      2.1278   6.6095   5.6522   H         1 RES1   0.0000
    63 C29      3.9297   6.8174   6.5863   C.3       1 RES1   0.0000
    64 H29      4.2739   7.3569   7.2056   H         1 RES1   0.0000
    65 H30      3.9079   5.9906   7.0314   H         1 RES1   0.0000
    66 H31      4.5420   6.8314   5.7772   H         1 RES1   0.0000
    67 C30      1.6739   7.2798   7.5263   C.3       1 RES1   0.0000
    68 H32      2.0694   7.9758   8.1811   H         1 RES1   0.0000
    69 H33      1.7009   6.3643   7.9577   H         1 RES1   0.0000
    70 H34      0.6799   7.6138   7.3511   H         1 RES1   0.0000
    71 C31      1.9548  10.2108   2.0524   C.3       1 RES1   0.0000
    72 H35      1.2906   9.5745   1.8034   H         1 RES1   0.0000
    73 C32      3.1826   9.8512   1.2218   C.3       1 RES1   0.0000
    74 H36      3.0192   9.9843   0.3115   H         1 RES1   0.0000
    75 H37      3.5050   8.9334   1.3587   H         1 RES1   0.0000
    76 H38      3.8478  10.4515   1.4038   H         1 RES1   0.0000
    77 C33      1.4829  11.6192   1.6948   C.3       1 RES1   0.0000
    78 H39      1.1933  11.5842   0.7788   H         1 RES1   0.0000
    79 H40      2.2021  12.2965   1.7563   H         1 RES1   0.0000
    80 H41      0.7131  11.9345   2.2994   H         1 RES1   0.0000
@<TRIPOS>BOND
     1     1     2    1
     2     2    11    2
     3     3     1    1
     4     4     1    1
     5     5     1    1
     6     6     5    2
     7     7     8    1
     8     9     7    1
     9    10     7    1
    10    11     7    1
    11    12     3   ar
    12    13    12   ar
    13    14    13    1
    14    15    13   ar
    15    16    15    1
    16    17    15   ar
    17    18    17    1
    18    19     3   ar
    19    20     4    2
    20    21    20    1
    21    22    21    1
    22    23    21    1
    23    24    21    1
    24    25     2    1
    25    26    25   ar
    26    27    26   ar
    27    28    27    1
    28    29    27   ar
    29    30    29    1
    30    31    29   ar
    31    32    31    1
    32    33    25   ar
    33    34     1   un
    34    35     1   un
    35    36    35    1
    36    37    35    1
    37    38    34    1
    38    39    38    1
    39    40    38    1
    40    41    38    1
    41    42    33    1
    42    43    42    1
    43    44    42    1
    44    45    44    1
    45    46    44    1
    46    47    44    1
    47    48    42    1
    48    49    48    1
    49    50    48    1
    50    51    48    1
    51    52     4    1
    52    53    52   ar
    53    54    53   ar
    54    55    54    1
    55    56    54   ar
    56    57    56    1
    57    58    56   ar
    58    59    58    1
    59    60    52   ar
    60    61    53    1
    61    62    61    1
    62    63    61    1
    63    64    63    1
    64    65    63    1
    65    66    63    1
    66    67    61    1
    67    68    67    1
    68    69    67    1
    69    70    67    1
    70    71    60    1
    71    72    71    1
    72    73    71    1
    73    74    73    1
    74    75    73    1
    75    76    73    1
    76    77    71    1
    77    78    77    1
    78    79    77    1
    79    80    77    1
    80    11    12    1
    81    17    19   ar
    82    19    20    1
    83    26    34    1
    84    31    33   ar
    85    34    35    2
    86    58    60   ar
@<TRIPOS>SUBSTRUCTURE
     1 RES1        1 GROUP             0 ****  ****    0  
@<TRIPOS>CRYSIN
   12.1273   11.6776   20.8845   90.0000  101.1010   90.0000    14     1
