@<TRIPOS>MOLECULE
LIJBUB
   109   115     3     0     0
SMALL
NO_CHARGES
****
Generated from the CSD

@<TRIPOS>ATOM
     1 Fe1      2.3019   7.3004   4.0598   Fe        1 RES1   0.0000
     2 N1       2.3534   8.5485   2.5097   N.2       1 RES1   0.0000
     3 N2       1.4423   8.7051   5.1893   N.2       1 RES1   0.0000
     4 N3       2.2269   6.0438   5.5962   N.2       1 RES1   0.0000
     5 N4       3.2102   5.9054   2.9491   N.2       1 RES1   0.0000
     6 N5       4.1245   7.9990   4.6829   N.2       1 RES1   0.0000
     7 N6       6.2965   8.2511   4.8803   N.pl3     1 RES1   0.0000
     8 N7      -0.3277   6.0896   3.0247   N.1       1 RES1   0.0000
     9 C1       0.6259   6.5822   3.4349   C.1       1 RES1   0.0000
    10 C2       1.9505   9.8696   2.5011   C.2       1 RES1   0.0000
    11 C3       1.4317  10.5383   3.5843   C.2       1 RES1   0.0000
    12 C4       1.1704  10.0042   4.8271   C.2       1 RES1   0.0000
    13 C5       0.6304  10.7450   5.9395   C.2       1 RES1   0.0000
    14 C6       0.5684   9.8899   6.9849   C.2       1 RES1   0.0000
    15 C7       1.0680   8.6265   6.5111   C.2       1 RES1   0.0000
    16 C8       1.1810   7.4840   7.2767   C.2       1 RES1   0.0000
    17 C9       1.6833   6.2787   6.8476   C.2       1 RES1   0.0000
    18 C10      1.7542   5.0803   7.6561   C.2       1 RES1   0.0000
    19 C11      2.3175   4.1161   6.8853   C.2       1 RES1   0.0000
    20 C12      2.6315   4.7290   5.6150   C.2       1 RES1   0.0000
    21 C13      3.2628   4.0925   4.5696   C.2       1 RES1   0.0000
    22 C14      3.5602   4.6338   3.3354   C.2       1 RES1   0.0000
    23 C15      4.1783   3.9208   2.2539   C.2       1 RES1   0.0000
    24 C16      4.1332   4.7481   1.1673   C.2       1 RES1   0.0000
    25 C17      3.5259   5.9887   1.6102   C.2       1 RES1   0.0000
    26 C18      3.3008   7.0829   0.8034   C.2       1 RES1   0.0000
    27 C19      2.7653   8.2772   1.2188   C.2       1 RES1   0.0000
    28 C20      2.6082   9.4515   0.3948   C.2       1 RES1   0.0000
    29 C21      2.1398  10.4458   1.1845   C.2       1 RES1   0.0000
    30 C22      0.1839  12.1881   5.8811   C.3       1 RES1   0.0000
    31 C23     -1.2201  12.3622   5.3369   C.3       1 RES1   0.0000
    32 C24      0.0639  10.1648   8.3908   C.3       1 RES1   0.0000
    33 C25     -1.3858   9.8102   8.5333   C.3       1 RES1   0.0000
    34 C26      1.2331   4.9506   9.0826   C.3       1 RES1   0.0000
    35 C27     -0.2626   4.8833   9.1839   C.3       1 RES1   0.0000
    36 C28      2.5910   2.6830   7.2475   C.3       1 RES1   0.0000
    37 C29      4.0082   2.4496   7.7316   C.3       1 RES1   0.0000
    38 C30      4.7689   2.5597   2.3603   C.3       1 RES1   0.0000
    39 C31      6.0844   2.5419   3.1071   C.3       1 RES1   0.0000
    40 C32      4.6107   4.4672  -0.2266   C.3       1 RES1   0.0000
    41 C33      5.9905   4.9405  -0.4789   C.3       1 RES1   0.0000
    42 C34      2.9552   9.5304  -1.0780   C.3       1 RES1   0.0000
    43 C35      4.4107   9.8131  -1.3012   C.3       1 RES1   0.0000
    44 C36      1.8998  11.9152   0.8566   C.3       1 RES1   0.0000
    45 C37      0.4644  12.2487   0.6849   C.3       1 RES1   0.0000
    46 C38      4.3939   9.0377   5.5292   C.2       1 RES1   0.0000
    47 C39      5.7247   9.2068   5.6425   C.2       1 RES1   0.0000
    48 C40      5.3181   7.5428   4.3121   C.2       1 RES1   0.0000
    49 C41      7.7388   8.0572   4.7121   C.3       1 RES1   0.0000
    50 H1       1.2261  11.4670   3.4573   H         1 RES1   0.0000
    51 H2       0.8696   7.5343   8.1831   H         1 RES1   0.0000
    52 H3       3.5376   3.1853   4.7224   H         1 RES1   0.0000
    53 H4       3.5447   7.0072  -0.1236   H         1 RES1   0.0000
    54 H5       0.7968  12.6791   5.3284   H         1 RES1   0.0000
    55 H6       0.2119  12.5643   6.7635   H         1 RES1   0.0000
    56 H7      -1.4632  13.2900   5.3112   H         1 RES1   0.0000
    57 H8      -1.2466  12.0009   4.4477   H         1 RES1   0.0000
    58 H9      -1.8373  11.8839   5.8948   H         1 RES1   0.0000
    59 H10      0.1857  11.0910   8.6105   H         1 RES1   0.0000
    60 H11      0.5736   9.6394   9.0122   H         1 RES1   0.0000
    61 H12     -1.6934   9.9750   9.4276   H         1 RES1   0.0000
    62 H13     -1.8920  10.3446   7.9170   H         1 RES1   0.0000
    63 H14     -1.5018   8.8807   8.3204   H         1 RES1   0.0000
    64 H15      1.5396   5.6982   9.6027   H         1 RES1   0.0000
    65 H16      1.5965   4.1520   9.4723   H         1 RES1   0.0000
    66 H17     -0.5425   4.7962  10.0971   H         1 RES1   0.0000
    67 H18     -0.6302   5.6886   8.8114   H         1 RES1   0.0000
    68 H19     -0.5738   4.1270   8.6809   H         1 RES1   0.0000
    69 H20      2.4224   2.1276   6.4836   H         1 RES1   0.0000
    70 H21      1.9899   2.4175   7.9462   H         1 RES1   0.0000
    71 H22      4.1431   1.5264   7.9548   H         1 RES1   0.0000
    72 H23      4.6109   2.6999   7.0278   H         1 RES1   0.0000
    73 H24      4.1742   2.9931   8.5041   H         1 RES1   0.0000
    74 H25      4.9141   2.2196   1.4746   H         1 RES1   0.0000
    75 H26      4.1559   1.9730   2.8084   H         1 RES1   0.0000
    76 H27      6.4463   1.6536   3.1483   H         1 RES1   0.0000
    77 H28      6.7022   3.1179   2.6522   H         1 RES1   0.0000
    78 H29      5.9369   2.8678   3.9980   H         1 RES1   0.0000
    79 H30      4.0127   4.8803  -0.8532   H         1 RES1   0.0000
    80 H31      4.5871   3.5194  -0.3777   H         1 RES1   0.0000
    81 H32      6.2478   4.7346  -1.3802   H         1 RES1   0.0000
    82 H33      6.0173   5.8914  -0.3468   H         1 RES1   0.0000
    83 H34      6.5965   4.5164   0.1339   H         1 RES1   0.0000
    84 H35      2.4285  10.2130  -1.4986   H         1 RES1   0.0000
    85 H36      2.7406   8.6903  -1.4900   H         1 RES1   0.0000
    86 H37      4.6086   9.8493  -2.2402   H         1 RES1   0.0000
    87 H38      4.6210  10.6587  -0.8978   H         1 RES1   0.0000
    88 H39      4.9364   9.1232  -0.8892   H         1 RES1   0.0000
    89 H40      2.3657  12.1333   0.0463   H         1 RES1   0.0000
    90 H41      2.2595  12.4600   1.5604   H         1 RES1   0.0000
    91 H42      0.3558  13.1796   0.4772   H         1 RES1   0.0000
    92 H43      0.1057  11.7173  -0.0275   H         1 RES1   0.0000
    93 H44     -0.0016  12.0473   1.5003   H         1 RES1   0.0000
    94 H45      3.7279   9.5710   5.9704   H         1 RES1   0.0000
    95 H46      6.1876   9.8630   6.1695   H         1 RES1   0.0000
    96 H47      5.4628   6.8113   3.7062   H         1 RES1   0.0000
    97 H48      7.9035   7.3222   4.1182   H         1 RES1   0.0000
    98 H49      8.1248   8.8565   4.3465   H         1 RES1   0.0000
    99 H50      8.1361   7.8729   5.5670   H         1 RES1   0.0000
   100 C42      8.8484   4.0503   5.4314   C.3       2 RES2   0.0000
   101 Cl1      9.1714   2.3815   5.6322   Cl        2 RES2   0.0000
   102 Cl2      7.3304   4.5278   6.1317   Cl        2 RES2   0.0000
   103 H51      8.8534   4.2621   4.4958   H         2 RES2   0.0000
   104 H52      9.5520   4.5462   5.8554   H         2 RES2   0.0000
   105 C43      5.2096  11.2358   2.6728   C.3       3 RES3   0.0000
   106 Cl3      6.8273  10.9594   2.3174   Cl        3 RES3   0.0000
   107 Cl4      4.9336  12.6880   3.5671   Cl        3 RES3   0.0000
   108 H53      4.8758  10.4965   3.1860   H         3 RES3   0.0000
   109 H54      4.7135  11.2773   1.8505   H         3 RES3   0.0000
@<TRIPOS>BOND
     1     1     2    1
     2     2    10    2
     3     3     1    1
     4     4     1    1
     5     5     1    1
     6     6     1    1
     7     7    47    1
     8     8     9    3
     9     9     1    1
    10    10    11    1
    11    11    12    2
    12    12     3    1
    13    13    12    1
    14    14    13    2
    15    15     3    1
    16    16    15    2
    17    17     4    2
    18    18    17    1
    19    19    18    2
    20    20     4    1
    21    21    20    2
    22    22     5    1
    23    23    22    2
    24    24    23    1
    25    25     5    1
    26    26    25    1
    27    27     2    1
    28    28    27    1
    29    29    10    1
    30    30    13    1
    31    31    30    1
    32    32    14    1
    33    33    32    1
    34    34    18    1
    35    35    34    1
    36    36    19    1
    37    37    36    1
    38    38    23    1
    39    39    38    1
    40    40    24    1
    41    41    40    1
    42    42    28    1
    43    43    42    1
    44    44    29    1
    45    45    44    1
    46    46     6    1
    47    47    46    2
    48    48     6    2
    49    49     7    1
    50    50    11    1
    51    51    16    1
    52    52    21    1
    53    53    26    1
    54    54    30    1
    55    55    30    1
    56    56    31    1
    57    57    31    1
    58    58    31    1
    59    59    32    1
    60    60    32    1
    61    61    33    1
    62    62    33    1
    63    63    33    1
    64    64    34    1
    65    65    34    1
    66    66    35    1
    67    67    35    1
    68    68    35    1
    69    69    36    1
    70    70    36    1
    71    71    37    1
    72    72    37    1
    73    73    37    1
    74    74    38    1
    75    75    38    1
    76    76    39    1
    77    77    39    1
    78    78    39    1
    79    79    40    1
    80    80    40    1
    81    81    41    1
    82    82    41    1
    83    83    41    1
    84    84    42    1
    85    85    42    1
    86    86    43    1
    87    87    43    1
    88    88    43    1
    89    89    44    1
    90    90    44    1
    91    91    45    1
    92    92    45    1
    93    93    45    1
    94    94    46    1
    95    95    47    1
    96    96    48    1
    97    97    49    1
    98    98    49    1
    99    99    49    1
   100     7    48    1
   101    14    15    1
   102    16    17    1
   103    19    20    1
   104    21    22    1
   105    24    25    2
   106    26    27    2
   107    28    29    2
   108   100   101    1
   109   102   100    1
   110   103   100    1
   111   104   100    1
   112   105   106    1
   113   107   105    1
   114   108   105    1
   115   109   105    1
@<TRIPOS>SUBSTRUCTURE
     1 RES1        1 GROUP             0 ****  ****    0  
     2 RES2      100 GROUP             0 ****  ****    0  
     3 RES3      105 GROUP             0 ****  ****    0  
@<TRIPOS>CRYSIN
   10.0320   13.3060   17.6950   75.9700   86.6400   73.5300     2     1
