@<TRIPOS>MOLECULE
LILNOM
    85    87     1     0     0
SMALL
NO_CHARGES
****
Generated from the CSD

@<TRIPOS>ATOM
     1 Fe1      8.3316   9.9327   7.1875   Fe        1 RES1   0.0000
     2 P1      10.1478   9.7536   5.9306   P.3       1 RES1   0.0000
     3 P2       6.3548  10.2886   8.1134   P.3       1 RES1   0.0000
     4 N1       7.9268  11.6758   6.0402   N.3       1 RES1   0.0000
     5 N2       8.7051   7.2904   8.4355   N.1       1 RES1   0.0000
     6 C1       5.7659  11.8225   7.2670   C.3       1 RES1   0.0000
     7 H1       4.7825  11.7994   7.1574   H         1 RES1   0.0000
     8 H2       6.0060  12.6226   7.7981   H         1 RES1   0.0000
     9 C2       6.4715  11.8646   5.8658   C.3       1 RES1   0.0000
    10 H3       6.1077  11.1493   5.2864   H         1 RES1   0.0000
    11 H4       6.2961  12.7360   5.4294   H         1 RES1   0.0000
    12 C3       8.5124  12.9204   6.5928   C.3       1 RES1   0.0000
    13 H5       8.1086  13.1124   7.4646   H         1 RES1   0.0000
    14 H6       8.3347  13.6644   5.9796   H         1 RES1   0.0000
    15 H7       9.4796  12.8072   6.6976   H         1 RES1   0.0000
    16 C4       8.5092  11.5049   4.6536   C.3       1 RES1   0.0000
    17 H8       8.3958  12.3440   4.1392   H         1 RES1   0.0000
    18 H9       8.0272  10.7841   4.1764   H         1 RES1   0.0000
    19 C5       9.9961  11.1568   4.7445   C.3       1 RES1   0.0000
    20 H10     10.5139  11.9364   5.0661   H         1 RES1   0.0000
    21 H11     10.3431  10.8934   3.8547   H         1 RES1   0.0000
    22 C6       9.2463   8.0861   3.8402   C.3       1 RES1   0.0000
    23 H12      8.4447   7.9039   4.3738   H         1 RES1   0.0000
    24 H13      9.4328   7.3191   3.2590   H         1 RES1   0.0000
    25 H14      9.0977   8.8837   3.2899   H         1 RES1   0.0000
    26 C7      10.4349   8.3220   4.7694   C.3       1 RES1   0.0000
    27 H15     11.2171   8.5601   4.1940   H         1 RES1   0.0000
    28 C8      10.7963   7.0341   5.5169   C.3       1 RES1   0.0000
    29 H16     11.6944   7.1189   5.8978   H         1 RES1   0.0000
    30 H17     10.7750   6.2782   4.8933   H         1 RES1   0.0000
    31 H18     10.1484   6.8819   6.2365   H         1 RES1   0.0000
    32 C9      12.0654   9.2019   7.9544   C.3       1 RES1   0.0000
    33 H19     11.2957   9.2611   8.5578   H         1 RES1   0.0000
    34 H20     12.8678   9.5247   8.4160   H         1 RES1   0.0000
    35 H21     12.1979   8.2691   7.6841   H         1 RES1   0.0000
    36 C10     11.8081  10.0652   6.7071   C.3       1 RES1   0.0000
    37 H22     11.7800  11.0103   7.0351   H         1 RES1   0.0000
    38 C11     12.9698  10.0066   5.7236   C.3       1 RES1   0.0000
    39 H23     13.1274   9.0758   5.4608   H         1 RES1   0.0000
    40 H24     13.7758  10.3674   6.1482   H         1 RES1   0.0000
    41 H25     12.7522  10.5382   4.9299   H         1 RES1   0.0000
    42 C12      4.5837   8.9571   6.3890   C.3       1 RES1   0.0000
    43 H26      4.3584   9.8237   5.9906   H         1 RES1   0.0000
    44 H27      3.8202   8.3487   6.3000   H         1 RES1   0.0000
    45 H28      5.3595   8.5768   5.9263   H         1 RES1   0.0000
    46 C13      4.9120   9.1445   7.8577   C.3       1 RES1   0.0000
    47 H29      4.1162   9.5712   8.2872   H         1 RES1   0.0000
    48 C14      5.1219   7.7890   8.5348   C.3       1 RES1   0.0000
    49 H30      5.9465   7.3794   8.1983   H         1 RES1   0.0000
    50 H31      4.3620   7.2032   8.3372   H         1 RES1   0.0000
    51 H32      5.1933   7.9155   9.5045   H         1 RES1   0.0000
    52 C15      7.0129   9.7324  10.8037   C.3       1 RES1   0.0000
    53 H33      6.4727   8.9213  10.9029   H         1 RES1   0.0000
    54 H34      7.1641  10.1341  11.6853   H         1 RES1   0.0000
    55 H35      7.8754   9.5033  10.3980   H         1 RES1   0.0000
    56 C16      6.2789  10.7283   9.9097   C.3       1 RES1   0.0000
    57 H36      6.7940  11.5817   9.9911   H         1 RES1   0.0000
    58 C17      4.8615  11.0637  10.4256   C.3       1 RES1   0.0000
    59 H37      4.4413  11.7138   9.8240   H         1 RES1   0.0000
    60 H38      4.9242  11.4452  11.3259   H         1 RES1   0.0000
    61 H39      4.3224  10.2468  10.4525   H         1 RES1   0.0000
    62 C18      8.5659   8.3590   7.9544   C.1       1 RES1   0.0000
    63 C19      8.8733   5.9182   8.6081   C.ar      1 RES1   0.0000
    64 C20      8.3466   5.0231   7.6642   C.ar      1 RES1   0.0000
    65 C21      8.5660   3.6560   7.8826   C.ar      1 RES1   0.0000
    66 H40      8.2363   3.0277   7.2517   H         1 RES1   0.0000
    67 C22      9.2495   3.1982   8.9921   C.ar      1 RES1   0.0000
    68 H41      9.3896   2.2666   9.1163   H         1 RES1   0.0000
    69 C23      9.7277   4.1062   9.9199   C.ar      1 RES1   0.0000
    70 H42     10.1791   3.7876  10.6936   H         1 RES1   0.0000
    71 C24      9.5620   5.4783   9.7455   C.ar      1 RES1   0.0000
    72 C25     10.0845   6.4870  10.7231   C.3       1 RES1   0.0000
    73 H43     10.8262   6.9822  10.3172   H         1 RES1   0.0000
    74 H44     10.4016   6.0268  11.5289   H         1 RES1   0.0000
    75 H45      9.3680   7.1101  10.9641   H         1 RES1   0.0000
    76 C26      7.5716   5.4872   6.4594   C.3       1 RES1   0.0000
    77 H46      6.6118   5.4380   6.6498   H         1 RES1   0.0000
    78 H47      7.7829   4.9125   5.6940   H         1 RES1   0.0000
    79 H48      7.8168   6.4126   6.2506   H         1 RES1   0.0000
    80 B1       9.7198  11.5534   9.2530   B         1 RES1   0.0000
    81 H49      9.2653  10.7755   8.3399   H         1 RES1   0.0000
    82 H50      7.6237   9.2070   6.2439   H         1 RES1   0.0000
    83 H51     10.1176  10.9285   9.9229   H         1 RES1   0.0000
    84 H52     10.4964  11.9742   8.7356   H         1 RES1   0.0000
    85 H53      9.0443  12.3568   9.6590   H         1 RES1   0.0000
@<TRIPOS>BOND
     1     1     2    1
     2     2    19    1
     3     3     1    1
     4     4     1    1
     5     5    62    3
     6     6     3    1
     7     7     6    1
     8     8     6    1
     9     9     4    1
    10    10     9    1
    11    11     9    1
    12    12     4    1
    13    13    12    1
    14    14    12    1
    15    15    12    1
    16    16     4    1
    17    17    16    1
    18    18    16    1
    19    19    16    1
    20    20    19    1
    21    21    19    1
    22    22    23    1
    23    24    22    1
    24    25    22    1
    25    26     2    1
    26    27    26    1
    27    28    26    1
    28    29    28    1
    29    30    28    1
    30    31    28    1
    31    32    33    1
    32    34    32    1
    33    35    32    1
    34    36     2    1
    35    37    36    1
    36    38    36    1
    37    39    38    1
    38    40    38    1
    39    41    38    1
    40    42    43    1
    41    44    42    1
    42    45    42    1
    43    46     3    1
    44    47    46    1
    45    48    46    1
    46    49    48    1
    47    50    48    1
    48    51    48    1
    49    52    53    1
    50    54    52    1
    51    55    52    1
    52    56     3    1
    53    57    56    1
    54    58    56    1
    55    59    58    1
    56    60    58    1
    57    61    58    1
    58    62     1    1
    59    63     5    1
    60    64    63   ar
    61    65    64   ar
    62    66    65    1
    63    67    65   ar
    64    68    67    1
    65    69    67   ar
    66    70    69    1
    67    71    63   ar
    68    72    71    1
    69    73    72    1
    70    74    72    1
    71    75    72    1
    72    76    64    1
    73    77    76    1
    74    78    76    1
    75    79    76    1
    76    80    81    1
    77    81     1    1
    78    82     1    1
    79    83    80    1
    80    84    80    1
    81    85    80    1
    82     6     9    1
    83    22    26    1
    84    32    36    1
    85    42    46    1
    86    52    56    1
    87    69    71   ar
@<TRIPOS>SUBSTRUCTURE
     1 RES1        1 GROUP             0 ****  ****    0  
@<TRIPOS>CRYSIN
   15.7841   12.7521   14.6571   90.0000   90.0000   90.0000    29     1
