@<TRIPOS>MOLECULE
LILNUS
    81    82     1     0     0
SMALL
NO_CHARGES
****
Generated from the CSD

@<TRIPOS>ATOM
     1 Fe1     10.8082  12.1814   6.4804   Fe        1 RES1   0.0000
     2 H1       9.7057  11.2964   5.5453   H         1 RES1   0.0000
     3 H2      11.6816  13.0290   7.1792   H         1 RES1   0.0000
     4 P1      12.5000  11.6879   5.1663   P.3       1 RES1   0.0000
     5 P2       9.2697  13.1174   7.7565   P.3       1 RES1   0.0000
     6 N1      10.5068  13.8580   5.1989   N.3       1 RES1   0.0000
     7 N2      11.4908   9.9896   8.3426   N.1       1 RES1   0.0000
     8 C1      11.1727  10.8428   7.5883   C.1       1 RES1   0.0000
     9 C2      11.4627   8.6819   8.9802   C.3       1 RES1   0.0000
    10 C3      12.8327   8.0283   8.8185   C.3       1 RES1   0.0000
    11 H3      13.0404   7.9365   7.8652   H         1 RES1   0.0000
    12 H4      12.8236   7.1425   9.2376   H         1 RES1   0.0000
    13 H5      13.5138   8.5863   9.2489   H         1 RES1   0.0000
    14 C4      10.3872   7.8396   8.2998   C.3       1 RES1   0.0000
    15 H6       9.5160   8.2766   8.4032   H         1 RES1   0.0000
    16 H7      10.3582   6.9513   8.7126   H         1 RES1   0.0000
    17 H8      10.5966   7.7503   7.3466   H         1 RES1   0.0000
    18 C5      11.1552   8.8848  10.4540   C.3       1 RES1   0.0000
    19 H9      11.8352   9.4679  10.8523   H         1 RES1   0.0000
    20 H10     11.1596   8.0183  10.9112   H         1 RES1   0.0000
    21 H11     10.2727   9.3003  10.5494   H         1 RES1   0.0000
    22 C6       7.5836  12.3547   7.9382   C.3       1 RES1   0.0000
    23 H12      7.2557  12.1979   7.0067   H         1 RES1   0.0000
    24 C7       7.6167  10.9918   8.5952   C.3       1 RES1   0.0000
    25 H13      8.2981  10.4370   8.1618   H         1 RES1   0.0000
    26 H14      6.7399  10.5642   8.5041   H         1 RES1   0.0000
    27 H15      7.8337  11.0931   9.5457   H         1 RES1   0.0000
    28 C8       6.5397  13.2527   8.5983   C.3       1 RES1   0.0000
    29 H16      6.7786  13.3955   9.5378   H         1 RES1   0.0000
    30 H17      5.6600  12.8237   8.5464   H         1 RES1   0.0000
    31 H18      6.5102  14.1152   8.1339   H         1 RES1   0.0000
    32 C9       9.7007  13.7008   9.4644   C.3       1 RES1   0.0000
    33 H19      8.8736  14.0844   9.8750   H         1 RES1   0.0000
    34 C10     10.7640  14.7933   9.4471   C.3       1 RES1   0.0000
    35 H20     11.5704  14.4578   9.0027   H         1 RES1   0.0000
    36 H21     10.9816  15.0522  10.3669   H         1 RES1   0.0000
    37 H22     10.4234  15.5730   8.9604   H         1 RES1   0.0000
    38 C11     10.1871  12.5800  10.3603   C.3       1 RES1   0.0000
    39 H23      9.5249  11.8579  10.3688   H         1 RES1   0.0000
    40 H24     10.3111  12.9205  11.2709   H         1 RES1   0.0000
    41 H25     11.0401  12.2373  10.0208   H         1 RES1   0.0000
    42 C12      8.8602  14.6800   6.8605   C.3       1 RES1   0.0000
    43 H26      8.0532  14.5513   6.3019   H         1 RES1   0.0000
    44 H27      8.6805  15.4071   7.5080   H         1 RES1   0.0000
    45 C13     10.0520  15.0408   5.9848   C.3       1 RES1   0.0000
    46 H28      9.7984  15.7709   5.3661   H         1 RES1   0.0000
    47 H29     10.7945  15.3646   6.5540   H         1 RES1   0.0000
    48 C14      9.5038  13.5843   4.1280   C.3       1 RES1   0.0000
    49 H30      9.8186  12.8444   3.5670   H         1 RES1   0.0000
    50 H31      9.3873  14.3855   3.5764   H         1 RES1   0.0000
    51 H32      8.6469  13.3415   4.5371   H         1 RES1   0.0000
    52 C15     11.7952  14.2486   4.5611   C.3       1 RES1   0.0000
    53 H33     12.3894  14.6508   5.2432   H         1 RES1   0.0000
    54 H34     11.6224  14.9318   3.8658   H         1 RES1   0.0000
    55 C16     12.4914  13.0542   3.9297   C.3       1 RES1   0.0000
    56 H35     13.4189  13.2935   3.6795   H         1 RES1   0.0000
    57 H36     12.0094  12.7715   3.1125   H         1 RES1   0.0000
    58 C17     12.3873  10.2036   4.0545   C.3       1 RES1   0.0000
    59 H37     11.5758  10.3586   3.4910   H         1 RES1   0.0000
    60 C18     13.5466  10.0716   3.0624   C.3       1 RES1   0.0000
    61 H38     13.6770  10.9240   2.5970   H         1 RES1   0.0000
    62 H39     13.3392   9.3710   2.4091   H         1 RES1   0.0000
    63 H40     14.3652   9.8348   3.5463   H         1 RES1   0.0000
    64 C19     12.1218   8.8982   4.7861   C.3       1 RES1   0.0000
    65 H41     12.8995   8.6680   5.3363   H         1 RES1   0.0000
    66 H42     11.9606   8.1849   4.1338   H         1 RES1   0.0000
    67 H43     11.3342   8.9998   5.3604   H         1 RES1   0.0000
    68 C20     14.2634  11.7163   5.7524   C.3       1 RES1   0.0000
    69 H44     14.8449  11.5953   4.9480   H         1 RES1   0.0000
    70 C21     14.6364  13.0544   6.3815   C.3       1 RES1   0.0000
    71 H45     14.4871  13.7735   5.7332   H         1 RES1   0.0000
    72 H46     15.5810  13.0406   6.6429   H         1 RES1   0.0000
    73 H47     14.0809  13.2086   7.1744   H         1 RES1   0.0000
    74 C22     14.5915  10.5920   6.7170   C.3       1 RES1   0.0000
    75 H48     14.0515  10.6899   7.5288   H         1 RES1   0.0000
    76 H49     15.5426  10.6291   6.9507   H         1 RES1   0.0000
    77 H50     14.3925   9.7304   6.2943   H         1 RES1   0.0000
    78 B1       8.9200  10.4349   5.1580   B         1 RES1   0.0000
    79 H51      9.2457  10.1700   4.0944   H         1 RES1   0.0000
    80 H52      8.9952   9.5195   5.8382   H         1 RES1   0.0000
    81 H53      7.8927  10.8839   5.1445   H         1 RES1   0.0000
@<TRIPOS>BOND
     1     1     2    1
     2     2    78    1
     3     3     1    1
     4     4     1    1
     5     5     1    1
     6     6     1    1
     7     7     8    3
     8     8     1    1
     9     9     7    1
    10    10     9    1
    11    11    10    1
    12    12    10    1
    13    13    10    1
    14    14     9    1
    15    15    14    1
    16    16    14    1
    17    17    14    1
    18    18     9    1
    19    19    18    1
    20    20    18    1
    21    21    18    1
    22    22     5    1
    23    23    22    1
    24    24    22    1
    25    25    24    1
    26    26    24    1
    27    27    24    1
    28    28    22    1
    29    29    28    1
    30    30    28    1
    31    31    28    1
    32    32     5    1
    33    33    32    1
    34    34    32    1
    35    35    34    1
    36    36    34    1
    37    37    34    1
    38    38    32    1
    39    39    38    1
    40    40    38    1
    41    41    38    1
    42    42     5    1
    43    43    42    1
    44    44    42    1
    45    45     6    1
    46    46    45    1
    47    47    45    1
    48    48     6    1
    49    49    48    1
    50    50    48    1
    51    51    48    1
    52    52     6    1
    53    53    52    1
    54    54    52    1
    55    55     4    1
    56    56    55    1
    57    57    55    1
    58    58     4    1
    59    59    58    1
    60    60    58    1
    61    61    60    1
    62    62    60    1
    63    63    60    1
    64    64    58    1
    65    65    64    1
    66    66    64    1
    67    67    64    1
    68    68     4    1
    69    69    68    1
    70    70    68    1
    71    71    70    1
    72    72    70    1
    73    73    70    1
    74    74    68    1
    75    75    74    1
    76    76    74    1
    77    77    74    1
    78    78    79    1
    79    80    78    1
    80    81    78    1
    81    42    45    1
    82    52    55    1
@<TRIPOS>SUBSTRUCTURE
     1 RES1        1 GROUP             0 ****  ****    0  
@<TRIPOS>CRYSIN
   17.8973   15.8658   19.2679   90.0000   90.0000   90.0000    61     1
