@<TRIPOS>MOLECULE
LINQUV
    82    87     3     0     0
SMALL
USER_CHARGES
****
Generated from the CSD

@<TRIPOS>ATOM
     1 Fe1      3.5143   6.6298   2.8684   Fe        1 RES1   2.0000
     2 N1       4.5842   7.0621   1.2701   N.ar      1 RES1   0.0000
     3 N2       2.6631   5.3261   1.6147   N.3       1 RES1   0.0000
     4 N3       4.6899   5.1141   3.3393   N.ar      1 RES1   0.0000
     5 N4       2.0878   6.0332   4.2558   N.3       1 RES1   0.0000
     6 N5       2.1989   8.0719   2.4617   N.ar      1 RES1   0.0000
     7 N6       4.3405   7.8981   4.0574   N.1       1 RES1   0.0000
     8 C1       5.7240   7.7335   1.2044   C.ar      1 RES1   0.0000
     9 H1       6.1129   8.0229   2.0001   H         1 RES1   0.0000
    10 C2       6.3637   8.0248   0.0197   C.ar      1 RES1   0.0000
    11 H2       7.1612   8.5014   0.0118   H         1 RES1   0.0000
    12 C3       5.7921   7.5898  -1.1471   C.ar      1 RES1   0.0000
    13 H3       6.1989   7.7789  -1.9626   H         1 RES1   0.0000
    14 C4       4.6164   6.8749  -1.1155   C.ar      1 RES1   0.0000
    15 H4       4.2276   6.5571  -1.8994   H         1 RES1   0.0000
    16 C5       4.0286   6.6422   0.1125   C.ar      1 RES1   0.0000
    17 C6       2.7204   5.9500   0.2646   C.3       1 RES1   0.0000
    18 H5       2.6254   5.2692  -0.4186   H         1 RES1   0.0000
    19 H6       1.9964   6.5874   0.1639   H         1 RES1   0.0000
    20 C7       3.4372   4.0455   1.5756   C.3       1 RES1   0.0000
    21 H7       3.8942   3.9755   0.7246   H         1 RES1   0.0000
    22 H8       2.8226   3.2984   1.6486   H         1 RES1   0.0000
    23 C8       4.4390   3.9642   2.6812   C.ar      1 RES1   0.0000
    24 C9       5.1039   2.7897   2.9813   C.ar      1 RES1   0.0000
    25 H9       4.9050   2.0105   2.5134   H         1 RES1   0.0000
    26 C10      6.0465   2.7764   3.9606   C.ar      1 RES1   0.0000
    27 H10      6.5089   1.9934   4.1601   H         1 RES1   0.0000
    28 C11      6.3064   3.9377   4.6537   C.ar      1 RES1   0.0000
    29 H11      6.9318   3.9453   5.3427   H         1 RES1   0.0000
    30 C12      5.6344   5.0857   4.3141   C.ar      1 RES1   0.0000
    31 H12      5.8315   5.8725   4.7682   H         1 RES1   0.0000
    32 C13      1.2652   5.1179   2.0909   C.3       1 RES1   0.0000
    33 H13      0.8745   4.3386   1.6624   H         1 RES1   0.0000
    34 H14      0.7186   5.8914   1.8836   H         1 RES1   0.0000
    35 C14      1.3387   4.9098   3.5993   C.3       1 RES1   0.0000
    36 H15      0.4409   4.8625   3.9646   H         1 RES1   0.0000
    37 H16      1.7849   4.0682   3.7889   H         1 RES1   0.0000
    38 C15      1.1953   7.2002   4.4799   C.3       1 RES1   0.0000
    39 H17      1.5125   7.7014   5.2480   H         1 RES1   0.0000
    40 H18      0.3011   6.8824   4.6813   H         1 RES1   0.0000
    41 C16      1.1326   8.1118   3.2953   C.ar      1 RES1   0.0000
    42 C17      2.2455   9.0064   1.4828   C.ar      1 RES1   0.0000
    43 H19      2.9892   9.0347   0.9260   H         1 RES1   0.0000
    44 C18      1.2348   9.9180   1.2774   C.ar      1 RES1   0.0000
    45 H20      1.2957  10.5326   0.5824   H         1 RES1   0.0000
    46 C19      0.1452   9.9199   2.0948   C.ar      1 RES1   0.0000
    47 H21     -0.5484  10.5289   1.9665   H         1 RES1   0.0000
    48 C20      0.0968   8.9931   3.1215   C.ar      1 RES1   0.0000
    49 H22     -0.6362   8.9685   3.6921   H         1 RES1   0.0000
    50 C21      2.6272   5.5737   5.5954   C.3       1 RES1   0.0000
    51 H23      3.0555   4.7131   5.4711   H         1 RES1   0.0000
    52 H24      3.3118   6.1997   5.8798   H         1 RES1   0.0000
    53 C22      1.6075   5.4451   6.7090   C.ar      1 RES1   0.0000
    54 C23      1.4946   6.4531   7.6528   C.ar      1 RES1   0.0000
    55 H25      2.0466   7.2002   7.5935   H         1 RES1   0.0000
    56 C24      0.5753   6.3680   8.6814   C.ar      1 RES1   0.0000
    57 H26      0.5358   7.0432   9.3192   H         1 RES1   0.0000
    58 C25     -0.2742   5.3032   8.7683   C.ar      1 RES1   0.0000
    59 H27     -0.9122   5.2654   9.4436   H         1 RES1   0.0000
    60 C26     -0.1738   4.2876   7.8423   C.ar      1 RES1   0.0000
    61 H28     -0.7401   3.5519   7.9015   H         1 RES1   0.0000
    62 C27      0.7652   4.3519   6.8235   C.ar      1 RES1   0.0000
    63 H29      0.8297   3.6540   6.2134   H         1 RES1   0.0000
    64 C28      4.7401   8.7189   4.7445   C.1       1 RES1   0.0000
    65 C29      5.1989   9.8064   5.6290   C.3       1 RES1   0.0000
    66 H30      5.0878   9.5435   6.5451   H         1 RES1   0.0000
    67 H31      4.6810  10.5970   5.4572   H         1 RES1   0.0000
    68 H32      6.1254   9.9880   5.4592   H         1 RES1   0.0000
    69 P1       0.4038   0.9421   3.1020   P.3       2 RES2  -1.0000
    70 F1       1.8369   1.3371   2.5647   F         2 RES2   0.0000
    71 F2       0.0538   0.2591   1.7434   F         2 RES2   0.0000
    72 F3      -1.0287   0.5466   3.6684   F         2 RES2   0.0000
    73 F4       0.7527   1.6360   4.4878   F         2 RES2   0.0000
    74 F5       0.9910  -0.4272   3.6515   F         2 RES2   0.0000
    75 F6      -0.2025   2.3172   2.5667   F         2 RES2   0.0000
    76 P2       6.1456   6.5378   8.2338   P.3       3 RES3  -1.0000
    77 F7       6.4713   6.9203   6.7919   F         3 RES3   0.0000
    78 F8       4.9175   5.7155   7.9154   F         3 RES3   0.0000
    79 F9       6.0681   5.9292   9.6627   F         3 RES3   0.0000
    80 F10      7.5949   6.8389   8.7051   F         3 RES3   0.0000
    81 F11      6.8387   5.0365   7.7851   F         3 RES3   0.0000
    82 F12      5.8530   7.9624   8.5886   F         3 RES3   0.0000
@<TRIPOS>BOND
     1     1     2    1
     2     2     8   ar
     3     3     1    1
     4     4     1    1
     5     5     1    1
     6     6     1    1
     7     7     1    1
     8     8     9    1
     9    10     8   ar
    10    11    10    1
    11    12    10   ar
    12    13    12    1
    13    14    12   ar
    14    15    14    1
    15    16     2   ar
    16    17     3    1
    17    18    17    1
    18    19    17    1
    19    20     3    1
    20    21    20    1
    21    22    20    1
    22    23     4   ar
    23    24    23   ar
    24    25    24    1
    25    26    24   ar
    26    27    26    1
    27    28    26   ar
    28    29    28    1
    29    30     4   ar
    30    31    30    1
    31    32     3    1
    32    33    32    1
    33    34    32    1
    34    35     5    1
    35    36    35    1
    36    37    35    1
    37    38     5    1
    38    39    38    1
    39    40    38    1
    40    41     6   ar
    41    42     6   ar
    42    43    42    1
    43    44    42   ar
    44    45    44    1
    45    46    44   ar
    46    47    46    1
    47    48    41   ar
    48    49    48    1
    49    50     5    1
    50    51    50    1
    51    52    50    1
    52    53    50    1
    53    54    53   ar
    54    55    54    1
    55    56    54   ar
    56    57    56    1
    57    58    56   ar
    58    59    58    1
    59    60    58   ar
    60    61    60    1
    61    62    53   ar
    62    63    62    1
    63    64     7    3
    64    65    64    1
    65    66    65    1
    66    67    65    1
    67    68    65    1
    68    14    16   ar
    69    16    17    1
    70    20    23    1
    71    28    30   ar
    72    32    35    1
    73    38    41    1
    74    46    48   ar
    75    60    62   ar
    76    69    70    1
    77    71    69    1
    78    72    69    1
    79    73    69    1
    80    74    69    1
    81    75    69    1
    82    76    77    1
    83    78    76    1
    84    79    76    1
    85    80    76    1
    86    81    76    1
    87    82    76    1
@<TRIPOS>SUBSTRUCTURE
     1 RES1        1 GROUP             0 ****  ****    0  
     2 RES2       69 GROUP             0 ****  ****    0  
     3 RES3       76 GROUP             0 ****  ****    0  
@<TRIPOS>CRYSIN
   17.9210   18.9130   19.7440   90.0000   90.0000   90.0000    61     1
