@<TRIPOS>MOLECULE
LINROQ
    80    84     4     0     0
SMALL
USER_CHARGES
****
Generated from the CSD

@<TRIPOS>ATOM
     1 C1       3.3298   7.8031   3.6891   C.ar      1 RES1   0.0000
     2 H1       3.0303   7.6668   2.8178   H         1 RES1   0.0000
     3 C2       2.7458   8.7936   4.4371   C.ar      1 RES1   0.0000
     4 H2       2.0594   9.3079   4.0781   H         1 RES1   0.0000
     5 C3       3.1792   9.0205   5.7100   C.ar      1 RES1   0.0000
     6 H3       2.7826   9.6777   6.2350   H         1 RES1   0.0000
     7 C4       4.2059   8.2641   6.2034   C.ar      1 RES1   0.0000
     8 H4       4.5228   8.4126   7.0652   H         1 RES1   0.0000
     9 C5       4.7737   7.2768   5.4127   C.ar      1 RES1   0.0000
    10 C6       5.9329   6.4654   5.8745   C.3       1 RES1   0.0000
    11 H5       5.7577   6.1410   6.7711   H         1 RES1   0.0000
    12 H6       6.7217   7.0280   5.9093   H         1 RES1   0.0000
    13 C7       7.6082   5.3127   4.5430   C.3       1 RES1   0.0000
    14 H7       7.8732   4.4275   4.2505   H         1 RES1   0.0000
    15 H8       8.1794   5.5726   5.2831   H         1 RES1   0.0000
    16 C8       7.7533   6.2965   3.4092   C.ar      1 RES1   0.0000
    17 C9       8.9247   6.9467   3.1072   C.ar      1 RES1   0.0000
    18 H9       9.6790   6.8252   3.6369   H         1 RES1   0.0000
    19 C10      8.9752   7.7810   2.0098   C.ar      1 RES1   0.0000
    20 H10      9.7649   8.2142   1.7789   H         1 RES1   0.0000
    21 C11      7.8331   7.9608   1.2682   C.ar      1 RES1   0.0000
    22 H11      7.8384   8.5272   0.5313   H         1 RES1   0.0000
    23 C12      6.6891   7.3014   1.6177   C.ar      1 RES1   0.0000
    24 H12      5.9205   7.4404   1.1132   H         1 RES1   0.0000
    25 C13      5.8204   4.0141   5.6411   C.3       1 RES1   0.0000
    26 H13      6.1713   3.9872   6.5449   H         1 RES1   0.0000
    27 H14      6.1818   3.2612   5.1487   H         1 RES1   0.0000
    28 C14      4.3137   3.9506   5.6638   C.3       1 RES1   0.0000
    29 H15      4.0306   3.0871   6.0041   H         1 RES1   0.0000
    30 H16      3.9679   4.6360   6.2571   H         1 RES1   0.0000
    31 C15      3.7469   2.8758   3.5152   C.3       1 RES1   0.0000
    32 H17      3.0386   2.9066   2.8542   H         1 RES1   0.0000
    33 H18      3.5566   2.1442   4.1224   H         1 RES1   0.0000
    34 C16      5.0536   2.6197   2.8280   C.ar      1 RES1   0.0000
    35 C17      5.4322   1.3558   2.4241   C.ar      1 RES1   0.0000
    36 H19      4.9093   0.6188   2.6439   H         1 RES1   0.0000
    37 C18      6.5893   1.1924   1.6936   C.ar      1 RES1   0.0000
    38 H20      6.8610   0.3487   1.4137   H         1 RES1   0.0000
    39 C19      7.3363   2.3108   1.3899   C.ar      1 RES1   0.0000
    40 H21      8.1219   2.2337   0.8982   H         1 RES1   0.0000
    41 C20      6.9063   3.5344   1.8201   C.ar      1 RES1   0.0000
    42 H22      7.4084   4.2832   1.5892   H         1 RES1   0.0000
    43 C21      2.3433   4.6712   4.3817   C.3       1 RES1   0.0000
    44 H23      2.3705   5.5395   4.8134   H         1 RES1   0.0000
    45 H24      2.0068   4.8073   3.4836   H         1 RES1   0.0000
    46 C22      1.3558   3.8097   5.1281   C.ar      1 RES1   0.0000
    47 C23      1.0907   4.0290   6.4738   C.ar      1 RES1   0.0000
    48 H25      1.5668   4.6836   6.9308   H         1 RES1   0.0000
    49 C24      0.1339   3.2927   7.1490   C.ar      1 RES1   0.0000
    50 H26     -0.0343   3.4537   8.0487   H         1 RES1   0.0000
    51 C25     -0.5658   2.3215   6.4754   C.ar      1 RES1   0.0000
    52 H27     -1.2104   1.8214   6.9213   H         1 RES1   0.0000
    53 C26     -0.3197   2.0897   5.1534   C.ar      1 RES1   0.0000
    54 H28     -0.7998   1.4320   4.7043   H         1 RES1   0.0000
    55 C27      0.6331   2.8176   4.4782   C.ar      1 RES1   0.0000
    56 H29      0.7945   2.6443   3.5800   H         1 RES1   0.0000
    57 C28      4.0142   5.6070   1.7173   C.1       1 RES1   0.0000
    58 N1       4.3183   7.0183   4.1630   N.ar      1 RES1   0.0000
    59 N2       6.2030   5.2987   4.9753   N.3       1 RES1   0.0000
    60 N3       6.6330   6.4554   2.6722   N.ar      1 RES1   0.0000
    61 N4       3.7576   4.1537   4.2799   N.3       1 RES1   0.0000
    62 N5       5.7956   3.7165   2.5612   N.ar      1 RES1   0.0000
    63 N6       3.3661   5.7073   0.7732   N.1       1 RES1   0.0000
    64 Fe1      5.0809   5.4202   3.2952   Fe        1 RES1   1.0000
    65 O1       1.1959   3.6753   0.9551   O.3       2 RES2   0.0000
    66 H34      1.8630   4.2120   0.7748   H         2 RES2   0.0000
    67 H35      0.6415   3.9540   0.3321   H         2 RES2   0.0000
    68 C29      4.0531  10.7547   1.5497   C.3       3 RES3   0.0000
    69 H30      4.6448   9.9987   1.5607   H         3 RES3   0.0000
    70 H31      3.1552  10.4567   1.3899   H         3 RES3   0.0000
    71 H32      4.0960  11.2071   2.3956   H         3 RES3   0.0000
    72 O2       4.4269  11.6025   0.5677   O.3       3 RES3   0.0000
    73 H33      4.2330  12.3701   0.7812   H         3 RES3   0.0000
    74 F1       7.2113   5.3298   8.6806   F         4 RES4   0.0000
    75 F2       5.7353   6.4831   9.8672   F         4 RES4   0.0000
    76 F3       5.0663   4.6810   8.7866   F         4 RES4   0.0000
    77 F4       5.1885   4.6095  11.0089   F         4 RES4   0.0000
    78 F5       7.3066   5.3229  10.9230   F         4 RES4   0.0000
    79 F6       6.6568   3.4796   9.8308   F         4 RES4   0.0000
    80 P1       6.2101   4.9514   9.8479   P.3       4 RES4  -1.0000
@<TRIPOS>BOND
     1     1     2    1
     2     3     1   ar
     3     4     3    1
     4     5     3   ar
     5     6     5    1
     6     7     5   ar
     7     8     7    1
     8     9     7   ar
     9    10     9    1
    10    11    10    1
    11    12    10    1
    12    13    14    1
    13    15    13    1
    14    16    13    1
    15    17    16   ar
    16    18    17    1
    17    19    17   ar
    18    20    19    1
    19    21    19   ar
    20    22    21    1
    21    23    21   ar
    22    24    23    1
    23    25    26    1
    24    27    25    1
    25    28    25    1
    26    29    28    1
    27    30    28    1
    28    31    32    1
    29    33    31    1
    30    34    31    1
    31    35    34   ar
    32    36    35    1
    33    37    35   ar
    34    38    37    1
    35    39    37   ar
    36    40    39    1
    37    41    39   ar
    38    42    41    1
    39    43    44    1
    40    45    43    1
    41    46    43    1
    42    47    46   ar
    43    48    47    1
    44    49    47   ar
    45    50    49    1
    46    51    49   ar
    47    52    51    1
    48    53    51   ar
    49    54    53    1
    50    55    46   ar
    51    56    55    1
    52    57    63    3
    53    58     1   ar
    54    59    10    1
    55    60    16   ar
    56    61    28    1
    57    62    34   ar
    58    64    57    1
    59     9    58   ar
    60    13    59    1
    61    23    60   ar
    62    25    59    1
    63    31    61    1
    64    41    62   ar
    65    43    61    1
    66    53    55   ar
    67    58    64    1
    68    59    64    1
    69    60    64    1
    70    61    64    1
    71    62    64    1
    72    65    66    1
    73    67    65    1
    74    68    69    1
    75    70    68    1
    76    71    68    1
    77    72    68    1
    78    73    72    1
    79    74    80    1
    80    75    80    1
    81    76    80    1
    82    77    80    1
    83    78    80    1
    84    79    80    1
@<TRIPOS>SUBSTRUCTURE
     1 RES1        1 GROUP             0 ****  ****    0  
     2 RES2       65 GROUP             0 ****  ****    0  
     3 RES3       68 GROUP             0 ****  ****    0  
     4 RES4       74 GROUP             0 ****  ****    0  
@<TRIPOS>CRYSIN
    9.4850   10.8770   16.5700   73.2600   81.5600   76.0400     2     1
