@<TRIPOS>MOLECULE
LIQCEW
   108   116     6     0     0
SMALL
USER_CHARGES
****
Generated from the CSD

@<TRIPOS>ATOM
     1 Fe1     -0.2701   1.1654  10.5223   Fe        1 RES1   2.0000
     2 S1       2.7916   1.6714   9.6614   S.3       1 RES1   0.0000
     3 S2      -3.2815   0.5589   9.5354   S.3       1 RES1   0.0000
     4 S3       0.2320  -1.8468  11.5720   S.3       1 RES1   0.0000
     5 S4      -0.8038   4.2258  11.3228   S.3       1 RES1   0.0000
     6 N1       1.6129   1.5975  10.8999   N.2       1 RES1   0.0000
     7 N2       3.1650   2.0660  12.6338   N.pl3     1 RES1   0.0000
     8 H1       3.3449   1.9039  13.4808   H         1 RES1   0.0000
     9 N3      -0.3271   1.2777  12.4054   N.ar      1 RES1   0.0000
    10 N4      -2.1763   0.7816  10.8268   N.2       1 RES1   0.0000
    11 N5      -3.8506   0.6593  12.4941   N.pl3     1 RES1   0.0000
    12 H2      -4.0920   0.9955  13.2702   H         1 RES1   0.0000
    13 N6       0.1342  -0.7497  10.2592   N.2       1 RES1   0.0000
    14 N7       0.4013  -2.4530   8.6339   N.pl3     1 RES1   0.0000
    15 H3       0.1308  -2.7120   7.8357   H         1 RES1   0.0000
    16 N8      -0.2429   1.0903   8.6605   N.ar      1 RES1   0.0000
    17 N9      -0.6750   3.0494  10.0973   N.2       1 RES1   0.0000
    18 N10     -0.9788   4.5840   8.3169   N.pl3     1 RES1   0.0000
    19 H4      -0.7471   4.7582   7.4854   H         1 RES1   0.0000
    20 C1       4.0913   2.5863  10.4543   C.ar      1 RES1   0.0000
    21 C2       5.0455   3.2081   9.6716   C.ar      1 RES1   0.0000
    22 H5       4.9740   3.1839   8.7248   H         1 RES1   0.0000
    23 C3       6.1069   3.8674  10.2702   C.ar      1 RES1   0.0000
    24 H6       6.7707   4.2830   9.7337   H         1 RES1   0.0000
    25 C4       6.2009   3.9236  11.6383   C.ar      1 RES1   0.0000
    26 H7       6.9328   4.3723  12.0440   H         1 RES1   0.0000
    27 C5       5.2369   3.3305  12.4298   C.ar      1 RES1   0.0000
    28 H8       5.2974   3.3801  13.3766   H         1 RES1   0.0000
    29 C6       4.1678   2.6536  11.8267   C.ar      1 RES1   0.0000
    30 C7       1.9346   1.7419  12.1549   C.2       1 RES1   0.0000
    31 C8       0.8000   1.5688  13.0906   C.ar      1 RES1   0.0000
    32 C9       0.7637   1.7066  14.4630   C.ar      1 RES1   0.0000
    33 H9       1.5559   1.8852  14.9553   H         1 RES1   0.0000
    34 C10     -0.4414   1.5776  15.0949   C.ar      1 RES1   0.0000
    35 H10     -0.4800   1.6834  16.0395   H         1 RES1   0.0000
    36 C11     -1.5965   1.2987  14.4076   C.ar      1 RES1   0.0000
    37 H11     -2.4274   1.2138  14.8599   H         1 RES1   0.0000
    38 C12     -1.5092   1.1465  13.0329   C.ar      1 RES1   0.0000
    39 C13     -2.5894   0.8522  12.0662   C.2       1 RES1   0.0000
    40 C14     -4.8128  -0.0739  11.7292   C.ar      1 RES1   0.0000
    41 C15     -5.8880  -0.6560  12.3677   C.ar      1 RES1   0.0000
    42 H12     -6.0045  -0.5545  13.3034   H         1 RES1   0.0000
    43 C16     -6.7925  -1.3902  11.6228   C.ar      1 RES1   0.0000
    44 H13     -7.5436  -1.7816  12.0529   H         1 RES1   0.0000
    45 C17     -6.6229  -1.5644  10.2658   C.ar      1 RES1   0.0000
    46 H14     -7.2497  -2.0748   9.7691   H         1 RES1   0.0000
    47 C18     -5.5270  -0.9867   9.6272   C.ar      1 RES1   0.0000
    48 H15     -5.3978  -1.1036   8.6938   H         1 RES1   0.0000
    49 C19     -4.6301  -0.2425  10.3678   C.ar      1 RES1   0.0000
    50 C20      1.1181  -3.1850  10.8201   C.ar      1 RES1   0.0000
    51 C21      1.8205  -4.0802  11.6361   C.ar      1 RES1   0.0000
    52 H16      1.8694  -3.9457  12.5762   H         1 RES1   0.0000
    53 C22      2.4509  -5.1793  11.0330   C.ar      1 RES1   0.0000
    54 H17      2.9262  -5.8044  11.5673   H         1 RES1   0.0000
    55 C23      2.3823  -5.3513   9.6915   C.ar      1 RES1   0.0000
    56 H18      2.8186  -6.0977   9.2991   H         1 RES1   0.0000
    57 C24      1.6915  -4.4638   8.8778   C.ar      1 RES1   0.0000
    58 H19      1.6475  -4.6038   7.9399   H         1 RES1   0.0000
    59 C25      1.0674  -3.3713   9.4543   C.ar      1 RES1   0.0000
    60 C26      0.1595  -1.1609   9.0286   C.2       1 RES1   0.0000
    61 C27     -0.0542  -0.1025   8.0353   C.ar      1 RES1   0.0000
    62 C28     -0.0880  -0.2062   6.6539   C.ar      1 RES1   0.0000
    63 H20      0.0423  -1.0451   6.2260   H         1 RES1   0.0000
    64 C29     -0.3175   0.9470   5.9089   C.ar      1 RES1   0.0000
    65 H21     -0.3479   0.8974   4.9600   H         1 RES1   0.0000
    66 C30     -0.5029   2.1740   6.5431   C.ar      1 RES1   0.0000
    67 H22     -0.6449   2.9656   6.0398   H         1 RES1   0.0000
    68 C31     -0.4746   2.2104   7.9288   C.ar      1 RES1   0.0000
    69 C32     -0.7140   3.3559   8.8379   C.2       1 RES1   0.0000
    70 C33     -1.6257   5.5993   9.0929   C.ar      1 RES1   0.0000
    71 C34     -2.2426   6.6544   8.4366   C.ar      1 RES1   0.0000
    72 H23     -2.2390   6.6952   7.4876   H         1 RES1   0.0000
    73 C35     -2.8655   7.6510   9.1771   C.ar      1 RES1   0.0000
    74 H24     -3.2712   8.3874   8.7359   H         1 RES1   0.0000
    75 C36     -2.8974   7.5738  10.5629   C.ar      1 RES1   0.0000
    76 H25     -3.3324   8.2507  11.0684   H         1 RES1   0.0000
    77 C37     -2.2910   6.5011  11.2081   C.ar      1 RES1   0.0000
    78 H26     -2.3248   6.4361  12.1549   H         1 RES1   0.0000
    79 C38     -1.6428   5.5365  10.4764   C.ar      1 RES1   0.0000
    80 S5      -0.1229   6.4445   4.9409   S.o2      2 RES2   0.0000
    81 F1       2.3536   6.4019   4.0376   F         2 RES2   0.0000
    82 F2       1.9953   5.0988   5.6961   F         2 RES2   0.0000
    83 F3       1.2883   4.5719   3.7471   F         2 RES2   0.0000
    84 O1      -0.8946   5.3932   5.5608   O.2       2 RES2   0.0000
    85 O2      -0.5921   6.8539   3.6607   O.2       2 RES2   0.0000
    86 O3       0.2732   7.5022   5.8491   O.3       2 RES2  -1.0000
    87 C39      1.4587   5.5949   4.5742   C.3       2 RES2   0.0000
    88 S6       4.9653   1.4432  16.0734   S.o2      3 RES3   0.0000
    89 F4       4.8481  -0.9657  17.0993   F         3 RES3   0.0000
    90 F5       3.0376   0.1444  17.2967   F         3 RES3   0.0000
    91 F6       3.5651  -0.6604  15.3854   F         3 RES3   0.0000
    92 O4       3.9580   2.2391  15.3876   O.3       3 RES3  -1.0000
    93 O5       5.3691   1.9668  17.3388   O.2       3 RES3   0.0000
    94 O6       6.0306   0.9746  15.2169   O.2       3 RES3   0.0000
    95 C40      4.0633  -0.0639  16.4852   C.3       3 RES3   0.0000
    96 O7       0.9085   2.4485  18.0483   O.3       4 RES4   0.0000
    97 N11      2.0314  -3.6337  15.2701   N.1       5 RES5   0.0000
    98 C41      1.2965  -2.7572  15.6648   C.1       5 RES5   0.0000
    99 C42      0.3379  -1.9183  15.7734   C.3       5 RES5   0.0000
   100 H27      0.6052  -1.0705  15.3588   H         5 RES5   0.0000
   101 H28      0.1420  -1.7738  16.7202   H         5 RES5   0.0000
   102 H29     -0.4530  -2.2710  15.3211   H         5 RES5   0.0000
   103 N12     -0.6437   2.2721   2.9046   N.1       6 RES6   0.0000
   104 C43     -1.4542   2.9799   2.8758   C.1       6 RES6   0.0000
   105 C44     -2.4703   3.9457   2.7494   C.3       6 RES6   0.0000
   106 H30     -2.1670   4.7935   3.1374   H         6 RES6   0.0000
   107 H31     -3.2715   3.6392   3.2239   H         6 RES6   0.0000
   108 H32     -2.6821   4.0769   1.8026   H         6 RES6   0.0000
@<TRIPOS>BOND
     1     1     6    1
     2     2     6    1
     3     3    10    1
     4     4    13    1
     5     5    17    1
     6     6    30    2
     7     7     8    1
     8     9     1    1
     9    10     1    1
    10    11    12    1
    11    13     1    1
    12    14    15    1
    13    16     1    1
    14    17     1    1
    15    18    19    1
    16    20     2    1
    17    21    20   ar
    18    22    21    1
    19    23    21   ar
    20    24    23    1
    21    25    23   ar
    22    26    25    1
    23    27    25   ar
    24    28    27    1
    25    29     7    1
    26    30     7    1
    27    31     9   ar
    28    32    31   ar
    29    33    32    1
    30    34    32   ar
    31    35    34    1
    32    36    34   ar
    33    37    36    1
    34    38     9   ar
    35    39    10    2
    36    40    11    1
    37    41    40   ar
    38    42    41    1
    39    43    41   ar
    40    44    43    1
    41    45    43   ar
    42    46    45    1
    43    47    45   ar
    44    48    47    1
    45    49     3    1
    46    50     4    1
    47    51    50   ar
    48    52    51    1
    49    53    51   ar
    50    54    53    1
    51    55    53   ar
    52    56    55    1
    53    57    55   ar
    54    58    57    1
    55    59    14    1
    56    60    13    2
    57    61    16   ar
    58    62    61   ar
    59    63    62    1
    60    64    62   ar
    61    65    64    1
    62    66    64   ar
    63    67    66    1
    64    68    16   ar
    65    69    17    2
    66    70    18    1
    67    71    70   ar
    68    72    71    1
    69    73    71   ar
    70    74    73    1
    71    75    73   ar
    72    76    75    1
    73    77    75   ar
    74    78    77    1
    75    79     5    1
    76    11    39    1
    77    14    60    1
    78    18    69    1
    79    20    29   ar
    80    27    29   ar
    81    30    31    1
    82    36    38   ar
    83    38    39    1
    84    40    49   ar
    85    47    49   ar
    86    50    59   ar
    87    57    59   ar
    88    60    61    1
    89    66    68   ar
    90    68    69    1
    91    70    79   ar
    92    77    79   ar
    93    80    84    2
    94    81    87    1
    95    82    87    1
    96    83    87    1
    97    85    80    2
    98    86    80    1
    99    87    80    1
   100    88    92    1
   101    89    95    1
   102    90    95    1
   103    91    95    1
   104    93    88    2
   105    94    88    2
   106    95    88    1
   107    97    98    3
   108    98    99    1
   109    99   100    1
   110   101    99    1
   111   102    99    1
   112   103   104    3
   113   104   105    1
   114   105   106    1
   115   107   105    1
   116   108   105    1
@<TRIPOS>SUBSTRUCTURE
     1 RES1        1 GROUP             0 ****  ****    0  
     2 RES2       80 GROUP             0 ****  ****    0  
     3 RES3       88 GROUP             0 ****  ****    0  
     4 RES4       96 GROUP             0 ****  ****    0  
     5 RES5       97 GROUP             0 ****  ****    0  
     6 RES6      103 GROUP             0 ****  ****    0  
@<TRIPOS>CRYSIN
   10.9579   11.0245   22.8045   90.0000  103.5220   90.0000     7     1
