@<TRIPOS>MOLECULE
LIXSUI
    94    96     3     0     0
SMALL
USER_CHARGES
****
Generated from the CSD

@<TRIPOS>ATOM
     1 Fe1      1.4499   5.2413   2.6962   Fe        1 RES1   2.0000
     2 P1      -0.1193   6.1875   4.0459   P.3       1 RES1   0.0000
     3 P2       2.9948   4.4825   1.2344   P.3       1 RES1   0.0000
     4 O1      -0.2385   5.8515   0.3884   O.2       1 RES1   0.0000
     5 N1      -0.2017   2.6131   2.4985   N.pl3     1 RES1   0.0000
     6 N2       0.7640   3.4182   3.0076   N.2       1 RES1   0.0000
     7 N3       2.8418   7.9937   2.3496   N.pl3     1 RES1   0.0000
     8 N4       2.6009   6.8292   2.9777   N.2       1 RES1   0.0000
     9 N5       2.5112   4.6873   4.2315   N.ar      1 RES1   0.0000
    10 C1      -0.3293   1.4712   3.2326   C.2       1 RES1   0.0000
    11 C2       0.5902   1.5504   4.2544   C.2       1 RES1   0.0000
    12 C3       1.2492   2.7663   4.0801   C.2       1 RES1   0.0000
    13 C4       2.3093   3.4724   4.7827   C.ar      1 RES1   0.0000
    14 C5       3.0529   3.0431   5.8636   C.ar      1 RES1   0.0000
    15 C6       4.0348   3.8818   6.3769   C.ar      1 RES1   0.0000
    16 C7       4.2426   5.1396   5.8153   C.ar      1 RES1   0.0000
    17 C8       3.4680   5.5105   4.7286   C.ar      1 RES1   0.0000
    18 C9       3.5352   6.7361   3.9536   C.2       1 RES1   0.0000
    19 C10      4.3709   7.8577   3.9248   C.2       1 RES1   0.0000
    20 C11      3.9074   8.6437   2.8893   C.2       1 RES1   0.0000
    21 C12     -1.3678   0.4233   2.9202   C.3       1 RES1   0.0000
    22 C13     -2.7637   1.0741   2.9839   C.3       1 RES1   0.0000
    23 C14     -1.1261  -0.1703   1.5344   C.3       1 RES1   0.0000
    24 C15     -1.2774  -0.6962   3.9707   C.3       1 RES1   0.0000
    25 C16      4.4129   9.9356   2.3039   C.3       1 RES1   0.0000
    26 C17      3.3053  10.9879   2.3206   C.3       1 RES1   0.0000
    27 C18      4.8629   9.6865   0.8526   C.3       1 RES1   0.0000
    28 C19      5.6146  10.4272   3.1099   C.3       1 RES1   0.0000
    29 C20     -1.5379   5.1380   4.4498   C.3       1 RES1   0.0000
    30 C21     -0.8750   7.6795   3.3341   C.3       1 RES1   0.0000
    31 C22      0.4618   6.7440   5.6766   C.3       1 RES1   0.0000
    32 C23      2.4599   3.0911   0.2075   C.3       1 RES1   0.0000
    33 C24      3.5391   5.7220   0.0379   C.3       1 RES1   0.0000
    34 C25      4.5397   3.8957   1.9760   C.3       1 RES1   0.0000
    35 C26      0.4344   5.6630   1.2953   C.1       1 RES1   0.0000
    36 H1      -0.7173   2.8195   1.7525   H         1 RES1   0.0000
    37 H2       2.3371   8.3127   1.6369   H         1 RES1   0.0000
    38 H3       0.7440   0.9198   4.9213   H         1 RES1   0.0000
    39 H4       2.8984   2.2056   6.2361   H         1 RES1   0.0000
    40 H5       4.5545   3.6026   7.0973   H         1 RES1   0.0000
    41 H6       4.8866   5.7179   6.1578   H         1 RES1   0.0000
    42 H7       5.0883   8.0347   4.4889   H         1 RES1   0.0000
    43 H8      -2.8857   1.4874   3.8431   H         1 RES1   0.0000
    44 H9      -3.4358   0.4008   2.8539   H         1 RES1   0.0000
    45 H10     -2.8412   1.7376   2.2952   H         1 RES1   0.0000
    46 H11     -0.2610  -0.5862   1.5088   H         1 RES1   0.0000
    47 H12     -1.1677   0.5236   0.8736   H         1 RES1   0.0000
    48 H13     -1.8012  -0.8271   1.3504   H         1 RES1   0.0000
    49 H14     -1.8389  -1.4271   3.7025   H         1 RES1   0.0000
    50 H15     -1.5692  -0.3637   4.8217   H         1 RES1   0.0000
    51 H16     -0.3696  -1.0009   4.0406   H         1 RES1   0.0000
    52 H17      3.6336  11.8041   1.9376   H         1 RES1   0.0000
    53 H18      3.0241  11.1484   3.2239   H         1 RES1   0.0000
    54 H19      2.5596  10.6712   1.8059   H         1 RES1   0.0000
    55 H20      5.3998   8.8919   0.8184   H         1 RES1   0.0000
    56 H21      5.3780  10.4326   0.5391   H         1 RES1   0.0000
    57 H22      4.0896   9.5753   0.2953   H         1 RES1   0.0000
    58 H23      5.3490  10.5994   4.0157   H         1 RES1   0.0000
    59 H24      5.9491  11.2365   2.7151   H         1 RES1   0.0000
    60 H25      6.3026   9.7584   3.0994   H         1 RES1   0.0000
    61 H26     -2.0487   4.9695   3.6545   H         1 RES1   0.0000
    62 H27     -2.0912   5.5812   5.0992   H         1 RES1   0.0000
    63 H28     -1.2267   4.3046   4.8128   H         1 RES1   0.0000
    64 H29     -1.5218   8.0393   3.9463   H         1 RES1   0.0000
    65 H30     -1.3075   7.4485   2.5087   H         1 RES1   0.0000
    66 H31     -0.1945   8.3358   3.1670   H         1 RES1   0.0000
    67 H32     -0.2630   7.1566   6.1525   H         1 RES1   0.0000
    68 H33      1.1731   7.3790   5.5636   H         1 RES1   0.0000
    69 H34      0.7830   5.9889   6.1756   H         1 RES1   0.0000
    70 H35      2.3777   2.3075   0.7562   H         1 RES1   0.0000
    71 H36      1.6107   3.2945  -0.1904   H         1 RES1   0.0000
    72 H37      3.1067   2.9308  -0.4839   H         1 RES1   0.0000
    73 H38      4.0050   6.4245   0.4964   H         1 RES1   0.0000
    74 H39      4.1265   5.3124  -0.6014   H         1 RES1   0.0000
    75 H40      2.7768   6.0862  -0.4163   H         1 RES1   0.0000
    76 H41      5.1781   3.7022   1.2846   H         1 RES1   0.0000
    77 H42      4.8926   4.5757   2.5532   H         1 RES1   0.0000
    78 H43      4.3688   3.0999   2.4856   H         1 RES1   0.0000
    79 S1      -2.1270   3.1089  -1.2552   S.o2      2 RES2   0.0000
    80 F1      -4.0602   1.7316  -2.3747   F         2 RES2   0.0000
    81 F2      -2.3704   0.5356  -1.7879   F         2 RES2   0.0000
    82 F3      -3.7327   1.2710  -0.2994   F         2 RES2   0.0000
    83 O2      -1.2320   2.8029  -0.1690   O.3       2 RES2  -1.0000
    84 O3      -3.1236   4.0936  -0.9563   O.2       2 RES2   0.0000
    85 O4      -1.4921   3.2456  -2.5350   O.2       2 RES2   0.0000
    86 C27     -3.1092   1.5817  -1.4374   C.3       2 RES2   0.0000
    87 S2       1.0541   9.0172  -0.9522   S.o2      3 RES3   0.0000
    88 F4      -0.9879   9.6953  -2.4441   F         3 RES3   0.0000
    89 F5      -1.4861   8.4510  -0.7606   F         3 RES3   0.0000
    90 F6      -1.0334  10.5245  -0.4571   F         3 RES3   0.0000
    91 O5       1.1042   8.7459   0.4734   O.3       3 RES3  -1.0000
    92 O6       1.7733  10.1907  -1.3590   O.2       3 RES3   0.0000
    93 O7       1.2170   7.8577  -1.7803   O.2       3 RES3   0.0000
    94 C28     -0.6981   9.4528  -1.1652   C.3       3 RES3   0.0000
@<TRIPOS>BOND
     1     1     2    1
     2     2    29    1
     3     3     1    1
     4     4    35    3
     5     5     6    1
     6     6     1    1
     7     7     8    1
     8     8     1    1
     9     9     1    1
    10    10     5    1
    11    11    10    2
    12    12     6    2
    13    13     9   ar
    14    14    13   ar
    15    15    14   ar
    16    16    15   ar
    17    17     9   ar
    18    18     8    2
    19    19    18    1
    20    20     7    1
    21    21    10    1
    22    22    21    1
    23    23    21    1
    24    24    21    1
    25    25    20    1
    26    26    25    1
    27    27    25    1
    28    28    25    1
    29    29    61    1
    30    30     2    1
    31    31     2    1
    32    32     3    1
    33    33     3    1
    34    34     3    1
    35    35     1    1
    36    36     5    1
    37    37     7    1
    38    38    11    1
    39    39    14    1
    40    40    15    1
    41    41    16    1
    42    42    19    1
    43    43    22    1
    44    44    22    1
    45    45    22    1
    46    46    23    1
    47    47    23    1
    48    48    23    1
    49    49    24    1
    50    50    24    1
    51    51    24    1
    52    52    26    1
    53    53    26    1
    54    54    26    1
    55    55    27    1
    56    56    27    1
    57    57    27    1
    58    58    28    1
    59    59    28    1
    60    60    28    1
    61    62    29    1
    62    63    29    1
    63    64    30    1
    64    65    30    1
    65    66    30    1
    66    67    31    1
    67    68    31    1
    68    69    31    1
    69    70    32    1
    70    71    32    1
    71    72    32    1
    72    73    33    1
    73    74    33    1
    74    75    33    1
    75    76    34    1
    76    77    34    1
    77    78    34    1
    78    11    12    1
    79    12    13    1
    80    16    17   ar
    81    17    18    1
    82    19    20    2
    83    79    83    1
    84    80    86    1
    85    81    86    1
    86    82    86    1
    87    84    79    2
    88    85    79    2
    89    86    79    1
    90    87    91    1
    91    88    94    1
    92    89    94    1
    93    90    94    1
    94    92    87    2
    95    93    87    2
    96    94    87    1
@<TRIPOS>SUBSTRUCTURE
     1 RES1        1 GROUP             0 ****  ****    0  
     2 RES2       79 GROUP             0 ****  ****    0  
     3 RES3       87 GROUP             0 ****  ****    0  
@<TRIPOS>CRYSIN
    9.3301   23.1680   17.9180   90.0000   96.7960   90.0000    14     1
