@<TRIPOS>MOLECULE
LOBYIL
    76    84     1     0     0
SMALL
NO_CHARGES
****
Generated from the CSD

@<TRIPOS>ATOM
     1 C1       3.1888   6.2989  11.2957   C.ar      1 RES1   0.0000
     2 C2       3.1917   5.5368  10.1011   C.ar      1 RES1   0.0000
     3 C3       3.9212   6.0526   9.0084   C.ar      1 RES1   0.0000
     4 H1       3.9783   5.5518   8.2275   H         1 RES1   0.0000
     5 C4       4.5496   7.2724   9.0655   C.ar      1 RES1   0.0000
     6 H2       5.0193   7.5905   8.3294   H         1 RES1   0.0000
     7 C5       4.4817   8.0309  10.2292   C.ar      1 RES1   0.0000
     8 C6       3.8467   7.5531  11.3389   C.ar      1 RES1   0.0000
     9 H3       3.8463   8.0506  12.1229   H         1 RES1   0.0000
    10 C7       2.7196   5.7322  12.5242   C.2       1 RES1   0.0000
    11 H4       2.9657   6.1647  13.3097   H         1 RES1   0.0000
    12 C8       1.8841   4.1304  14.0181   C.3       1 RES1   0.0000
    13 H5       1.4632   3.2581  13.9733   H         1 RES1   0.0000
    14 H6       1.3113   4.7085  14.5444   H         1 RES1   0.0000
    15 C9       3.2009   3.9960  14.7080   C.2       1 RES1   0.0000
    16 C10      4.3593   3.4629  14.3654   C.2       1 RES1   0.0000
    17 H7       4.5551   3.0342  13.5644   H         1 RES1   0.0000
    18 C11      5.2511   3.6723  15.4580   C.2       1 RES1   0.0000
    19 H8       6.1420   3.4097  15.5074   H         1 RES1   0.0000
    20 C12      4.5764   4.3010  16.3686   C.2       1 RES1   0.0000
    21 H9       4.9148   4.5617  17.1943   H         1 RES1   0.0000
    22 C13     -1.2089   5.3675  12.4887   C.ar      1 RES1   0.0000
    23 C14     -0.4923   5.9796  11.4361   C.ar      1 RES1   0.0000
    24 C15     -0.7374   7.3527  11.2061   C.ar      1 RES1   0.0000
    25 H10     -0.3149   7.7759  10.4931   H         1 RES1   0.0000
    26 C16     -1.5878   8.0792  12.0118   C.ar      1 RES1   0.0000
    27 H11     -1.7250   8.9853  11.8482   H         1 RES1   0.0000
    28 C17     -2.2321   7.4585  13.0566   C.ar      1 RES1   0.0000
    29 C18     -2.0898   6.1382  13.2881   C.ar      1 RES1   0.0000
    30 H12     -2.5693   5.7317  13.9733   H         1 RES1   0.0000
    31 C19     -1.1872   3.9421  12.6661   C.2       1 RES1   0.0000
    32 H13     -1.8561   3.5660  13.1924   H         1 RES1   0.0000
    33 C20     -0.5184   1.6775  12.2880   C.3       1 RES1   0.0000
    34 H14     -0.7197   1.3226  11.4083   H         1 RES1   0.0000
    35 H15      0.3210   1.2826  12.5720   H         1 RES1   0.0000
    36 C21     -1.5741   1.2207  13.2156   C.2       1 RES1   0.0000
    37 C22     -2.7385   0.5934  13.0473   C.2       1 RES1   0.0000
    38 H16     -3.1349   0.3838  12.2325   H         1 RES1   0.0000
    39 C23     -3.2566   0.3053  14.3129   C.2       1 RES1   0.0000
    40 H17     -4.0606  -0.1208  14.5027   H         1 RES1   0.0000
    41 C24     -2.3888   0.7526  15.1710   C.2       1 RES1   0.0000
    42 H18     -2.4719   0.6682  16.0923   H         1 RES1   0.0000
    43 C25      2.1738   1.0197   9.6674   C.ar      1 RES1   0.0000
    44 C26      2.6140   1.2633  10.9855   C.ar      1 RES1   0.0000
    45 C27      3.5157   0.3386  11.5580   C.ar      1 RES1   0.0000
    46 H19      3.7501   0.4256  12.4547   H         1 RES1   0.0000
    47 C28      4.0501  -0.6868  10.8219   C.ar      1 RES1   0.0000
    48 H20      4.6503  -1.2777  11.2154   H         1 RES1   0.0000
    49 C29      3.6973  -0.8420   9.4884   C.ar      1 RES1   0.0000
    50 C30      2.7453  -0.0408   8.9297   C.ar      1 RES1   0.0000
    51 H21      2.4712  -0.1919   8.0531   H         1 RES1   0.0000
    52 C31      1.1518   1.8152   9.0393   C.2       1 RES1   0.0000
    53 H22      0.8708   1.5376   8.1966   H         1 RES1   0.0000
    54 C32     -0.4805   3.4763   8.6905   C.3       1 RES1   0.0000
    55 H23     -0.3552   4.4377   8.6751   H         1 RES1   0.0000
    56 H24     -0.4047   3.1529   7.7784   H         1 RES1   0.0000
    57 C33     -1.8299   3.1733   9.1967   C.2       1 RES1   0.0000
    58 C34     -2.8551   3.9160   9.6428   C.2       1 RES1   0.0000
    59 H25     -2.8668   4.8389   9.7523   H         1 RES1   0.0000
    60 C35     -3.9114   3.0183   9.9097   C.2       1 RES1   0.0000
    61 H26     -4.7492   3.2369  10.2477   H         1 RES1   0.0000
    62 C36     -3.4883   1.8129   9.5934   C.2       1 RES1   0.0000
    63 H27     -4.0023   1.0402   9.6520   H         1 RES1   0.0000
    64 Cl1      5.2241   9.6093  10.2389   Cl        1 RES1   0.0000
    65 Cl2     -3.2773   8.4268  14.0832   Cl        1 RES1   0.0000
    66 Cl3      4.5178  -2.0448   8.5265   Cl        1 RES1   0.0000
    67 Fe1      1.2148   3.7670  11.1199   Fe        1 RES1   0.0000
    68 N1       1.9902   4.6834  12.6399   N.2       1 RES1   0.0000
    69 N2      -0.3129   3.1399  12.1553   N.2       1 RES1   0.0000
    70 N3       0.5887   2.8618   9.5126   N.2       1 RES1   0.0000
    71 O1       2.6351   4.3534   9.9994   O.3       1 RES1   0.0000
    72 O2       3.2919   4.5267  15.9411   O.3       1 RES1   0.0000
    73 O3       0.3184   5.3477  10.6305   O.3       1 RES1   0.0000
    74 O4      -1.3367   1.3657  14.5428   O.3       1 RES1   0.0000
    75 O5       2.2236   2.2796  11.7154   O.3       1 RES1   0.0000
    76 O6      -2.1801   1.8545   9.1643   O.3       1 RES1   0.0000
@<TRIPOS>BOND
     1     1     2   ar
     2     2     3   ar
     3     3     4    1
     4     5     3   ar
     5     6     5    1
     6     7     5   ar
     7     8     1   ar
     8     9     8    1
     9    10     1    1
    10    11    10    1
    11    12    13    1
    12    14    12    1
    13    15    12    1
    14    16    15    2
    15    17    16    1
    16    18    16    1
    17    19    18    1
    18    20    18    2
    19    21    20    1
    20    22    23   ar
    21    23    24   ar
    22    24    25    1
    23    26    24   ar
    24    27    26    1
    25    28    26   ar
    26    29    22   ar
    27    30    29    1
    28    31    22    1
    29    32    31    1
    30    33    34    1
    31    35    33    1
    32    36    33    1
    33    37    36    2
    34    38    37    1
    35    39    37    1
    36    40    39    1
    37    41    39    2
    38    42    41    1
    39    43    44   ar
    40    44    45   ar
    41    45    46    1
    42    47    45   ar
    43    48    47    1
    44    49    47   ar
    45    50    43   ar
    46    51    50    1
    47    52    43    1
    48    53    52    1
    49    54    55    1
    50    56    54    1
    51    57    54    1
    52    58    57    2
    53    59    58    1
    54    60    58    1
    55    61    60    1
    56    62    60    2
    57    63    62    1
    58    64     7    1
    59    65    28    1
    60    66    49    1
    61    67    68    1
    62    68    10    2
    63    69    31    2
    64    70    52    2
    65    71     2    1
    66    72    15    1
    67    73    23    1
    68    74    36    1
    69    75    44    1
    70    76    57    1
    71     7     8   ar
    72    12    68    1
    73    20    72    1
    74    28    29   ar
    75    33    69    1
    76    41    74    1
    77    49    50   ar
    78    54    70    1
    79    62    76    1
    80    67    69    1
    81    67    70    1
    82    67    71    1
    83    67    73    1
    84    67    75    1
@<TRIPOS>SUBSTRUCTURE
     1 RES1        1 GROUP             0 ****  ****    0  
@<TRIPOS>CRYSIN
    9.6220   11.5420   16.6050  103.0000  102.8100  105.5000     2     1
