@<TRIPOS>MOLECULE
LOCTEF
    76    84     3     0     0
SMALL
USER_CHARGES
****
Generated from the CSD

@<TRIPOS>ATOM
     1 Fe1      6.1606   8.0088   3.6217   Fe        1 RES1   2.0000
     2 N1       5.7516   6.9929   1.8026   N.ar      1 RES1   0.0000
     3 N2       4.0571   7.8980   3.9861   N.ar      1 RES1   0.0000
     4 N3       5.9665   8.4048   5.6720   N.ar      1 RES1   0.0000
     5 N4       8.0741   8.7408   4.2349   N.ar      1 RES1   0.0000
     6 N5       6.3987   9.8345   2.3624   N.ar      1 RES1   0.0000
     7 N6       6.6287   5.9994   4.4034   N.1       1 RES1   0.0000
     8 C1       6.8472   6.5005   1.2324   C.ar      1 RES1   0.0000
     9 H1       7.5516   6.2043   1.7970   H         1 RES1   0.0000
    10 C2       7.0188   6.3927  -0.1568   C.ar      1 RES1   0.0000
    11 H2       7.8126   6.0168  -0.5199   H         1 RES1   0.0000
    12 C3       6.0312   6.8342  -0.9654   C.ar      1 RES1   0.0000
    13 H3       6.1466   6.8160  -1.9086   H         1 RES1   0.0000
    14 C4       4.6985   7.3543   1.0043   C.ar      1 RES1   0.0000
    15 C5       4.8377   7.3183  -0.4160   C.ar      1 RES1   0.0000
    16 C6       3.7692   7.7797  -1.2298   C.ar      1 RES1   0.0000
    17 H4       3.8542   7.7621  -2.1756   H         1 RES1   0.0000
    18 C7       2.6331   8.2425  -0.6648   C.ar      1 RES1   0.0000
    19 H5       1.9374   8.5820  -1.2161   H         1 RES1   0.0000
    20 C8       2.4740   8.2269   0.7231   C.ar      1 RES1   0.0000
    21 H6       1.6556   8.5412   1.0909   H         1 RES1   0.0000
    22 C9       3.4610   7.7712   1.5913   C.ar      1 RES1   0.0000
    23 C10      3.1276   7.6539   3.0310   C.ar      1 RES1   0.0000
    24 C11      1.8294   7.2717   3.3939   C.ar      1 RES1   0.0000
    25 H7       1.1969   7.0326   2.7263   H         1 RES1   0.0000
    26 C12      1.4775   7.2456   4.7299   C.ar      1 RES1   0.0000
    27 H8       0.5955   7.0015   4.9850   H         1 RES1   0.0000
    28 C13      2.4091   7.5725   5.6954   C.ar      1 RES1   0.0000
    29 H9       2.1676   7.5940   6.6137   H         1 RES1   0.0000
    30 C14      3.7078   7.8711   5.2962   C.ar      1 RES1   0.0000
    31 C15      4.7984   8.1158   6.2552   C.ar      1 RES1   0.0000
    32 C16      4.7214   8.0066   7.6456   C.ar      1 RES1   0.0000
    33 H10      3.8958   7.8018   8.0675   H         1 RES1   0.0000
    34 C17      5.8644   8.1999   8.3985   C.ar      1 RES1   0.0000
    35 H11      5.8214   8.1326   9.3454   H         1 RES1   0.0000
    36 C18      7.0675   8.4920   7.7856   C.ar      1 RES1   0.0000
    37 H12      7.8568   8.6332   8.2946   H         1 RES1   0.0000
    38 C19      7.0812   8.5724   6.3925   C.ar      1 RES1   0.0000
    39 C20      8.2789   8.8268   5.5723   C.ar      1 RES1   0.0000
    40 C21      9.5136   9.1847   6.0854   C.ar      1 RES1   0.0000
    41 H13      9.6565   9.2162   7.0239   H         1 RES1   0.0000
    42 C22     10.5374   9.4970   5.2068   C.ar      1 RES1   0.0000
    43 H14     11.4015   9.7186   5.5345   H         1 RES1   0.0000
    44 C23     10.2897   9.4815   3.8474   C.ar      1 RES1   0.0000
    45 H15     10.9722   9.7312   3.2355   H         1 RES1   0.0000
    46 C24      9.0322   9.0995   3.3770   C.ar      1 RES1   0.0000
    47 C25      8.6975   9.1738   1.9321   C.ar      1 RES1   0.0000
    48 C26      9.6657   8.8630   0.9952   C.ar      1 RES1   0.0000
    49 H16     10.4995   8.5196   1.2938   H         1 RES1   0.0000
    50 C27      9.4619   9.0383  -0.3784   C.ar      1 RES1   0.0000
    51 H17     10.1252   8.7665  -1.0012   H         1 RES1   0.0000
    52 C28      8.3046   9.6007  -0.8073   C.ar      1 RES1   0.0000
    53 H18      8.1829   9.7599  -1.7365   H         1 RES1   0.0000
    54 C29      7.2756   9.9535   0.0946   C.ar      1 RES1   0.0000
    55 C30      7.4474   9.6665   1.4799   C.ar      1 RES1   0.0000
    56 C31      6.0832  10.5532  -0.3201   C.ar      1 RES1   0.0000
    57 H19      5.9502  10.7606  -1.2380   H         1 RES1   0.0000
    58 C32      5.1171  10.8367   0.5870   C.ar      1 RES1   0.0000
    59 H20      4.3336  11.3059   0.3252   H         1 RES1   0.0000
    60 C33      5.2945  10.4262   1.9244   C.ar      1 RES1   0.0000
    61 H21      4.5887  10.5807   2.5423   H         1 RES1   0.0000
    62 C34      6.8451   4.9684   4.8258   C.1       1 RES1   0.0000
    63 C35      7.1493   3.6674   5.3688   C.3       1 RES1   0.0000
    64 H22      8.0907   3.4533   5.1968   H         1 RES1   0.0000
    65 H23      6.5790   2.9935   4.9432   H         1 RES1   0.0000
    66 H24      6.9868   3.6699   6.3351   H         1 RES1   0.0000
    67 Cl1      4.6667   0.4791   3.7364   Cl        2 RES2   0.0000
    68 O1       5.9126   1.1737   3.6816   O.2       2 RES2   0.0000
    69 O2       4.6017  -0.4512   2.6501   O.2       2 RES2   0.0000
    70 O3       4.5951  -0.2707   4.9593   O.3       2 RES2  -1.0000
    71 O4       3.5594   1.3704   3.6414   O.2       2 RES2   0.0000
    72 Cl2     -1.2076   4.8550   3.1728   Cl        3 RES3   0.0000
    73 O5      -1.1870   5.9393   2.2730   O.2       3 RES3   0.0000
    74 O6       0.0531   4.2112   3.0686   O.2       3 RES3   0.0000
    75 O7      -2.2704   3.9701   2.8224   O.3       3 RES3  -1.0000
    76 O8      -1.3863   5.3057   4.4785   O.2       3 RES3   0.0000
@<TRIPOS>BOND
     1     1     2    1
     2     2     8   ar
     3     3     1    1
     4     4     1    1
     5     5     1    1
     6     6     1    1
     7     7     1    1
     8     8     9    1
     9    10     8   ar
    10    11    10    1
    11    12    10   ar
    12    13    12    1
    13    14     2   ar
    14    15    12   ar
    15    16    15   ar
    16    17    16    1
    17    18    16   ar
    18    19    18    1
    19    20    18   ar
    20    21    20    1
    21    22    14   ar
    22    23     3   ar
    23    24    23   ar
    24    25    24    1
    25    26    24   ar
    26    27    26    1
    27    28    26   ar
    28    29    28    1
    29    30     3   ar
    30    31     4   ar
    31    32    31   ar
    32    33    32    1
    33    34    32   ar
    34    35    34    1
    35    36    34   ar
    36    37    36    1
    37    38     4   ar
    38    39     5   ar
    39    40    39   ar
    40    41    40    1
    41    42    40   ar
    42    43    42    1
    43    44    42   ar
    44    45    44    1
    45    46     5   ar
    46    47    46    1
    47    48    47   ar
    48    49    48    1
    49    50    48   ar
    50    51    50    1
    51    52    50   ar
    52    53    52    1
    53    54    52   ar
    54    55     6   ar
    55    56    54   ar
    56    57    56    1
    57    58    56   ar
    58    59    58    1
    59    60     6   ar
    60    61    60    1
    61    62     7    3
    62    63    62    1
    63    64    63    1
    64    65    63    1
    65    66    63    1
    66    14    15   ar
    67    20    22   ar
    68    22    23    1
    69    28    30   ar
    70    30    31    1
    71    36    38   ar
    72    38    39    1
    73    44    46   ar
    74    47    55   ar
    75    54    55   ar
    76    58    60   ar
    77    67    68    2
    78    69    67    2
    79    70    67    1
    80    71    67    2
    81    72    73    2
    82    74    72    2
    83    75    72    1
    84    76    72    2
@<TRIPOS>SUBSTRUCTURE
     1 RES1        1 GROUP             0 ****  ****    0  
     2 RES2       67 GROUP             0 ****  ****    0  
     3 RES3       72 GROUP             0 ****  ****    0  
@<TRIPOS>CRYSIN
   11.4470   11.5457   13.5944   94.0380  105.6440  103.3650     2     1
