@<TRIPOS>MOLECULE
LOKQEH
    93    95     1     0     0
SMALL
NO_CHARGES
****
Generated from the CSD

@<TRIPOS>ATOM
     1 I1       2.7296   2.9081   0.9598   I         1 RES1   0.0000
     2 Fe1      0.4073   2.9263   2.4784   Fe        1 RES1   0.0000
     3 S1      -5.2892   3.4070   2.7467   S.3       1 RES1   0.0000
     4 P1       1.5428   3.9075   4.1678   P.3       1 RES1   0.0000
     5 P2       1.0506   0.9615   3.4095   P.3       1 RES1   0.0000
     6 P3      -0.7498   1.9328   0.8017   P.3       1 RES1   0.0000
     7 P4      -0.2724   4.8566   1.5261   P.3       1 RES1   0.0000
     8 C1      -1.1733   2.9337   3.7118   C.2       1 RES1   0.0000
     9 C2      -2.4140   3.1063   3.6375   C.2       1 RES1   0.0000
    10 C3      -3.4120   3.1309   4.6874   C.ar      1 RES1   0.0000
    11 C4      -4.8010   3.2961   4.4329   C.ar      1 RES1   0.0000
    12 C5      -5.7046   3.2788   5.5040   C.ar      1 RES1   0.0000
    13 C6      -5.3270   3.1556   6.7342   C.ar      1 RES1   0.0000
    14 C7      -4.0188   3.0323   7.0735   C.ar      1 RES1   0.0000
    15 C8      -3.1153   3.0570   5.9600   C.ar      1 RES1   0.0000
    16 C9      -7.0532   3.5254   2.8103   C.3       1 RES1   0.0000
    17 C10      2.4275   2.7365   5.0904   C.3       1 RES1   0.0000
    18 C11      1.8476   1.5285   4.9737   C.3       1 RES1   0.0000
    19 C12      2.8995   5.1278   3.8496   C.3       1 RES1   0.0000
    20 C13      3.7896   5.5716   4.9737   C.3       1 RES1   0.0000
    21 C14      0.5664   4.9306   5.4510   C.3       1 RES1   0.0000
    22 C15      0.7957   4.7827   6.8614   C.3       1 RES1   0.0000
    23 C16      2.0634  -0.3451   2.4073   C.3       1 RES1   0.0000
    24 C17      3.0478  -0.6656   2.9694   C.3       1 RES1   0.0000
    25 C18     -0.2427  -0.1479   4.0087   C.3       1 RES1   0.0000
    26 C19      0.1079  -1.2573   4.9950   C.3       1 RES1   0.0000
    27 C20     -1.2542   3.2049  -0.3288   C.3       1 RES1   0.0000
    28 C21     -1.7127   4.3389   0.2121   C.3       1 RES1   0.0000
    29 C22      0.1753   0.9368  -0.4136   C.3       1 RES1   0.0000
    30 C23     -0.5125   0.5424  -1.6650   C.3       1 RES1   0.0000
    31 C24     -2.1712   0.8875   1.2408   C.3       1 RES1   0.0000
    32 C25     -3.2906   0.6903   0.3712   C.3       1 RES1   0.0000
    33 C26      0.7013   5.7688   0.2969   C.3       1 RES1   0.0000
    34 C27      1.2812   6.7303   0.7424   C.3       1 RES1   0.0000
    35 C28     -1.1193   6.1139   2.5134   C.3       1 RES1   0.0000
    36 C29     -1.9690   7.1494   1.8135   C.3       1 RES1   0.0000
    37 H1      -0.9076   2.7759   4.6015   H         1 RES1   0.0000
    38 H2      -2.7538   3.2369   2.7626   H         1 RES1   0.0000
    39 H3      -6.6270   3.3577   5.3014   H         1 RES1   0.0000
    40 H4      -5.9905   3.1876   7.4214   H         1 RES1   0.0000
    41 H5      -3.7289   2.8918   7.9665   H         1 RES1   0.0000
    42 H6      -2.1861   3.0274   6.1891   H         1 RES1   0.0000
    43 H7      -7.3081   4.3118   3.2897   H         1 RES1   0.0000
    44 H8      -7.4065   3.5895   1.9206   H         1 RES1   0.0000
    45 H9      -7.4213   2.7661   3.2356   H         1 RES1   0.0000
    46 H10      3.3176   2.6601   4.7627   H         1 RES1   0.0000
    47 H11      2.4491   2.9805   6.0067   H         1 RES1   0.0000
    48 H12      1.0924   1.5162   5.6037   H         1 RES1   0.0000
    49 H13      2.4356   0.8555   5.1943   H         1 RES1   0.0000
    50 H14      3.4646   4.7358   3.1942   H         1 RES1   0.0000
    51 H15      2.4909   5.9044   3.5050   H         1 RES1   0.0000
    52 H16      4.2521   4.8172   5.3386   H         1 RES1   0.0000
    53 H17      4.4302   6.1953   4.6482   H         1 RES1   0.0000
    54 H18      3.2731   5.9784   5.6578   H         1 RES1   0.0000
    55 H19      0.7175   5.8280   5.2336   H         1 RES1   0.0000
    56 H20     -0.3520   4.7063   5.2961   H         1 RES1   0.0000
    57 H21      0.6163   3.8878   7.1297   H         1 RES1   0.0000
    58 H22      1.6831   5.0120   7.0672   H         1 RES1   0.0000
    59 H23      0.1955   5.3670   7.3302   H         1 RES1   0.0000
    60 H24      1.5617  -1.1883   2.4105   H         1 RES1   0.0000
    61 H25      2.2036  -0.0715   1.5451   H         1 RES1   0.0000
    62 H26      2.9157  -0.8481   3.8517   H         1 RES1   0.0000
    63 H27      3.5657  -1.2031   2.4901   H         1 RES1   0.0000
    64 H28      3.5576   0.2663   2.9842   H         1 RES1   0.0000
    65 H29     -0.8847   0.3944   4.4541   H         1 RES1   0.0000
    66 H30     -0.6271  -0.5621   3.2610   H         1 RES1   0.0000
    67 H31     -0.6730  -1.7504   5.2039   H         1 RES1   0.0000
    68 H32      0.7485  -1.8416   4.5898   H         1 RES1   0.0000
    69 H33      0.4774  -0.8875   5.7829   H         1 RES1   0.0000
    70 H34     -0.5152   3.3923  -0.8876   H         1 RES1   0.0000
    71 H35     -1.9676   2.8499  -0.8473   H         1 RES1   0.0000
    72 H36     -2.5111   4.2305   0.6087   H         1 RES1   0.0000
    73 H37     -1.7383   5.0021  -0.4921   H         1 RES1   0.0000
    74 H38      0.9197   1.4249  -0.6575   H         1 RES1   0.0000
    75 H39      0.4181   0.1331   0.0414   H         1 RES1   0.0000
    76 H40     -0.7889   1.2918  -2.1284   H         1 RES1   0.0000
    77 H41      0.0728   0.0025  -2.1719   H         1 RES1   0.0000
    78 H42     -1.2893  -0.0000  -1.4296   H         1 RES1   0.0000
    79 H43     -1.8193   0.0197   1.4189   H         1 RES1   0.0000
    80 H44     -2.5421   1.2499   2.0425   H         1 RES1   0.0000
    81 H45     -3.7046   1.5236   0.1898   H         1 RES1   0.0000
    82 H46     -2.9898   0.3008  -0.4422   H         1 RES1   0.0000
    83 H47     -3.9204   0.1060   0.7848   H         1 RES1   0.0000
    84 H48      1.2785   5.3201  -0.2619   H         1 RES1   0.0000
    85 H49      0.1443   6.3777  -0.2991   H         1 RES1   0.0000
    86 H50      2.0364   6.1978   1.4338   H         1 RES1   0.0000
    87 H51      1.9514   7.1888   0.2429   H         1 RES1   0.0000
    88 H52      0.9063   7.2578   1.3861   H         1 RES1   0.0000
    89 H53     -1.6844   5.6603   3.1232   H         1 RES1   0.0000
    90 H54     -0.4464   6.5873   2.9970   H         1 RES1   0.0000
    91 H55     -2.3425   7.7435   2.4635   H         1 RES1   0.0000
    92 H56     -1.4241   7.6548   1.2153   H         1 RES1   0.0000
    93 H57     -2.6608   6.7253   1.3352   H         1 RES1   0.0000
@<TRIPOS>BOND
     1     1     2    1
     2     2     4    1
     3     3    11    1
     4     4    17    1
     5     5     2    1
     6     6     2    1
     7     7     2    1
     8     8     2    1
     9     9     8    2
    10    10     9    1
    11    11    10   ar
    12    12    11   ar
    13    13    12   ar
    14    14    13   ar
    15    15    10   ar
    16    16     3    1
    17    17    18    1
    18    18     5    1
    19    19     4    1
    20    20    19    1
    21    21     4    1
    22    22    21    1
    23    23     5    1
    24    24    23    1
    25    25     5    1
    26    26    25    1
    27    27     6    1
    28    28     7    1
    29    29     6    1
    30    30    29    1
    31    31     6    1
    32    32    31    1
    33    33     7    1
    34    34    33    1
    35    35     7    1
    36    36    35    1
    37    37     8    1
    38    38     9    1
    39    39    12    1
    40    40    13    1
    41    41    14    1
    42    42    15    1
    43    43    16    1
    44    44    16    1
    45    45    16    1
    46    46    17    1
    47    47    17    1
    48    48    18    1
    49    49    18    1
    50    50    19    1
    51    51    19    1
    52    52    20    1
    53    53    20    1
    54    54    20    1
    55    55    21    1
    56    56    21    1
    57    57    22    1
    58    58    22    1
    59    59    22    1
    60    60    23    1
    61    61    23    1
    62    62    24    1
    63    63    24    1
    64    64    24    1
    65    65    25    1
    66    66    25    1
    67    67    26    1
    68    68    26    1
    69    69    26    1
    70    70    27    1
    71    71    27    1
    72    72    28    1
    73    73    28    1
    74    74    29    1
    75    75    29    1
    76    76    30    1
    77    77    30    1
    78    78    30    1
    79    79    31    1
    80    80    31    1
    81    81    32    1
    82    82    32    1
    83    83    32    1
    84    84    33    1
    85    85    33    1
    86    86    34    1
    87    87    34    1
    88    88    34    1
    89    89    35    1
    90    90    35    1
    91    91    36    1
    92    92    36    1
    93    93    36    1
    94    14    15   ar
    95    27    28    1
@<TRIPOS>SUBSTRUCTURE
     1 RES1        1 GROUP             0 ****  ****    0  
@<TRIPOS>CRYSIN
   13.4860   24.6530   10.6050   90.0000   90.0000   90.0000    19     1
