@<TRIPOS>MOLECULE
LOKQAD
    83    85     1     0     0
SMALL
NO_CHARGES
****
Generated from the CSD

@<TRIPOS>ATOM
     1 Fe1      0.3936  14.8003   3.7303   Fe        1 RES1   0.0000
     2 P1       0.9756  16.0605   2.0124   P.3       1 RES1   0.0000
     3 P2      -0.9938  16.4568   4.2388   P.3       1 RES1   0.0000
     4 P3      -0.2600  13.4908   5.3878   P.3       1 RES1   0.0000
     5 P4       1.3351  12.9867   2.8912   P.3       1 RES1   0.0000
     6 N1       2.0374  15.4772   4.8472   N.2       1 RES1   0.0000
     7 C1       2.7078  16.7044   2.0002   C.3       1 RES1   0.0000
     8 C2       3.1714  17.5866   0.8659   C.3       1 RES1   0.0000
     9 C3       0.7848  15.5172   0.2668   C.3       1 RES1   0.0000
    10 C4      -0.6241  15.1160  -0.1326   C.3       1 RES1   0.0000
    11 C5      -2.7204  16.2415   3.6090   C.3       1 RES1   0.0000
    12 C6      -3.5725  17.4051   3.2975   C.3       1 RES1   0.0000
    13 C7      -1.2567  17.0747   5.9719   C.3       1 RES1   0.0000
    14 C8      -2.0733  17.9678   6.4320   C.3       1 RES1   0.0000
    15 C9      -0.4601  17.9805   3.3678   C.3       1 RES1   0.0000
    16 C10     -0.0310  17.6120   1.9778   C.3       1 RES1   0.0000
    17 C11     -2.0331  13.2680   5.8792   C.3       1 RES1   0.0000
    18 C12     -2.9695  12.7398   4.7960   C.3       1 RES1   0.0000
    19 C13      0.4999  13.8181   7.0343   C.3       1 RES1   0.0000
    20 C14      0.3273  12.8033   8.1446   C.3       1 RES1   0.0000
    21 C15      0.5196  12.0935   1.5066   C.3       1 RES1   0.0000
    22 C16     -0.8841  11.5998   1.6839   C.3       1 RES1   0.0000
    23 C17      3.0495  13.0066   2.1791   C.3       1 RES1   0.0000
    24 C18      3.8479  11.7141   2.1552   C.3       1 RES1   0.0000
    25 C19      0.1819  11.7250   5.0309   C.3       1 RES1   0.0000
    26 C20      1.4319  11.6597   4.1714   C.3       1 RES1   0.0000
    27 C21      3.1945  14.8038   5.1012   C.2       1 RES1   0.0000
    28 C22      4.0656  15.5698   5.8265   C.2       1 RES1   0.0000
    29 C23      3.4566  16.7952   6.0230   C.2       1 RES1   0.0000
    30 C24      2.2342  16.6917   5.4095   C.2       1 RES1   0.0000
    31 H1       2.8554  17.1854   2.8166   H         1 RES1   0.0000
    32 H2       3.3065  15.9401   2.0082   H         1 RES1   0.0000
    33 H3       4.0726  17.8662   0.9745   H         1 RES1   0.0000
    34 H4       3.0789  17.1401   0.0304   H         1 RES1   0.0000
    35 H5       2.6171  18.3835   0.8340   H         1 RES1   0.0000
    36 H6       1.0988  16.2070  -0.3211   H         1 RES1   0.0000
    37 H7       1.3720  14.7439   0.1182   H         1 RES1   0.0000
    38 H8      -1.2288  15.8657  -0.0080   H         1 RES1   0.0000
    39 H9      -0.6946  14.8346  -1.0369   H         1 RES1   0.0000
    40 H10     -0.9555  14.4026   0.4298   H         1 RES1   0.0000
    41 H11     -2.6783  15.7042   2.7926   H         1 RES1   0.0000
    42 H12     -3.2113  15.6915   4.2497   H         1 RES1   0.0000
    43 H13     -3.7226  17.9497   4.0835   H         1 RES1   0.0000
    44 H14     -3.1847  17.9660   2.6281   H         1 RES1   0.0000
    45 H15     -4.4617  17.1564   2.9732   H         1 RES1   0.0000
    46 H16     -1.5579  16.2633   6.4799   H         1 RES1   0.0000
    47 H17     -0.3862  17.2671   6.3250   H         1 RES1   0.0000
    48 H18     -2.0159  18.1294   7.3219   H         1 RES1   0.0000
    49 H19     -1.7761  18.8301   5.9575   H         1 RES1   0.0000
    50 H20     -2.9461  17.8244   6.1173   H         1 RES1   0.0000
    51 H21     -1.1699  18.6359   3.3486   H         1 RES1   0.0000
    52 H22      0.2836  18.4017   3.8375   H         1 RES1   0.0000
    53 H23      0.4899  18.3291   1.5689   H         1 RES1   0.0000
    54 H24     -0.8059  17.4904   1.4123   H         1 RES1   0.0000
    55 H25     -2.0840  12.6926   6.6445   H         1 RES1   0.0000
    56 H26     -2.3876  14.1357   6.1620   H         1 RES1   0.0000
    57 H27     -3.8634  12.6236   5.0804   H         1 RES1   0.0000
    58 H28     -2.9614  13.2989   4.0132   H         1 RES1   0.0000
    59 H29     -2.6516  11.8557   4.4909   H         1 RES1   0.0000
    60 H30      1.4623  13.9270   6.9049   H         1 RES1   0.0000
    61 H31      0.1726  14.6585   7.3618   H         1 RES1   0.0000
    62 H32     -0.6014  12.6762   8.3428   H         1 RES1   0.0000
    63 H33      0.6911  11.9483   7.8890   H         1 RES1   0.0000
    64 H34      0.7677  13.0702   8.9578   H         1 RES1   0.0000
    65 H35      0.5644  12.6781   0.7109   H         1 RES1   0.0000
    66 H36      1.0555  11.3202   1.2797   H         1 RES1   0.0000
    67 H37     -1.4718  12.4167   1.8421   H         1 RES1   0.0000
    68 H38     -1.2442  11.2095   0.8963   H         1 RES1   0.0000
    69 H39     -0.9802  11.0643   2.4188   H         1 RES1   0.0000
    70 H40      3.0044  13.3316   1.2685   H         1 RES1   0.0000
    71 H41      3.5792  13.6583   2.6712   H         1 RES1   0.0000
    72 H42      3.9468  11.3765   3.0514   H         1 RES1   0.0000
    73 H43      3.3762  11.0515   1.6455   H         1 RES1   0.0000
    74 H44      4.7123  11.8285   1.7797   H         1 RES1   0.0000
    75 H45      0.3218  11.2567   5.8601   H         1 RES1   0.0000
    76 H46     -0.5415  11.2984   4.5724   H         1 RES1   0.0000
    77 H47      1.5276  10.8065   3.7592   H         1 RES1   0.0000
    78 H48      2.2206  11.8031   4.7226   H         1 RES1   0.0000
    79 H49      3.3655  13.8762   4.7976   H         1 RES1   0.0000
    80 H50      4.9505  15.2721   6.1396   H         1 RES1   0.0000
    81 H51      3.8150  17.5903   6.5071   H         1 RES1   0.0000
    82 H52      1.5517  17.3978   5.3840   H         1 RES1   0.0000
    83 H53     -0.5790  14.3772   2.9875   H         1 RES1   0.0000
@<TRIPOS>BOND
     1     1     2    1
     2     2     7    1
     3     3     1    1
     4     4     1    1
     5     5     1    1
     6     6     1    1
     7     7     8    1
     8     8    33    1
     9     9     2    1
    10    10     9    1
    11    11     3    1
    12    12    11    1
    13    13     3    1
    14    14    13    1
    15    15     3    1
    16    16     2    1
    17    17     4    1
    18    18    17    1
    19    19     4    1
    20    20    19    1
    21    21     5    1
    22    22    21    1
    23    23     5    1
    24    24    23    1
    25    25     4    1
    26    26     5    1
    27    27     6    1
    28    28    27    2
    29    29    28    1
    30    30     6    1
    31    31     7    1
    32    32     7    1
    33    34     8    1
    34    35     8    1
    35    36     9    1
    36    37     9    1
    37    38    10    1
    38    39    10    1
    39    40    10    1
    40    41    11    1
    41    42    11    1
    42    43    12    1
    43    44    12    1
    44    45    12    1
    45    46    13    1
    46    47    13    1
    47    48    14    1
    48    49    14    1
    49    50    14    1
    50    51    15    1
    51    52    15    1
    52    53    16    1
    53    54    16    1
    54    55    17    1
    55    56    17    1
    56    57    18    1
    57    58    18    1
    58    59    18    1
    59    60    19    1
    60    61    19    1
    61    62    20    1
    62    63    20    1
    63    64    20    1
    64    65    21    1
    65    66    21    1
    66    67    22    1
    67    68    22    1
    68    69    22    1
    69    70    23    1
    70    71    23    1
    71    72    24    1
    72    73    24    1
    73    74    24    1
    74    75    25    1
    75    76    25    1
    76    77    26    1
    77    78    26    1
    78    79    27    1
    79    80    28    1
    80    81    29    1
    81    82    30    1
    82    83     1    1
    83    15    16    1
    84    25    26    1
    85    29    30    2
@<TRIPOS>SUBSTRUCTURE
     1 RES1        1 GROUP             0 ****  ****    0  
@<TRIPOS>CRYSIN
    9.9860   18.1530   16.0050   90.0000   93.4400   90.0000   231     1
