@<TRIPOS>MOLECULE
LOLZUJ
    95   104     3     0     0
SMALL
USER_CHARGES
****
Generated from the CSD

@<TRIPOS>ATOM
     1 Fe1     11.8050   2.0141   3.6118   Fe        1 RES1   2.0000
     2 Cl1     22.8583   2.8121   5.7979   Cl        1 RES1   0.0000
     3 Cl2      2.0108   0.7836  -1.9589   Cl        1 RES1   0.0000
     4 N1      12.2423   3.9446   3.5834   N.ar      1 RES1   0.0000
     5 N2      13.5624   1.9414   4.2977   N.ar      1 RES1   0.0000
     6 N3      11.9234   0.0697   3.9790   N.ar      1 RES1   0.0000
     7 N4      12.2735   1.8107   1.6900   N.ar      1 RES1   0.0000
     8 N5      10.0710   2.0211   2.8700   N.ar      1 RES1   0.0000
     9 N6      10.7582   2.2424   5.2689   N.ar      1 RES1   0.0000
    10 C1      11.4133   4.9649   3.2868   C.ar      1 RES1   0.0000
    11 H1      10.5084   4.7725   3.0731   H         1 RES1   0.0000
    12 C2      11.8368   6.2868   3.2828   C.ar      1 RES1   0.0000
    13 H2      11.2305   6.9860   3.0701   H         1 RES1   0.0000
    14 C3      13.1591   6.5741   3.5935   C.ar      1 RES1   0.0000
    15 H3      13.4760   7.4698   3.5711   H         1 RES1   0.0000
    16 C4      14.0104   5.5379   3.9351   C.ar      1 RES1   0.0000
    17 H4      14.9137   5.7162   4.1708   H         1 RES1   0.0000
    18 C5      13.5281   4.2336   3.9291   C.ar      1 RES1   0.0000
    19 C6      14.3108   3.0610   4.3202   C.ar      1 RES1   0.0000
    20 C7      15.6387   3.0180   4.6937   C.ar      1 RES1   0.0000
    21 H5      16.1633   3.8093   4.6747   H         1 RES1   0.0000
    22 C8      16.2094   1.8092   5.1000   C.ar      1 RES1   0.0000
    23 C9      15.4030   0.6593   5.1068   C.ar      1 RES1   0.0000
    24 H6      15.7538  -0.1742   5.3970   H         1 RES1   0.0000
    25 C10     14.0841   0.7584   4.6821   C.ar      1 RES1   0.0000
    26 C11     13.1033  -0.3214   4.5531   C.ar      1 RES1   0.0000
    27 C12     13.3120  -1.6165   4.9947   C.ar      1 RES1   0.0000
    28 H7      14.1441  -1.8682   5.3761   H         1 RES1   0.0000
    29 C13     12.2837  -2.5425   4.8676   C.ar      1 RES1   0.0000
    30 H8      12.3984  -3.4327   5.1772   H         1 RES1   0.0000
    31 C14     11.0893  -2.1525   4.2874   C.ar      1 RES1   0.0000
    32 H9      10.3757  -2.7718   4.1917   H         1 RES1   0.0000
    33 C15     10.9486  -0.8430   3.8454   C.ar      1 RES1   0.0000
    34 H10     10.1330  -0.5835   3.4335   H         1 RES1   0.0000
    35 C16     17.6299   1.7722   5.5036   C.ar      1 RES1   0.0000
    36 C17     18.5674   2.5363   4.8069   C.ar      1 RES1   0.0000
    37 H11     18.2938   3.0412   4.0496   H         1 RES1   0.0000
    38 C18     19.8960   2.5649   5.2101   C.ar      1 RES1   0.0000
    39 H12     20.5248   3.0814   4.7196   H         1 RES1   0.0000
    40 C19     20.3155   1.8474   6.3242   C.ar      1 RES1   0.0000
    41 C20     19.3869   1.0658   7.0085   C.ar      1 RES1   0.0000
    42 H13     19.6650   0.5597   7.7628   H         1 RES1   0.0000
    43 C21     18.0585   1.0167   6.5986   C.ar      1 RES1   0.0000
    44 H14     17.4386   0.4674   7.0659   H         1 RES1   0.0000
    45 C22     21.7209   1.8935   6.8566   C.3       1 RES1   0.0000
    46 H15     22.0553   0.9676   6.9583   H         1 RES1   0.0000
    47 H16     21.7098   2.3118   7.7538   H         1 RES1   0.0000
    48 C23     13.5003   1.7747   1.1491   C.ar      1 RES1   0.0000
    49 H17     14.2554   1.8325   1.7227   H         1 RES1   0.0000
    50 C24     13.7067   1.6567  -0.2192   C.ar      1 RES1   0.0000
    51 H18     14.5883   1.6434  -0.5713   H         1 RES1   0.0000
    52 C25     12.6166   1.5595  -1.0637   C.ar      1 RES1   0.0000
    53 H19     12.7413   1.4603  -2.0009   H         1 RES1   0.0000
    54 C26     11.3427   1.6086  -0.5264   C.ar      1 RES1   0.0000
    55 H20     10.5800   1.5541  -1.0902   H         1 RES1   0.0000
    56 C27     11.1926   1.7393   0.8499   C.ar      1 RES1   0.0000
    57 C28      9.9058   1.8359   1.5401   C.ar      1 RES1   0.0000
    58 C29      8.6360   1.7613   0.9889   C.ar      1 RES1   0.0000
    59 H21      8.5342   1.6256   0.0538   H         1 RES1   0.0000
    60 C30      7.5000   1.8841   1.8011   C.ar      1 RES1   0.0000
    61 C31      7.7131   2.0636   3.1762   C.ar      1 RES1   0.0000
    62 H22      6.9710   2.1510   3.7625   H         1 RES1   0.0000
    63 C32      9.0011   2.1138   3.6819   C.ar      1 RES1   0.0000
    64 C33      9.4061   2.2463   5.0911   C.ar      1 RES1   0.0000
    65 C34      8.5272   2.3303   6.1467   C.ar      1 RES1   0.0000
    66 H23      7.5894   2.3222   5.9952   H         1 RES1   0.0000
    67 C35      9.0335   2.4264   7.4381   C.ar      1 RES1   0.0000
    68 H24      8.4464   2.4785   8.1830   H         1 RES1   0.0000
    69 C36     10.4040   2.4449   7.6252   C.ar      1 RES1   0.0000
    70 H25     10.7679   2.5202   8.4985   H         1 RES1   0.0000
    71 C37     11.2387   2.3518   6.5246   C.ar      1 RES1   0.0000
    72 H26     12.1796   2.3654   6.6577   H         1 RES1   0.0000
    73 C38      6.1341   1.8299   1.2349   C.ar      1 RES1   0.0000
    74 C39      5.0095   1.6576   2.0534   C.ar      1 RES1   0.0000
    75 H27      5.1219   1.5839   2.9939   H         1 RES1   0.0000
    76 C40      3.7361   1.5932   1.5138   C.ar      1 RES1   0.0000
    77 H28      2.9900   1.4767   2.0906   H         1 RES1   0.0000
    78 C41      3.5298   1.6970   0.1376   C.ar      1 RES1   0.0000
    79 C42      4.6437   1.8563  -0.6804   C.ar      1 RES1   0.0000
    80 H29      4.5256   1.9203  -1.6210   H         1 RES1   0.0000
    81 C43      5.9179   1.9233  -0.1510   C.ar      1 RES1   0.0000
    82 H30      6.6595   2.0334  -0.7328   H         1 RES1   0.0000
    83 C44      2.1265   1.6851  -0.4053   C.3       1 RES1   0.0000
    84 H31      1.8242   2.6170  -0.5473   H         1 RES1   0.0000
    85 H32      1.5232   1.2683   0.2587   H         1 RES1   0.0000
    86 F1       6.7202  -2.3745   5.3767   F         2 RES2   0.0000
    87 F2       6.3025  -0.5795   4.0517   F         2 RES2   0.0000
    88 F3       7.9131  -2.0601   3.4525   F         2 RES2   0.0000
    89 F4       8.2492  -0.6925   5.2427   F         2 RES2   0.0000
    90 B1       7.2983  -1.4201   4.5386   B         2 RES2  -1.0000
    91 F5      13.0946   3.6759   9.1695   F         3 RES3   0.0000
    92 F6      14.3703   2.2963   7.9143   F         3 RES3   0.0000
    93 F7      15.3295   4.0741   8.9739   F         3 RES3   0.0000
    94 F8      13.9456   4.4055   7.1924   F         3 RES3   0.0000
    95 B2      14.1856   3.6247   8.3146   B         3 RES3  -1.0000
@<TRIPOS>BOND
     1     1     4    1
     2     2    45    1
     3     3    83    1
     4     4    10   ar
     5     5     1    1
     6     6     1    1
     7     7     1    1
     8     8     1    1
     9     9     1    1
    10    10    11    1
    11    12    10   ar
    12    13    12    1
    13    14    12   ar
    14    15    14    1
    15    16    14   ar
    16    17    16    1
    17    18     4   ar
    18    19     5   ar
    19    20    19   ar
    20    21    20    1
    21    22    20   ar
    22    23    22   ar
    23    24    23    1
    24    25     5   ar
    25    26     6   ar
    26    27    26   ar
    27    28    27    1
    28    29    27   ar
    29    30    29    1
    30    31    29   ar
    31    32    31    1
    32    33     6   ar
    33    34    33    1
    34    35    22    1
    35    36    35   ar
    36    37    36    1
    37    38    36   ar
    38    39    38    1
    39    40    38   ar
    40    41    40   ar
    41    42    41    1
    42    43    35   ar
    43    44    43    1
    44    45    40    1
    45    46    45    1
    46    47    45    1
    47    48     7   ar
    48    49    48    1
    49    50    48   ar
    50    51    50    1
    51    52    50   ar
    52    53    52    1
    53    54    52   ar
    54    55    54    1
    55    56     7   ar
    56    57     8   ar
    57    58    57   ar
    58    59    58    1
    59    60    58   ar
    60    61    60   ar
    61    62    61    1
    62    63     8   ar
    63    64     9   ar
    64    65    64   ar
    65    66    65    1
    66    67    65   ar
    67    68    67    1
    68    69    67   ar
    69    70    69    1
    70    71     9   ar
    71    72    71    1
    72    73    60    1
    73    74    73   ar
    74    75    74    1
    75    76    74   ar
    76    77    76    1
    77    78    76   ar
    78    79    78   ar
    79    80    79    1
    80    81    73   ar
    81    82    81    1
    82    83    78    1
    83    84    83    1
    84    85    83    1
    85    16    18   ar
    86    18    19    1
    87    23    25   ar
    88    25    26    1
    89    31    33   ar
    90    41    43   ar
    91    54    56   ar
    92    56    57    1
    93    61    63   ar
    94    63    64    1
    95    69    71   ar
    96    79    81   ar
    97    86    90    1
    98    87    90    1
    99    88    90    1
   100    89    90    1
   101    91    95    1
   102    92    95    1
   103    93    95    1
   104    94    95    1
@<TRIPOS>SUBSTRUCTURE
     1 RES1        1 GROUP             0 ****  ****    0  
     2 RES2       86 GROUP             0 ****  ****    0  
     3 RES3       91 GROUP             0 ****  ****    0  
@<TRIPOS>CRYSIN
   17.8920   14.8860   15.9520   90.0000  110.3710   90.0000    14     1
