@<TRIPOS>MOLECULE
LOPWUM
    86    92     4     0     0
SMALL
USER_CHARGES
****
Generated from the CSD

@<TRIPOS>ATOM
     1 Fe1      2.4453   5.3933  12.0763   Fe        1 RES1   1.0000
     2 Cl1      8.5249   1.5797  11.3731   Cl        1 RES1   0.0000
     3 Cl2      6.6412   6.4754  10.1963   Cl        1 RES1   0.0000
     4 Cl3      5.7903  11.3074  14.3084   Cl        1 RES1   0.0000
     5 Cl4      4.8500   6.2556  15.9573   Cl        1 RES1   0.0000
     6 N1       0.6668   5.2167  12.9236   N.ar      1 RES1   0.0000
     7 N2       2.6984   3.6196  12.8025   N.2       1 RES1   0.0000
     8 N3       1.6272   4.7394  10.3908   N.ar      1 RES1   0.0000
     9 N4       2.1294   7.1335  11.2810   N.2       1 RES1   0.0000
    10 O1       4.1381   5.4825  11.2643   O.3       1 RES1   0.0000
    11 O2       3.1248   6.1143  13.6594   O.3       1 RES1   0.0000
    12 C1       0.5027   4.0334  13.5872   C.ar      1 RES1   0.0000
    13 C2      -0.3280   6.0922  12.9538   C.ar      1 RES1   0.0000
    14 H1      -0.2222   6.9195  12.4988   H         1 RES1   0.0000
    15 C3      -1.5386   5.8424  13.6369   C.ar      1 RES1   0.0000
    16 H2      -2.2316   6.4920  13.6268   H         1 RES1   0.0000
    17 C4      -1.7122   4.6755  14.3077   C.ar      1 RES1   0.0000
    18 H3      -2.5241   4.5048  14.7711   H         1 RES1   0.0000
    19 C5      -0.6747   3.7159  14.3101   C.ar      1 RES1   0.0000
    20 C6      -0.7404   2.4783  14.9849   C.ar      1 RES1   0.0000
    21 H4      -1.5212   2.2442  15.4727   H         1 RES1   0.0000
    22 C7       0.3112   1.6208  14.9384   C.ar      1 RES1   0.0000
    23 H5       0.2542   0.7929  15.4015   H         1 RES1   0.0000
    24 C8       1.4988   1.9287  14.2137   C.ar      1 RES1   0.0000
    25 H6       2.2201   1.3114  14.1905   H         1 RES1   0.0000
    26 C9       1.5895   3.1335  13.5455   C.ar      1 RES1   0.0000
    27 C10      3.7567   2.8873  12.6509   C.2       1 RES1   0.0000
    28 H7       3.7350   2.0044  13.0016   H         1 RES1   0.0000
    29 C11      4.9635   3.3125  11.9906   C.ar      1 RES1   0.0000
    30 C12      6.0226   2.3913  11.9714   C.ar      1 RES1   0.0000
    31 H8       5.9103   1.5368  12.3705   H         1 RES1   0.0000
    32 C13      7.2182   2.7154  11.3816   C.ar      1 RES1   0.0000
    33 C14      7.4038   3.9855  10.8289   C.ar      1 RES1   0.0000
    34 H9       8.2406   4.2180  10.4427   H         1 RES1   0.0000
    35 C15      6.3782   4.8974  10.8440   C.ar      1 RES1   0.0000
    36 C16      5.0918   4.5988  11.3881   C.ar      1 RES1   0.0000
    37 C17      1.1246   5.7646   9.6250   C.ar      1 RES1   0.0000
    38 C18      1.5238   3.5004   9.9469   C.ar      1 RES1   0.0000
    39 H10      1.8961   2.7933  10.4615   H         1 RES1   0.0000
    40 C19      0.8724   3.1924   8.7232   C.ar      1 RES1   0.0000
    41 H11      0.8110   2.2900   8.4332   H         1 RES1   0.0000
    42 C20      0.3402   4.1818   7.9683   C.ar      1 RES1   0.0000
    43 H12     -0.0883   3.9790   7.1448   H         1 RES1   0.0000
    44 C21      0.4254   5.5259   8.4180   C.ar      1 RES1   0.0000
    45 C22     -0.1018   6.6438   7.7262   C.ar      1 RES1   0.0000
    46 H13     -0.5855   6.5164   6.9185   H         1 RES1   0.0000
    47 C23      0.0792   7.8865   8.2092   C.ar      1 RES1   0.0000
    48 H14     -0.2884   8.6206   7.7313   H         1 RES1   0.0000
    49 C24      0.7954   8.1407   9.4013   C.ar      1 RES1   0.0000
    50 H15      0.9132   9.0284   9.7185   H         1 RES1   0.0000
    51 C25      1.3201   7.0657  10.0934   C.ar      1 RES1   0.0000
    52 C26      2.7002   8.2228  11.6444   C.2       1 RES1   0.0000
    53 H16      2.5554   9.0008  11.1195   H         1 RES1   0.0000
    54 C27      3.5459   8.3329  12.7988   C.ar      1 RES1   0.0000
    55 C28      4.1810   9.5948  13.0128   C.ar      1 RES1   0.0000
    56 H17      4.0309  10.3106  12.4069   H         1 RES1   0.0000
    57 C29      5.0011   9.7716  14.0870   C.ar      1 RES1   0.0000
    58 C30      5.2263   8.7533  15.0026   C.ar      1 RES1   0.0000
    59 H18      5.8043   8.8853  15.7445   H         1 RES1   0.0000
    60 C31      4.5849   7.5332  14.8083   C.ar      1 RES1   0.0000
    61 C32      3.7290   7.2748  13.7279   C.ar      1 RES1   0.0000
    62 B1       3.1432  -0.0990  11.0737   B         2 RES2  -1.0000
    63 F1       3.0894  -1.2659  10.4972   F         2 RES2   0.0000
    64 F2       3.5280   0.8562  10.2294   F         2 RES2   0.0000
    65 F3       1.9680   0.4664  11.4076   F         2 RES2   0.0000
    66 F4       3.9065  -0.1577  12.1913   F         2 RES2   0.0000
    67 O3      -1.2456   8.7500  14.2398   O.2       3 RES3   0.0000
    68 C33     -1.4156   9.7677  12.1007   C.3       3 RES3   0.0000
    69 H19     -1.9817   8.9905  11.9105   H         3 RES3   0.0000
    70 H20     -0.6970   9.8182  11.4353   H         3 RES3   0.0000
    71 H21     -1.9562  10.5837  12.0591   H         3 RES3   0.0000
    72 C34     -0.8198   9.6304  13.4711   C.2       3 RES3   0.0000
    73 C35      0.1911  10.5039  13.9075   C.3       3 RES3   0.0000
    74 H22      0.2078  10.5211  14.8879   H         3 RES3   0.0000
    75 H23      0.0124  11.4062  13.5689   H         3 RES3   0.0000
    76 H24      1.0584  10.1951  13.5722   H         3 RES3   0.0000
    77 O4       4.3240   9.3989   9.1078   O.2       4 RES4   0.0000
    78 C36      3.3665  11.0166   7.5752   C.3       4 RES4   0.0000
    79 H25      3.2273  10.2592   6.9695   H         4 RES4   0.0000
    80 H26      3.8075  11.7457   7.0915   H         4 RES4   0.0000
    81 H27      2.5002  11.3269   7.9141   H         4 RES4   0.0000
    82 C37      4.2333  10.5825   8.7345   C.2       4 RES4   0.0000
    83 C38      4.9431  11.6082   9.4843   C.3       4 RES4   0.0000
    84 H28      4.3403  12.0008  10.1507   H         4 RES4   0.0000
    85 H29      5.2509  12.3082   8.8710   H         4 RES4   0.0000
    86 H30      5.7139  11.2081   9.9371   H         4 RES4   0.0000
@<TRIPOS>BOND
     1     1     6    1
     2     2    32    1
     3     3    35    1
     4     4    57    1
     5     5    60    1
     6     6    12   ar
     7     7     1    1
     8     8     1    1
     9     9     1    1
    10    10     1    1
    11    11     1    1
    12    12    19   ar
    13    13     6   ar
    14    14    13    1
    15    15    13   ar
    16    16    15    1
    17    17    15   ar
    18    18    17    1
    19    19    17   ar
    20    20    19   ar
    21    21    20    1
    22    22    20   ar
    23    23    22    1
    24    24    22   ar
    25    25    24    1
    26    26     7    1
    27    27     7    2
    28    28    27    1
    29    29    27    1
    30    30    29   ar
    31    31    30    1
    32    32    30   ar
    33    33    32   ar
    34    34    33    1
    35    35    33   ar
    36    36    10    1
    37    37     8   ar
    38    38     8   ar
    39    39    38    1
    40    40    38   ar
    41    41    40    1
    42    42    40   ar
    43    43    42    1
    44    44    37   ar
    45    45    44   ar
    46    46    45    1
    47    47    45   ar
    48    48    47    1
    49    49    47   ar
    50    50    49    1
    51    51     9    1
    52    52     9    2
    53    53    52    1
    54    54    52    1
    55    55    54   ar
    56    56    55    1
    57    57    55   ar
    58    58    57   ar
    59    59    58    1
    60    60    58   ar
    61    61    11    1
    62    12    26   ar
    63    24    26   ar
    64    29    36   ar
    65    35    36   ar
    66    37    51   ar
    67    42    44   ar
    68    49    51   ar
    69    54    61   ar
    70    60    61   ar
    71    62    63    1
    72    64    62    1
    73    65    62    1
    74    66    62    1
    75    67    72    2
    76    68    69    1
    77    70    68    1
    78    71    68    1
    79    72    68    1
    80    73    72    1
    81    74    73    1
    82    75    73    1
    83    76    73    1
    84    77    82    2
    85    78    79    1
    86    80    78    1
    87    81    78    1
    88    82    78    1
    89    83    82    1
    90    84    83    1
    91    85    83    1
    92    86    83    1
@<TRIPOS>SUBSTRUCTURE
     1 RES1        1 GROUP             0 ****  ****    0  
     2 RES2       62 GROUP             0 ****  ****    0  
     3 RES3       67 GROUP             0 ****  ****    0  
     4 RES4       77 GROUP             0 ****  ****    0  
@<TRIPOS>CRYSIN
    9.4580   12.3910   16.3200   95.3200  103.3800   97.0000     2     1
