@<TRIPOS>MOLECULE
LOQFII
   148   166     3     0     0
SMALL
USER_CHARGES
****
Generated from the CSD

@<TRIPOS>ATOM
     1 Fe1     21.2265   2.8992   5.0680   Fe        1 RES1   2.0000
     2 N1      19.3654   3.0086   5.6689   N.ar      1 RES1  -1.0000
     3 C1      18.7435   2.2604   6.5850   C.ar      1 RES1   0.0000
     4 H1      19.2396   1.5668   7.0040   H         1 RES1   0.0000
     5 C2      17.4239   2.4303   6.9626   C.ar      1 RES1   0.0000
     6 H2      17.0351   1.8740   7.6284   H         1 RES1   0.0000
     7 C3      16.6711   3.4339   6.3474   C.ar      1 RES1   0.0000
     8 H3      15.7642   3.5807   6.5925   H         1 RES1   0.0000
     9 C4      17.2642   4.1951   5.3910   C.ar      1 RES1   0.0000
    10 H4      16.7631   4.8829   4.9687   H         1 RES1   0.0000
    11 C5      18.6109   3.9872   5.0111   C.ar      1 RES1   0.0000
    12 C6      19.3108   4.6772   3.9717   C.ar      1 RES1   0.0000
    13 C7      18.7551   5.6647   3.1146   C.ar      1 RES1   0.0000
    14 H5      17.8630   5.9632   3.2496   H         1 RES1   0.0000
    15 C8      19.4958   6.1808   2.1034   C.ar      1 RES1   0.0000
    16 H6      19.1149   6.8302   1.5245   H         1 RES1   0.0000
    17 C9      20.8205   5.7616   1.9078   C.ar      1 RES1   0.0000
    18 H7      21.3427   6.1066   1.1940   H         1 RES1   0.0000
    19 C10     21.3395   4.8305   2.7862   C.ar      1 RES1   0.0000
    20 H8      22.2449   4.5620   2.6719   H         1 RES1   0.0000
    21 N2      20.6367   4.2806   3.7955   N.ar      1 RES1   0.0000
    22 N3      21.6890   1.4143   6.2687   N.ar      1 RES1  -1.0000
    23 C11     22.2063   1.4814   7.5067   C.ar      1 RES1   0.0000
    24 H9      22.3611   2.3450   7.8737   H         1 RES1   0.0000
    25 C12     22.5258   0.3942   8.2797   C.ar      1 RES1   0.0000
    26 H10     22.8883   0.5069   9.1508   H         1 RES1   0.0000
    27 C13     22.3014  -0.8960   7.7494   C.ar      1 RES1   0.0000
    28 H11     22.5061  -1.6709   8.2588   H         1 RES1   0.0000
    29 C14     21.7871  -1.0044   6.5035   C.ar      1 RES1   0.0000
    30 H12     21.6215  -1.8671   6.1424   H         1 RES1   0.0000
    31 C15     21.4877   0.1442   5.7236   C.ar      1 RES1   0.0000
    32 N3A     20.7640   1.4143   3.8673   N.ar      1 RES1   0.0000
    33 C11A    20.2467   1.4814   2.6293   C.ar      1 RES1   0.0000
    34 H9A     20.0919   2.3450   2.2624   H         1 RES1   0.0000
    35 C12A    19.9272   0.3942   1.8563   C.ar      1 RES1   0.0000
    36 H10A    19.5647   0.5069   0.9852   H         1 RES1   0.0000
    37 C13A    20.1516  -0.8960   2.3866   C.ar      1 RES1   0.0000
    38 H11A    19.9469  -1.6709   1.8772   H         1 RES1   0.0000
    39 C14A    20.6659  -1.0044   3.6326   C.ar      1 RES1   0.0000
    40 H12A    20.8315  -1.8671   3.9936   H         1 RES1   0.0000
    41 C15A    20.9653   0.1442   4.4124   C.ar      1 RES1   0.0000
    42 N1A     23.0876   3.0086   4.4672   N.ar      1 RES1   0.0000
    43 C1A     23.7095   2.2604   3.5511   C.ar      1 RES1   0.0000
    44 H1A     23.2134   1.5668   3.1320   H         1 RES1   0.0000
    45 C2A     25.0291   2.4303   3.1734   C.ar      1 RES1   0.0000
    46 H2A     25.4179   1.8740   2.5077   H         1 RES1   0.0000
    47 C3A     25.7819   3.4339   3.7886   C.ar      1 RES1   0.0000
    48 H3A     26.6888   3.5807   3.5436   H         1 RES1   0.0000
    49 C4A     25.1888   4.1951   4.7451   C.ar      1 RES1   0.0000
    50 H4A     25.6899   4.8829   5.1674   H         1 RES1   0.0000
    51 C5A     23.8421   3.9872   5.1250   C.ar      1 RES1   0.0000
    52 C6A     23.1422   4.6772   6.1643   C.ar      1 RES1   0.0000
    53 C7A     23.6979   5.6647   7.0214   C.ar      1 RES1   0.0000
    54 H5A     24.5900   5.9632   6.8864   H         1 RES1   0.0000
    55 C8A     22.9572   6.1808   8.0326   C.ar      1 RES1   0.0000
    56 H6A     23.3381   6.8302   8.6116   H         1 RES1   0.0000
    57 C9A     21.6325   5.7616   8.2282   C.ar      1 RES1   0.0000
    58 H7A     21.1103   6.1066   8.9420   H         1 RES1   0.0000
    59 C10A    21.1135   4.8305   7.3498   C.ar      1 RES1   0.0000
    60 H8A     20.2081   4.5620   7.4642   H         1 RES1   0.0000
    61 N2A     21.8163   4.2806   6.3405   N.ar      1 RES1  -1.0000
    62 K1      13.1451   3.3385   3.3110   K         2 RES2   1.0000
    63 N4      13.3996   6.0096   1.9427   N.3       2 RES2   0.0000
    64 C16     12.8025   7.0453   2.8004   C.3       2 RES2   0.0000
    65 H13     11.8169   6.9650   2.7570   H         2 RES2   0.0000
    66 H14     13.0462   7.9362   2.4408   H         2 RES2   0.0000
    67 C17     13.2327   6.9710   4.2436   C.3       2 RES2   0.0000
    68 H15     14.2171   7.0418   4.3058   H         2 RES2   0.0000
    69 H16     12.8351   7.7211   4.7518   H         2 RES2   0.0000
    70 O1      12.7997   5.7277   4.7945   O.3       2 RES2   0.0000
    71 C18     13.2136   5.5860   6.1574   C.3       2 RES2   0.0000
    72 H17     12.9952   6.4070   6.6655   H         2 RES2   0.0000
    73 H18     14.1924   5.4427   6.2012   H         2 RES2   0.0000
    74 C19     12.4983   4.4161   6.7447   C.3       2 RES2   0.0000
    75 H19     12.6844   4.3606   7.7155   H         2 RES2   0.0000
    76 H20     11.5222   4.5210   6.6209   H         2 RES2   0.0000
    77 O2      12.9448   3.2234   6.0942   O.3       2 RES2   0.0000
    78 C20     12.3242   2.0619   6.6423   C.3       2 RES2   0.0000
    79 H21     11.3672   2.0395   6.3918   H         2 RES2   0.0000
    80 H22     12.3877   2.0788   7.6304   H         2 RES2   0.0000
    81 C21     13.0292   0.8397   6.0984   C.3       2 RES2   0.0000
    82 H23     13.9974   0.9165   6.2884   H         2 RES2   0.0000
    83 H24     12.6922   0.0375   6.5722   H         2 RES2   0.0000
    84 C22     14.8368   6.2824   1.7345   C.3       2 RES2   0.0000
    85 H25     15.2389   6.5486   2.5989   H         2 RES2   0.0000
    86 H26     14.9297   7.0470   1.1129   H         2 RES2   0.0000
    87 C23     15.6077   5.1082   1.1792   C.3       2 RES2   0.0000
    88 H27     15.1799   4.7873   0.3467   H         2 RES2   0.0000
    89 H28     16.5341   5.3846   0.9650   H         2 RES2   0.0000
    90 O3      15.6241   4.0683   2.1476   O.3       2 RES2   0.0000
    91 C24     16.4209   2.9594   1.7150   C.3       2 RES2   0.0000
    92 H29     17.3350   3.2735   1.5001   H         2 RES2   0.0000
    93 H30     16.0272   2.5703   0.8940   H         2 RES2   0.0000
    94 C25     16.4904   1.9252   2.7651   C.3       2 RES2   0.0000
    95 H31     17.0788   1.1844   2.4691   H         2 RES2   0.0000
    96 H32     16.8708   2.3109   3.5922   H         2 RES2   0.0000
    97 O4      15.1693   1.4244   3.0220   O.3       2 RES2   0.0000
    98 C26     15.2291   0.3618   3.9632   C.3       2 RES2   0.0000
    99 H33     15.5351   0.7083   4.8389   H         2 RES2   0.0000
   100 H34     15.8771  -0.3209   3.6571   H         2 RES2   0.0000
   101 C27     13.8723  -0.2577   4.1089   C.3       2 RES2   0.0000
   102 H35     13.5768  -0.5837   3.2212   H         2 RES2   0.0000
   103 H36     13.9460  -1.0428   4.7072   H         2 RES2   0.0000
   104 C28     12.6974   5.9683   0.6398   C.3       2 RES2   0.0000
   105 H37     13.2492   5.4631  -0.0081   H         2 RES2   0.0000
   106 H38     12.6021   6.8917   0.2980   H         2 RES2   0.0000
   107 C29     11.3296   5.3300   0.7209   C.3       2 RES2   0.0000
   108 H39     10.7739   5.8079   1.3886   H         2 RES2   0.0000
   109 H40     10.8784   5.3898  -0.1581   H         2 RES2   0.0000
   110 O5      11.4781   3.9667   1.0994   O.3       2 RES2   0.0000
   111 C30     10.2199   3.3059   1.1069   C.3       2 RES2   0.0000
   112 H41      9.7651   3.4407   0.2392   H         2 RES2   0.0000
   113 H42      9.6460   3.6848   1.8204   H         2 RES2   0.0000
   114 C31     10.4273   1.8449   1.3481   C.3       2 RES2   0.0000
   115 H43      9.5686   1.3619   1.2407   H         2 RES2   0.0000
   116 H44     11.0699   1.4831   0.6872   H         2 RES2   0.0000
   117 O6      10.9277   1.6449   2.6595   O.3       2 RES2   0.0000
   118 C32     11.0471   0.2577   2.9678   C.3       2 RES2   0.0000
   119 H45     11.7024  -0.1655   2.3576   H         2 RES2   0.0000
   120 H46     10.1728  -0.1894   2.8421   H         2 RES2   0.0000
   121 C33     11.5021   0.0939   4.3946   C.3       2 RES2   0.0000
   122 H47     10.8515   0.5393   4.9930   H         2 RES2   0.0000
   123 H48     11.5088  -0.8704   4.6200   H         2 RES2   0.0000
   124 N5      12.8420   0.6513   4.6476   N.3       2 RES2   0.0000
   125 C34     11.9333   2.1300  10.9303   C.ar      3 RES3   0.0000
   126 H49     11.1302   2.3143  11.4030   H         3 RES3   0.0000
   127 C35     12.2509   0.8175  10.6477   C.ar      3 RES3   0.0000
   128 H50     11.6644   0.1161  10.9043   H         3 RES3   0.0000
   129 C36     13.4450   0.5291   9.9781   C.ar      3 RES3   0.0000
   130 H51     13.6631  -0.3704   9.7691   H         3 RES3   0.0000
   131 C37     14.3073   1.5451   9.6179   C.ar      3 RES3   0.0000
   132 H52     15.1230   1.3261   9.1832   H         3 RES3   0.0000
   133 C38     14.0080   2.9026   9.8778   C.ar      3 RES3   0.0000
   134 C39     14.8557   3.9628   9.5133   C.ar      3 RES3   0.0000
   135 H53     15.6885   3.7582   9.1042   H         3 RES3   0.0000
   136 C40     14.5268   5.3186   9.7286   C.ar      3 RES3   0.0000
   137 C34F    15.3502   6.4035   9.3418   C.ar      3 RES3   0.0000
   138 H49F    16.1533   6.2192   8.8690   H         3 RES3   0.0000
   139 C35F    15.0326   7.7160   9.6244   C.ar      3 RES3   0.0000
   140 H50F    15.6191   8.4174   9.3677   H         3 RES3   0.0000
   141 C36F    13.8385   8.0044  10.2940   C.ar      3 RES3   0.0000
   142 H51F    13.6204   8.9039  10.5030   H         3 RES3   0.0000
   143 C37F    12.9762   6.9884  10.6542   C.ar      3 RES3   0.0000
   144 H52F    12.1605   7.2074  11.0888   H         3 RES3   0.0000
   145 C38F    13.2755   5.6309  10.3943   C.ar      3 RES3   0.0000
   146 C39F    12.4278   4.5707  10.7588   C.ar      3 RES3   0.0000
   147 H53F    11.5950   4.7753  11.1679   H         3 RES3   0.0000
   148 C40F    12.7567   3.2149  10.5435   C.ar      3 RES3  -1.0000
@<TRIPOS>BOND
     1     1     2    1
     2     2     3   ar
     3     3     4    1
     4     5     3   ar
     5     6     5    1
     6     7     5   ar
     7     8     7    1
     8     9     7   ar
     9    10     9    1
    10    11     2   ar
    11    12    11    1
    12    13    12   ar
    13    14    13    1
    14    15    13   ar
    15    16    15    1
    16    17    15   ar
    17    18    17    1
    18    19    17   ar
    19    20    19    1
    20    21     1    1
    21    22     1    1
    22    23    22   ar
    23    24    23    1
    24    25    23   ar
    25    26    25    1
    26    27    25   ar
    27    28    27    1
    28    29    27   ar
    29    30    29    1
    30    31    22   ar
    31    32     1    1
    32    33    32   ar
    33    34    33    1
    34    35    33   ar
    35    36    35    1
    36    37    35   ar
    37    38    37    1
    38    39    37   ar
    39    40    39    1
    40    41    31    1
    41    42     1    1
    42    43    42   ar
    43    44    43    1
    44    45    43   ar
    45    46    45    1
    46    47    45   ar
    47    48    47    1
    48    49    47   ar
    49    50    49    1
    50    51    42   ar
    51    52    51    1
    52    53    52   ar
    53    54    53    1
    54    55    53   ar
    55    56    55    1
    56    57    55   ar
    57    58    57    1
    58    59    57   ar
    59    60    59    1
    60    61     1    1
    61     9    11   ar
    62    12    21   ar
    63    19    21   ar
    64    29    31   ar
    65    32    41   ar
    66    39    41   ar
    67    49    51   ar
    68    52    61   ar
    69    59    61   ar
    70    62    63    1
    71    63    64    1
    72    64    65    1
    73    66    64    1
    74    67    64    1
    75    68    67    1
    76    69    67    1
    77    70    62    1
    78    71    70    1
    79    72    71    1
    80    73    71    1
    81    74    71    1
    82    75    74    1
    83    76    74    1
    84    77    62    1
    85    78    77    1
    86    79    78    1
    87    80    78    1
    88    81    78    1
    89    82    81    1
    90    83    81    1
    91    84    63    1
    92    85    84    1
    93    86    84    1
    94    87    84    1
    95    88    87    1
    96    89    87    1
    97    90    62    1
    98    91    90    1
    99    92    91    1
   100    93    91    1
   101    94    91    1
   102    95    94    1
   103    96    94    1
   104    97    62    1
   105    98    97    1
   106    99    98    1
   107   100    98    1
   108   101    98    1
   109   102   101    1
   110   103   101    1
   111   104    63    1
   112   105   104    1
   113   106   104    1
   114   107   104    1
   115   108   107    1
   116   109   107    1
   117   110    62    1
   118   111   110    1
   119   112   111    1
   120   113   111    1
   121   114   111    1
   122   115   114    1
   123   116   114    1
   124   117    62    1
   125   118   117    1
   126   119   118    1
   127   120   118    1
   128   121   118    1
   129   122   121    1
   130   123   121    1
   131   124    62    1
   132    67    70    1
   133    74    77    1
   134    81   124    1
   135    87    90    1
   136    94    97    1
   137   101   124    1
   138   107   110    1
   139   114   117    1
   140   121   124    1
   141   125   126    1
   142   127   125   ar
   143   128   127    1
   144   129   127   ar
   145   130   129    1
   146   131   129   ar
   147   132   131    1
   148   133   131   ar
   149   134   133   ar
   150   135   134    1
   151   136   134   ar
   152   137   136   ar
   153   138   137    1
   154   139   137   ar
   155   140   139    1
   156   141   139   ar
   157   142   141    1
   158   143   141   ar
   159   144   143    1
   160   145   136   ar
   161   146   145   ar
   162   147   146    1
   163   148   125   ar
   164   133   148   ar
   165   143   145   ar
   166   146   148   ar
@<TRIPOS>SUBSTRUCTURE
     1 RES1        1 GROUP             0 ****  ****    0  
     2 RES2       62 GROUP             0 ****  ****    0  
     3 RES3      125 GROUP             0 ****  ****    0  
@<TRIPOS>CRYSIN
   23.0490   17.0670   21.5430   90.0000  109.7790   90.0000    15     1
