@<TRIPOS>MOLECULE
LOQPAI
    55    63     2     0     0
SMALL
NO_CHARGES
****
Generated from the CSD

@<TRIPOS>ATOM
     1 Fe1     -0.7105   4.0829   2.4174   Fe        1 RES1   0.0000
     2 S1      -1.1252   1.0181   6.0252   S.2       1 RES1   0.0000
     3 S2       1.0342   1.7844  -1.3753   S.2       1 RES1   0.0000
     4 N1      -0.9303   2.6295   3.7914   N.2       1 RES1   0.0000
     5 N2       0.2207   3.0610   0.9263   N.2       1 RES1   0.0000
     6 N3      -2.8275   3.7914   1.5476   N.ar      1 RES1   0.0000
     7 N4      -1.1755   5.8343   1.2115   N.ar      1 RES1   0.0000
     8 N5      -1.3272   5.6387   4.1712   N.ar      1 RES1   0.0000
     9 N6       1.0782   5.0117   3.1743   N.ar      1 RES1   0.0000
    10 N7      -5.6011   4.1285   1.6027   N.ar      1 RES1   0.0000
    11 N8      -4.6104   7.3670   2.3087   N.ar      1 RES1   0.0000
    12 N9      -1.9252   8.2075   5.0975   N.ar      1 RES1   0.0000
    13 N10      0.8357   9.0413   3.2251   N.ar      1 RES1   0.0000
    14 C1      -1.0291   1.9530   4.7276   C.1       1 RES1   0.0000
    15 C2       0.5422   2.5103  -0.0494   C.1       1 RES1   0.0000
    16 C3      -3.6481   2.6991   1.6705   C.ar      1 RES1   0.0000
    17 C4      -3.0881   1.4428   1.7764   C.ar      1 RES1   0.0000
    18 C5      -3.9509   0.3371   1.8018   C.ar      1 RES1   0.0000
    19 C6      -5.3368   0.5079   1.7227   C.ar      1 RES1   0.0000
    20 C7      -5.9078   1.7822   1.6577   C.ar      1 RES1   0.0000
    21 C8      -5.0274   2.8812   1.6168   C.ar      1 RES1   0.0000
    22 C9      -4.7893   5.1443   1.5010   C.ar      1 RES1   0.0000
    23 C10     -3.3883   4.9802   1.3132   C.ar      1 RES1   0.0000
    24 C11     -2.4447   6.0028   0.8345   C.ar      1 RES1   0.0000
    25 C12     -2.8224   6.9849  -0.0607   C.ar      1 RES1   0.0000
    26 C13     -1.8210   7.8322  -0.5394   C.ar      1 RES1   0.0000
    27 C14     -0.5453   7.6794  -0.1567   C.ar      1 RES1   0.0000
    28 C15     -0.2409   6.6703   0.7512   C.ar      1 RES1   0.0000
    29 C16     -5.3820   6.4995   1.6606   C.ar      1 RES1   0.0000
    30 C17     -6.6945   6.7624   1.2934   C.ar      1 RES1   0.0000
    31 C18     -7.1783   8.0727   1.5829   C.ar      1 RES1   0.0000
    32 C19     -6.3879   8.9020   2.2423   C.ar      1 RES1   0.0000
    33 C20     -5.1289   8.5783   2.5939   C.ar      1 RES1   0.0000
    34 C21     -2.5474   5.9286   4.6612   C.ar      1 RES1   0.0000
    35 C22     -3.5423   4.9330   4.6584   C.ar      1 RES1   0.0000
    36 C23     -4.8101   5.2230   5.2105   C.ar      1 RES1   0.0000
    37 C24     -5.0506   6.5017   5.7626   C.ar      1 RES1   0.0000
    38 C25     -4.0761   7.4681   5.7485   C.ar      1 RES1   0.0000
    39 C26     -2.8259   7.1939   5.1780   C.ar      1 RES1   0.0000
    40 C27     -0.7264   7.9176   4.6132   C.ar      1 RES1   0.0000
    41 C28     -0.4071   6.5759   4.2277   C.ar      1 RES1   0.0000
    42 C29      0.9884   6.1084   3.9580   C.ar      1 RES1   0.0000
    43 C30      2.0851   6.6456   4.5666   C.ar      1 RES1   0.0000
    44 C31      3.3510   6.0725   4.3152   C.ar      1 RES1   0.0000
    45 C32      3.4263   4.9960   3.4948   C.ar      1 RES1   0.0000
    46 C33      2.2697   4.4858   2.9385   C.ar      1 RES1   0.0000
    47 C34      0.1690   9.0593   4.3661   C.ar      1 RES1   0.0000
    48 C35      0.2313  10.0931   5.3136   C.ar      1 RES1   0.0000
    49 C36      1.1292  11.1291   5.0227   C.ar      1 RES1   0.0000
    50 C37      1.7764  11.1336   3.8351   C.ar      1 RES1   0.0000
    51 C38      1.6211  10.0908   2.9484   C.ar      1 RES1   0.0000
    52 O1      -3.1392   9.1492  12.5178   O.2       2 RES2   0.0000
    53 C39     -1.1744  10.0818  12.3682   C.3       2 RES2   0.0000
    54 C40     -2.5800  10.1358  12.6661   C.2       2 RES2   0.0000
    55 C41     -3.3610  11.3157  12.4571   C.3       2 RES2   0.0000
@<TRIPOS>BOND
     1     1     4    1
     2     2    14    2
     3     3    15    2
     4     4    14    2
     5     5     1    1
     6     6     1    1
     7     7     1    1
     8     8     1    1
     9     9     1    1
    10    10    21   ar
    11    11    29   ar
    12    12    39   ar
    13    13    47   ar
    14    15     5    2
    15    16     6   ar
    16    17    16   ar
    17    18    17   ar
    18    19    18   ar
    19    20    19   ar
    20    21    16   ar
    21    22    10   ar
    22    23     6   ar
    23    24     7   ar
    24    25    24   ar
    25    26    25   ar
    26    27    26   ar
    27    28     7   ar
    28    29    22    1
    29    30    29   ar
    30    31    30   ar
    31    32    31   ar
    32    33    11   ar
    33    34     8   ar
    34    35    34   ar
    35    36    35   ar
    36    37    36   ar
    37    38    37   ar
    38    39    34   ar
    39    40    12   ar
    40    41     8   ar
    41    42     9   ar
    42    43    42   ar
    43    44    43   ar
    44    45    44   ar
    45    46     9   ar
    46    47    40    1
    47    48    47   ar
    48    49    48   ar
    49    50    49   ar
    50    51    13   ar
    51    20    21   ar
    52    22    23   ar
    53    23    24    1
    54    27    28   ar
    55    32    33   ar
    56    38    39   ar
    57    40    41   ar
    58    41    42    1
    59    45    46   ar
    60    50    51   ar
    61    52    54    2
    62    53    54    1
    63    54    55    1
@<TRIPOS>SUBSTRUCTURE
     1 RES1        1 GROUP             0 ****  ****    0  
     2 RES2       52 GROUP             0 ****  ****    0  
@<TRIPOS>CRYSIN
   12.0570   22.4740   15.0040   90.0000  109.7600   90.0000   231     1
