@<TRIPOS>MOLECULE
LUCBUJ
    81    90     1     0     0
SMALL
NO_CHARGES
****
Generated from the CSD

@<TRIPOS>ATOM
     1 Fe1      9.6470   7.4653  11.7877   Fe        1 RES1   0.0000
     2 O1      10.6627   8.3631  13.3238   O.co2     1 RES1   0.0000
     3 O2       9.3137  13.4884  11.7574   O.2       1 RES1   0.0000
     4 O3      12.3681  12.8190  13.1752   O.2       1 RES1   0.0000
     5 O4       9.5441   8.8901  10.3166   O.co2     1 RES1   0.0000
     6 O5       8.4789   9.7577  15.4543   O.2       1 RES1   0.0000
     7 O6      12.2043   9.8442   8.7669   O.2       1 RES1   0.0000
     8 O7       9.0915  10.8557   9.4126   O.co2     1 RES1   0.0000
     9 N1      11.5473   6.6103  11.1260   N.ar      1 RES1   0.0000
    10 N2       7.6806   8.0797  12.5444   N.ar      1 RES1   0.0000
    11 N3       9.0626   5.8189  13.2082   N.3       1 RES1   0.0000
    12 O8      11.7169   9.6607  14.7430   O.co2     1 RES1   0.0000
    13 N4       9.0288   5.8771  10.3110   N.3       1 RES1   0.0000
    14 C1      11.1392  11.3856  11.7811   C.2       1 RES1   0.0000
    15 C2      10.0078  11.4711  12.7483   C.2       1 RES1   0.0000
    16 C3      13.5171  12.1102  11.2438   C.ar      1 RES1   0.0000
    17 C4       9.1568  12.6907  12.6679   C.2       1 RES1   0.0000
    18 C5       8.1533  12.9081  13.7233   C.ar      1 RES1   0.0000
    19 C6       9.8273  10.5636  13.7170   C.2       1 RES1   0.0000
    20 C7       8.7060  10.6678  14.6830   C.2       1 RES1   0.0000
    21 C8       7.9020  11.9228  14.6780   C.ar      1 RES1   0.0000
    22 C9      13.4770  11.3367  10.0844   C.ar      1 RES1   0.0000
    23 C10     11.0629  10.7053  10.6269   C.2       1 RES1   0.0000
    24 C11      9.7885  10.0951  10.0825   C.2       1 RES1   0.0000
    25 C12     12.3544  12.1450  12.1646   C.2       1 RES1   0.0000
    26 C13     12.2624  10.5742   9.7392   C.2       1 RES1   0.0000
    27 C14     14.6657  12.8273  11.5683   C.ar      1 RES1   0.0000
    28 H1      14.6992  13.3474  12.3628   H         1 RES1   0.0000
    29 C15     10.8135   9.4238  13.9565   C.2       1 RES1   0.0000
    30 C16      7.4645  14.1206  13.7944   C.ar      1 RES1   0.0000
    31 H2       7.6401  14.8021  13.1556   H         1 RES1   0.0000
    32 C17      8.2485   4.8741  12.4185   C.3       1 RES1   0.0000
    33 H3       7.3399   5.2480  12.2922   H         1 RES1   0.0000
    34 H4       8.1630   4.0195  12.9117   H         1 RES1   0.0000
    35 C18     15.7563  12.7738  10.7209   C.ar      1 RES1   0.0000
    36 H5      16.5402  13.2678  10.9328   H         1 RES1   0.0000
    37 C19      7.2665   7.4390  13.6510   C.ar      1 RES1   0.0000
    38 C20     15.7206  12.0153   9.5766   C.ar      1 RES1   0.0000
    39 H6      16.4788  11.9884   9.0053   H         1 RES1   0.0000
    40 C21     12.7282   6.7419  11.7433   C.ar      1 RES1   0.0000
    41 H7      12.7827   7.3004  12.5088   H         1 RES1   0.0000
    42 C22     11.4753   5.8031  10.0443   C.ar      1 RES1   0.0000
    43 C23      8.8765   4.6176  11.0756   C.3       1 RES1   0.0000
    44 H8       8.3118   3.9869  10.5620   H         1 RES1   0.0000
    45 H9       9.7654   4.2007  11.2024   H         1 RES1   0.0000
    46 C24      6.5337  14.3335  14.7846   C.ar      1 RES1   0.0000
    47 H10      6.0723  15.1626  14.8312   H         1 RES1   0.0000
    48 C25      8.2372   6.4656  14.2463   C.3       1 RES1   0.0000
    49 H11      8.8273   6.9394  14.8857   H         1 RES1   0.0000
    50 H12      7.7398   5.7719  14.7477   H         1 RES1   0.0000
    51 C26      6.9381  12.1379  15.6492   C.ar      1 RES1   0.0000
    52 H13      6.7367  11.4526  16.2756   H         1 RES1   0.0000
    53 C27      6.8892   9.0330  12.0289   C.ar      1 RES1   0.0000
    54 H14      7.1672   9.4826  11.2393   H         1 RES1   0.0000
    55 C28     14.5875  11.2904   9.2511   C.ar      1 RES1   0.0000
    56 H15     14.5691  10.7643   8.4612   H         1 RES1   0.0000
    57 C29     13.8644   6.0990  11.3115   C.ar      1 RES1   0.0000
    58 H16     14.6908   6.2294  11.7625   H         1 RES1   0.0000
    59 C30      6.0475   7.7057  14.2454   C.ar      1 RES1   0.0000
    60 H17      5.7574   7.2030  14.9965   H         1 RES1   0.0000
    61 C31     10.2010   5.1268  13.8586   C.3       1 RES1   0.0000
    62 H18      9.8601   4.4801  14.5118   H         1 RES1   0.0000
    63 H19     10.7657   5.7847  14.3144   H         1 RES1   0.0000
    64 H20     10.7290   4.6581  13.1797   H         1 RES1   0.0000
    65 C32      6.2677  13.3425  15.7107   C.ar      1 RES1   0.0000
    66 H21      5.6223  13.4919  16.3927   H         1 RES1   0.0000
    67 C33     12.5760   5.1113   9.5814   C.ar      1 RES1   0.0000
    68 H22     12.4987   4.5336   8.8303   H         1 RES1   0.0000
    69 C34     10.1346   5.7625   9.3500   C.3       1 RES1   0.0000
    70 H23     10.0800   6.5053   8.6971   H         1 RES1   0.0000
    71 H24     10.0490   4.9109   8.8512   H         1 RES1   0.0000
    72 C35      5.2547   8.7182  13.7270   C.ar      1 RES1   0.0000
    73 H25      4.4297   8.9494  14.1362   H         1 RES1   0.0000
    74 C36      7.7840   6.2047   9.5702   C.3       1 RES1   0.0000
    75 H26      7.9213   7.0238   9.0486   H         1 RES1   0.0000
    76 H27      7.0520   6.3418  10.2057   H         1 RES1   0.0000
    77 H28      7.5593   5.4673   8.9667   H         1 RES1   0.0000
    78 C37      5.6911   9.3800  12.6035   C.ar      1 RES1   0.0000
    79 H29      5.1661  10.0763  12.2247   H         1 RES1   0.0000
    80 C38     13.7910   5.2656  10.2218   C.ar      1 RES1   0.0000
    81 H30     14.5617   4.8040   9.9136   H         1 RES1   0.0000
@<TRIPOS>BOND
     1     1     2    1
     2     2    29    1
     3     3    17    2
     4     4    25    2
     5     5     1    1
     6     6    20    2
     7     7    26    2
     8     8    24    2
     9     9     1    1
    10    10     1    1
    11    11     1    1
    12    12    29    2
    13    13     1    1
    14    14    15    1
    15    15    17    1
    16    16    22   ar
    17    17    18    1
    18    18    21   ar
    19    19    15    2
    20    20    19    1
    21    21    20    1
    22    22    26    1
    23    23    14    2
    24    24     5    1
    25    25    14    1
    26    26    23    1
    27    27    16   ar
    28    28    27    1
    29    29    19    1
    30    30    18   ar
    31    31    30    1
    32    32    11    1
    33    33    32    1
    34    34    32    1
    35    35    27   ar
    36    36    35    1
    37    37    10   ar
    38    38    35   ar
    39    39    38    1
    40    40     9   ar
    41    41    40    1
    42    42     9   ar
    43    43    13    1
    44    44    43    1
    45    45    43    1
    46    46    30   ar
    47    47    46    1
    48    48    11    1
    49    49    48    1
    50    50    48    1
    51    51    21   ar
    52    52    51    1
    53    53    10   ar
    54    54    53    1
    55    55    22   ar
    56    56    55    1
    57    57    40   ar
    58    58    57    1
    59    59    37   ar
    60    60    59    1
    61    61    11    1
    62    62    61    1
    63    63    61    1
    64    64    61    1
    65    65    46   ar
    66    66    65    1
    67    67    42   ar
    68    68    67    1
    69    69    13    1
    70    70    69    1
    71    71    69    1
    72    72    59   ar
    73    73    72    1
    74    74    13    1
    75    75    74    1
    76    76    74    1
    77    77    74    1
    78    78    53   ar
    79    79    78    1
    80    80    57   ar
    81    81    80    1
    82    16    25    1
    83    23    24    1
    84    32    43    1
    85    37    48    1
    86    38    55   ar
    87    42    69    1
    88    51    65   ar
    89    67    80   ar
    90    72    78   ar
@<TRIPOS>SUBSTRUCTURE
     1 RES1        1 GROUP             0 ****  ****    0  
@<TRIPOS>CRYSIN
    9.8340   11.4350   16.1820   82.6910   87.3880   74.6000     2     1
