@<TRIPOS>MOLECULE
LUCHAV
    86    96     1     0     0
SMALL
NO_CHARGES
****
Generated from the CSD

@<TRIPOS>ATOM
     1 Fe1      4.4172   7.5620   3.9855   Fe        1 RES1   0.0000
     2 O1       3.8224   5.9771   2.9543   O.3       1 RES1   0.0000
     3 O2       2.0057   5.3509   1.1129   O.2       1 RES1   0.0000
     4 O3       6.2694   2.4975   3.4072   O.2       1 RES1   0.0000
     5 O4       5.8648   5.5957   7.7437   O.2       1 RES1   0.0000
     6 O5       2.7633   4.9634   6.8970   O.co2     1 RES1   0.0000
     7 O6       3.5644   6.6873   5.7109   O.co2     1 RES1   0.0000
     8 O7       3.5482   1.5222   4.5108   O.2       1 RES1   0.0000
     9 N1       5.2048   9.0415   2.4998   N.ar      1 RES1   0.0000
    10 N2       5.1367   9.1316   5.3654   N.3       1 RES1   0.0000
    11 N3       2.6616   8.9920   4.2665   N.ar      1 RES1   0.0000
    12 N4       6.6435   7.0842   4.2789   N.ar      1 RES1   0.0000
    13 C1       3.3556   4.7728   2.9854   C.2       1 RES1   0.0000
    14 C2       2.2891   4.5058   1.9457   C.2       1 RES1   0.0000
    15 C3       1.6085   3.1913   1.9457   C.ar      1 RES1   0.0000
    16 C4       0.5284   2.9636   1.1036   C.ar      1 RES1   0.0000
    17 H1       0.1916   3.6694   0.5653   H         1 RES1   0.0000
    18 C5      -0.0543   1.7201   1.0475   C.ar      1 RES1   0.0000
    19 H2      -0.7942   1.5691   0.4702   H         1 RES1   0.0000
    20 C6       0.4336   0.6899   1.8289   C.ar      1 RES1   0.0000
    21 H3       0.0367  -0.1715   1.7712   H         1 RES1   0.0000
    22 C7       1.4878   0.8959   2.6897   C.ar      1 RES1   0.0000
    23 H4       1.8159   0.1821   3.2236   H         1 RES1   0.0000
    24 C8       2.0719   2.1588   2.7753   C.ar      1 RES1   0.0000
    25 C9       3.1951   2.4247   3.7295   C.2       1 RES1   0.0000
    26 C10      3.7807   3.7480   3.7793   C.2       1 RES1   0.0000
    27 C11      4.9023   3.8969   4.7474   C.2       1 RES1   0.0000
    28 C12      4.8404   4.6886   5.8277   C.2       1 RES1   0.0000
    29 C13      5.9500   4.7966   6.8098   C.2       1 RES1   0.0000
    30 C14      7.1263   3.9376   6.6137   C.ar      1 RES1   0.0000
    31 C15      7.2431   3.1399   5.4712   C.ar      1 RES1   0.0000
    32 C16      6.1499   3.1154   4.4486   C.2       1 RES1   0.0000
    33 C17      8.3916   2.3989   5.2704   C.ar      1 RES1   0.0000
    34 H5       8.4806   1.8766   4.4818   H         1 RES1   0.0000
    35 C18      9.4032   2.4065   6.1919   C.ar      1 RES1   0.0000
    36 H6      10.1864   1.8903   6.0389   H         1 RES1   0.0000
    37 C19      9.2872   3.1722   7.3608   C.ar      1 RES1   0.0000
    38 H7       9.9807   3.1607   8.0095   H         1 RES1   0.0000
    39 C20      8.1623   3.9424   7.5647   C.ar      1 RES1   0.0000
    40 H8       8.0868   4.4755   8.3474   H         1 RES1   0.0000
    41 C21      3.6034   5.4940   6.1623   C.2       1 RES1   0.0000
    42 C22      5.2892   8.9562   1.1378   C.ar      1 RES1   0.0000
    43 C23      4.6386   7.8026   0.4389   C.3       1 RES1   0.0000
    44 H9       5.3290   7.2134   0.0684   H         1 RES1   0.0000
    45 H10      4.0720   8.1377  -0.2876   H         1 RES1   0.0000
    46 H11      4.0893   7.3012   1.0766   H         1 RES1   0.0000
    47 C24      5.9542   9.9151   0.4016   C.ar      1 RES1   0.0000
    48 H12      5.9991   9.8370  -0.5441   H         1 RES1   0.0000
    49 C25      6.5546  10.9884   1.0335   C.ar      1 RES1   0.0000
    50 H13      7.0357  11.6389   0.5345   H         1 RES1   0.0000
    51 C26      6.4400  11.0929   2.4002   C.ar      1 RES1   0.0000
    52 H14      6.8136  11.8351   2.8590   H         1 RES1   0.0000
    53 C27      5.7781  10.1098   3.0897   C.ar      1 RES1   0.0000
    54 C28      5.6209  10.2934   4.5887   C.3       1 RES1   0.0000
    55 H15      6.4993  10.5634   4.9575   H         1 RES1   0.0000
    56 H16      4.9953  11.0454   4.7408   H         1 RES1   0.0000
    57 C29      3.9794   9.5019   6.2168   C.3       1 RES1   0.0000
    58 H17      4.1829  10.3440   6.6957   H         1 RES1   0.0000
    59 H18      3.8328   8.7942   6.8931   H         1 RES1   0.0000
    60 C30      2.7264   9.6819   5.4090   C.ar      1 RES1   0.0000
    61 C31      1.5263   9.0865   3.5240   C.ar      1 RES1   0.0000
    62 C32      0.4553   9.8420   3.9629   C.ar      1 RES1   0.0000
    63 H19     -0.3434   9.8743   3.4503   H         1 RES1   0.0000
    64 C33      0.5406  10.5461   5.1366   C.ar      1 RES1   0.0000
    65 H20     -0.1925  11.0672   5.4430   H         1 RES1   0.0000
    66 C34      1.7135  10.4842   5.8681   C.ar      1 RES1   0.0000
    67 H21      1.8144  10.9851   6.6682   H         1 RES1   0.0000
    68 C35      1.5003   8.3622   2.2258   C.3       1 RES1   0.0000
    69 H22      2.1001   8.8064   1.5906   H         1 RES1   0.0000
    70 H23      0.5877   8.3631   1.8683   H         1 RES1   0.0000
    71 H24      1.7963   7.4372   2.3614   H         1 RES1   0.0000
    72 C36      6.1920   8.5119   6.1825   C.3       1 RES1   0.0000
    73 H25      5.7672   7.9657   6.8911   H         1 RES1   0.0000
    74 H26      6.7136   9.2266   6.6264   H         1 RES1   0.0000
    75 C37      7.1302   7.6430   5.4012   C.ar      1 RES1   0.0000
    76 C38      7.4615   6.2521   3.5847   C.ar      1 RES1   0.0000
    77 C39      8.7144   5.9116   4.0563   C.ar      1 RES1   0.0000
    78 H27      9.2428   5.2807   3.5824   H         1 RES1   0.0000
    79 C40      9.2000   6.4793   5.2082   C.ar      1 RES1   0.0000
    80 H28     10.0640   6.2526   5.5330   H         1 RES1   0.0000
    81 C41      8.4127   7.3865   5.8852   C.ar      1 RES1   0.0000
    82 H29      8.7356   7.8258   6.6635   H         1 RES1   0.0000
    83 C42      6.9746   5.7164   2.2694   C.3       1 RES1   0.0000
    84 H30      5.9947   5.7153   2.2605   H         1 RES1   0.0000
    85 H31      7.3035   4.8013   2.1479   H         1 RES1   0.0000
    86 H32      7.3077   6.2828   1.5427   H         1 RES1   0.0000
@<TRIPOS>BOND
     1     1     2    1
     2     2    13    1
     3     3    14    2
     4     4    32    2
     5     5    29    2
     6     6    41    2
     7     7     1    1
     8     8    25    2
     9     9     1    1
    10    10     1    1
    11    11     1    1
    12    12     1    1
    13    13    14    1
    14    14    15    1
    15    15    16   ar
    16    16    17    1
    17    18    16   ar
    18    19    18    1
    19    20    18   ar
    20    21    20    1
    21    22    20   ar
    22    23    22    1
    23    24    15   ar
    24    25    24    1
    25    26    13    2
    26    27    26    1
    27    28    27    2
    28    29    28    1
    29    30    29    1
    30    31    30   ar
    31    32    27    1
    32    33    31   ar
    33    34    33    1
    34    35    33   ar
    35    36    35    1
    36    37    35   ar
    37    38    37    1
    38    39    30   ar
    39    40    39    1
    40    41     7    1
    41    42     9   ar
    42    43    42    1
    43    44    43    1
    44    45    43    1
    45    46    43    1
    46    47    42   ar
    47    48    47    1
    48    49    47   ar
    49    50    49    1
    50    51    49   ar
    51    52    51    1
    52    53     9   ar
    53    54    10    1
    54    55    54    1
    55    56    54    1
    56    57    10    1
    57    58    57    1
    58    59    57    1
    59    60    11   ar
    60    61    11   ar
    61    62    61   ar
    62    63    62    1
    63    64    62   ar
    64    65    64    1
    65    66    60   ar
    66    67    66    1
    67    68    61    1
    68    69    68    1
    69    70    68    1
    70    71    68    1
    71    72    10    1
    72    73    72    1
    73    74    72    1
    74    75    12   ar
    75    76    12   ar
    76    77    76   ar
    77    78    77    1
    78    79    77   ar
    79    80    79    1
    80    81    75   ar
    81    82    81    1
    82    83    76    1
    83    84    83    1
    84    85    83    1
    85    86    83    1
    86    22    24   ar
    87    25    26    1
    88    28    41    1
    89    31    32    1
    90    37    39   ar
    91    51    53   ar
    92    53    54    1
    93    57    60    1
    94    64    66   ar
    95    72    75    1
    96    79    81   ar
@<TRIPOS>SUBSTRUCTURE
     1 RES1        1 GROUP             0 ****  ****    0  
@<TRIPOS>CRYSIN
    9.0769   11.7420   16.9830   70.8050   75.5690   86.1740     2     1
