@<TRIPOS>MOLECULE
LUFHOM
    95    98     1     0     0
SMALL
NO_CHARGES
****
Generated from the CSD

@<TRIPOS>ATOM
     1 Fe1      8.6461   2.8567  12.7484   Fe        1 RES1   0.0000
     2 P1       9.3358   2.0698  14.7248   P.3       1 RES1   0.0000
     3 P2       8.7430   1.1066  11.3469   P.3       1 RES1   0.0000
     4 P3      10.5840   3.7692  11.9927   P.3       1 RES1   0.0000
     5 P4       7.2162   4.4618  12.0965   P.3       1 RES1   0.0000
     6 Si1      6.6408   1.9424  13.4422   Si        1 RES1   0.0000
     7 C1       8.2354   0.7460  15.4089   C.ar      1 RES1   0.0000
     8 C2       6.9511   0.7193  14.8689   C.ar      1 RES1   0.0000
     9 C3       6.0349  -0.2027  15.3724   C.ar      1 RES1   0.0000
    10 H1       5.1691  -0.2151  15.0319   H         1 RES1   0.0000
    11 C4       6.3821  -1.1023  16.3707   C.ar      1 RES1   0.0000
    12 H2       5.7656  -1.7288  16.6753   H         1 RES1   0.0000
    13 C5       7.6408  -1.0575  16.9002   C.ar      1 RES1   0.0000
    14 H3       7.8766  -1.6505  17.5767   H         1 RES1   0.0000
    15 C6       8.5696  -0.1397  16.4410   C.ar      1 RES1   0.0000
    16 H4       9.4181  -0.1118  16.8188   H         1 RES1   0.0000
    17 C7       5.5791   3.4003  14.0245   C.ar      1 RES1   0.0000
    18 C8       5.8225   4.5794  13.3240   C.ar      1 RES1   0.0000
    19 C9       5.0618   5.7191  13.6062   C.ar      1 RES1   0.0000
    20 H5       5.1993   6.4960  13.1139   H         1 RES1   0.0000
    21 C10      4.1111   5.7058  14.6049   C.ar      1 RES1   0.0000
    22 H6       3.6262   6.4755  14.7981   H         1 RES1   0.0000
    23 C11      3.8824   4.5498  15.3145   C.ar      1 RES1   0.0000
    24 H7       3.2547   4.5446  16.0006   H         1 RES1   0.0000
    25 C12      4.5793   3.3969  15.0140   C.ar      1 RES1   0.0000
    26 H8       4.3866   2.6105  15.4711   H         1 RES1   0.0000
    27 C13      5.2934   1.0412  12.3921   C.3       1 RES1   0.0000
    28 H9       5.0289   1.6039  11.6617   H         1 RES1   0.0000
    29 H10      4.5311   0.8534  12.9439   H         1 RES1   0.0000
    30 H11      5.6515   0.2192  12.0496   H         1 RES1   0.0000
    31 C14      9.2487   3.2315  16.2078   C.3       1 RES1   0.0000
    32 H12      9.4670   2.6957  16.9994   H         1 RES1   0.0000
    33 C15      7.8634   3.8130  16.4417   C.3       1 RES1   0.0000
    34 H13      7.6434   4.4150  15.7278   H         1 RES1   0.0000
    35 H14      7.8515   4.2879  17.2757   H         1 RES1   0.0000
    36 H15      7.2184   3.1016  16.4699   H         1 RES1   0.0000
    37 C16     10.2687   4.3697  16.1534   C.3       1 RES1   0.0000
    38 H16     11.1362   4.0112  15.9545   H         1 RES1   0.0000
    39 H17     10.2933   4.8170  17.0029   H         1 RES1   0.0000
    40 H18     10.0148   4.9935  15.4693   H         1 RES1   0.0000
    41 C17     11.1002   1.4310  14.9591   C.3       1 RES1   0.0000
    42 H19     11.6632   2.0956  14.5112   H         1 RES1   0.0000
    43 C18     11.3263   0.1437  14.1692   C.3       1 RES1   0.0000
    44 H20     10.8637  -0.5804  14.5980   H         1 RES1   0.0000
    45 H21     12.2654  -0.0505  14.1375   H         1 RES1   0.0000
    46 H22     10.9914   0.2540  13.2768   H         1 RES1   0.0000
    47 C19     11.7238   1.2761  16.3641   C.3       1 RES1   0.0000
    48 H23     11.5474   2.0650  16.8807   H         1 RES1   0.0000
    49 H24     12.6729   1.1535  16.2804   H         1 RES1   0.0000
    50 H25     11.3395   0.5132  16.8028   H         1 RES1   0.0000
    51 C20      8.4085  -0.5988  12.0005   C.3       1 RES1   0.0000
    52 H26      9.0707  -0.8249  12.6588   H         1 RES1   0.0000
    53 H27      8.4452  -1.2315  11.2792   H         1 RES1   0.0000
    54 H28      7.5366  -0.6226  12.4020   H         1 RES1   0.0000
    55 C21     10.2669   0.6320  10.4003   C.3       1 RES1   0.0000
    56 H29     10.5490   1.3716   9.8571   H         1 RES1   0.0000
    57 H30     10.0727  -0.1219   9.8376   H         1 RES1   0.0000
    58 H31     10.9668   0.4008  11.0153   H         1 RES1   0.0000
    59 C22      7.6317   1.0611   9.8685   C.3       1 RES1   0.0000
    60 H32      6.7274   1.2265  10.1423   H         1 RES1   0.0000
    61 H33      7.6878   0.1983   9.4534   H         1 RES1   0.0000
    62 H34      7.9049   1.7365   9.2426   H         1 RES1   0.0000
    63 C23     10.6296   4.3277  10.2356   C.3       1 RES1   0.0000
    64 H35     10.4551   3.5809   9.6588   H         1 RES1   0.0000
    65 H36     11.4954   4.6900  10.0378   H         1 RES1   0.0000
    66 H37      9.9609   5.0024  10.0962   H         1 RES1   0.0000
    67 C24     12.1964   2.8486  11.9768   C.3       1 RES1   0.0000
    68 H38     12.7041   3.0797  12.7580   H         1 RES1   0.0000
    69 H39     12.6925   3.0861  11.1907   H         1 RES1   0.0000
    70 H40     12.0248   1.9034  11.9734   H         1 RES1   0.0000
    71 C25     11.2879   5.2964  12.7402   C.3       1 RES1   0.0000
    72 H41     10.6477   6.0085  12.6747   H         1 RES1   0.0000
    73 H42     12.0883   5.5426  12.2709   H         1 RES1   0.0000
    74 H43     11.4949   5.1345  13.6629   H         1 RES1   0.0000
    75 C26      6.2284   4.3050  10.4803   C.3       1 RES1   0.0000
    76 H44      5.9586   3.3634  10.4469   H         1 RES1   0.0000
    77 C27      7.1246   4.4934   9.2550   C.3       1 RES1   0.0000
    78 H45      7.3639   5.4193   9.1735   H         1 RES1   0.0000
    79 H46      6.6519   4.2141   8.4669   H         1 RES1   0.0000
    80 H47      7.9198   3.9649   9.3560   H         1 RES1   0.0000
    81 C28      4.9170   5.0897  10.3342   C.3       1 RES1   0.0000
    82 H48      4.3428   4.8953  11.0791   H         1 RES1   0.0000
    83 H49      4.4797   4.8333   9.5189   H         1 RES1   0.0000
    84 H50      5.1073   6.0301  10.3140   H         1 RES1   0.0000
    85 C29      7.9058   6.2302  12.0712   C.3       1 RES1   0.0000
    86 H51      8.7858   6.1498  11.6476   H         1 RES1   0.0000
    87 C30      7.1966   7.3401  11.2918   C.3       1 RES1   0.0000
    88 H52      7.0793   7.0653  10.3796   H         1 RES1   0.0000
    89 H53      7.7273   8.1397  11.3199   H         1 RES1   0.0000
    90 H54      6.3387   7.5112  11.6883   H         1 RES1   0.0000
    91 C31      8.1987   6.7310  13.4980   C.3       1 RES1   0.0000
    92 H55      7.3712   6.9147  13.9498   H         1 RES1   0.0000
    93 H56      8.7228   7.5340  13.4539   H         1 RES1   0.0000
    94 H57      8.6842   6.0577  13.9799   H         1 RES1   0.0000
    95 H58      8.5150   4.0417  13.7072   H         1 RES1   0.0000
@<TRIPOS>BOND
     1     1     2    1
     2     2     7    1
     3     3     1    1
     4     4     1    1
     5     5     1    1
     6     6     1    1
     7     7     8   ar
     8     8     6    1
     9     9     8   ar
    10    10     9    1
    11    11     9   ar
    12    12    11    1
    13    13    11   ar
    14    14    13    1
    15    15     7   ar
    16    16    15    1
    17    17     6    1
    18    18     5    1
    19    19    18   ar
    20    20    19    1
    21    21    19   ar
    22    22    21    1
    23    23    21   ar
    24    24    23    1
    25    25    17   ar
    26    26    25    1
    27    27     6    1
    28    28    27    1
    29    29    27    1
    30    30    27    1
    31    31     2    1
    32    32    31    1
    33    33    31    1
    34    34    33    1
    35    35    33    1
    36    36    33    1
    37    37    31    1
    38    38    37    1
    39    39    37    1
    40    40    37    1
    41    41     2    1
    42    42    41    1
    43    43    41    1
    44    44    43    1
    45    45    43    1
    46    46    43    1
    47    47    41    1
    48    48    47    1
    49    49    47    1
    50    50    47    1
    51    51     3    1
    52    52    51    1
    53    53    51    1
    54    54    51    1
    55    55     3    1
    56    56    55    1
    57    57    55    1
    58    58    55    1
    59    59     3    1
    60    60    59    1
    61    61    59    1
    62    62    59    1
    63    63     4    1
    64    64    63    1
    65    65    63    1
    66    66    63    1
    67    67     4    1
    68    68    67    1
    69    69    67    1
    70    70    67    1
    71    71     4    1
    72    72    71    1
    73    73    71    1
    74    74    71    1
    75    75     5    1
    76    76    75    1
    77    77    75    1
    78    78    77    1
    79    79    77    1
    80    80    77    1
    81    81    75    1
    82    82    81    1
    83    83    81    1
    84    84    81    1
    85    85     5    1
    86    86    85    1
    87    87    85    1
    88    88    87    1
    89    89    87    1
    90    90    87    1
    91    91    85    1
    92    92    91    1
    93    93    91    1
    94    94    91    1
    95    95     1    1
    96    13    15   ar
    97    17    18   ar
    98    23    25   ar
@<TRIPOS>SUBSTRUCTURE
     1 RES1        1 GROUP             0 ****  ****    0  
@<TRIPOS>CRYSIN
   10.3330   10.4810   18.0360   79.1710   84.0130   63.8580     2     1
