@<TRIPOS>MOLECULE
LUGKAB
   108   118     4     0     0
SMALL
USER_CHARGES
****
Generated from the CSD

@<TRIPOS>ATOM
     1 Fe1      4.7760   7.1830   3.2142   Fe        1 RES1   2.0000
     2 C1       2.4970  13.8898   0.4643   C.ar      1 RES1   0.0000
     3 H1       2.6195  14.7760   0.2119   H         1 RES1   0.0000
     4 N1       5.2069   7.4326   5.1132   N.ar      1 RES1   0.0000
     5 C2       1.3578  13.2313   0.1464   C.ar      1 RES1   0.0000
     6 H2       0.6821  13.6657  -0.3235   H         1 RES1   0.0000
     7 N2       4.3572   7.5359   1.3344   N.ar      1 RES1   0.0000
     8 N3       2.8994   6.9923   3.7286   N.ar      1 RES1   0.0000
     9 N4       6.6316   6.7868   2.7107   N.ar      1 RES1   0.0000
    10 C3       8.1399   5.0260   2.1390   C.ar      1 RES1   0.0000
    11 H3       8.3234   4.1162   2.0693   H         1 RES1   0.0000
    12 N5       2.1255  11.2408   1.1908   N.ar      1 RES1   0.0000
    13 C4       5.3182   6.7764   7.4000   C.ar      1 RES1   0.0000
    14 H4       5.2929   6.1005   8.0400   H         1 RES1   0.0000
    15 C5       7.5650   7.6765   2.3370   C.ar      1 RES1   0.0000
    16 H5       7.3716   8.5839   2.4109   H         1 RES1   0.0000
    17 C6       0.8435   7.7202   4.6893   C.ar      1 RES1   0.0000
    18 H6       0.2928   8.4185   4.9584   H         1 RES1   0.0000
    19 C7       6.8575   2.3192   3.5822   C.ar      1 RES1   0.0000
    20 N6       7.8589   2.8952   4.2654   N.ar      1 RES1   0.0000
    21 C8       6.3235  11.7898   5.2261   C.ar      1 RES1   0.0000
    22 C9       5.5364   9.0723   6.8129   C.ar      1 RES1   0.0000
    23 H7       5.6598   9.9599   7.0584   H         1 RES1   0.0000
    24 C10      1.2538   5.3930   4.3881   C.ar      1 RES1   0.0000
    25 H8       0.9823   4.5060   4.4620   H         1 RES1   0.0000
    26 C11      3.2425  11.9008   1.5171   C.ar      1 RES1   0.0000
    27 C12      8.8727   0.7426   4.4467   C.ar      1 RES1   0.0000
    28 H9       9.5808   0.2274   4.7590   H         1 RES1   0.0000
    29 C13      4.3179   6.6409   0.3360   C.ar      1 RES1   0.0000
    30 H10      4.4149   5.7403   0.5424   H         1 RES1   0.0000
    31 C14      3.4823  13.2098   1.1796   C.ar      1 RES1   0.0000
    32 H11      4.2765  13.6303   1.4209   H         1 RES1   0.0000
    33 C15      8.7824   7.3077   1.8573   C.ar      1 RES1   0.0000
    34 H12      9.4087   7.9490   1.6091   H         1 RES1   0.0000
    35 C16      4.0016   9.2790  -0.2761   C.ar      1 RES1   0.0000
    36 H13      3.8926  10.1814  -0.4727   H         1 RES1   0.0000
    37 C17      9.0684   5.9588   1.7472   C.ar      1 RES1   0.0000
    38 H14      9.8888   5.6842   1.4083   H         1 RES1   0.0000
    39 C18      5.1875   6.4897   6.0656   C.ar      1 RES1   0.0000
    40 H15      5.0808   5.6015   5.8104   H         1 RES1   0.0000
    41 C19      4.1884  11.1189   2.3523   C.ar      1 RES1   0.0000
    42 C20      4.1423   6.9988  -0.9775   C.ar      1 RES1   0.0000
    43 H16      4.1362   6.3545  -1.6482   H         1 RES1   0.0000
    44 C21      1.2091  11.9433   0.5145   C.ar      1 RES1   0.0000
    45 H17      0.4165  11.5160   0.2845   H         1 RES1   0.0000
    46 C22      8.3877  11.8550   6.2036   C.ar      1 RES1   0.0000
    47 H18      9.2142  11.4629   6.3653   H         1 RES1   0.0000
    48 C23      8.1336  13.0896   6.7335   C.ar      1 RES1   0.0000
    49 H19      8.7857  13.5328   7.2271   H         1 RES1   0.0000
    50 C24      6.9132  13.6657   6.5313   C.ar      1 RES1   0.0000
    51 H20      6.7129  14.4895   6.9119   H         1 RES1   0.0000
    52 N7       7.4985  11.1906   5.4646   N.ar      1 RES1   0.0000
    53 C25      3.9742   8.3305  -1.2828   C.ar      1 RES1   0.0000
    54 H21      3.8434   8.5927  -2.1655   H         1 RES1   0.0000
    55 C26      5.4890   8.0919   7.7681   C.ar      1 RES1   0.0000
    56 H22      5.5721   8.3152   8.6675   H         1 RES1   0.0000
    57 C27      0.4445   6.4100   4.8343   C.ar      1 RES1   0.0000
    58 H23     -0.3717   6.2128   5.2345   H         1 RES1   0.0000
    59 C28      5.7262   3.2065   3.2391   C.ar      1 RES1   0.0000
    60 C29      3.4061   3.3482   3.2001   C.ar      1 RES1   0.0000
    61 C30      5.4262  11.0524   4.3170   C.ar      1 RES1   0.0000
    62 C31      5.9859  13.0131   5.7602   C.ar      1 RES1   0.0000
    63 H24      5.1495  13.3881   5.6026   H         1 RES1   0.0000
    64 C32      2.0651   7.9706   4.1399   C.ar      1 RES1   0.0000
    65 H25      2.3358   8.8555   4.0451   H         1 RES1   0.0000
    66 C33      6.8168   0.9759   3.2977   C.ar      1 RES1   0.0000
    67 H26      6.1120   0.6171   2.8097   H         1 RES1   0.0000
    68 C34      2.4731   5.7078   3.8262   C.ar      1 RES1   0.0000
    69 C35      8.8391   2.0868   4.6768   C.ar      1 RES1   0.0000
    70 H27      9.5454   2.4656   5.1494   H         1 RES1   0.0000
    71 C36      4.1935   8.8617   1.0235   C.ar      1 RES1   0.0000
    72 C37      7.8430   0.1662   3.7481   C.ar      1 RES1   0.0000
    73 H28      7.8343  -0.7500   3.5822   H         1 RES1   0.0000
    74 C38      4.3750   9.7358   2.1864   C.ar      1 RES1   0.0000
    75 C39      5.3979   8.7289   5.4841   C.ar      1 RES1   0.0000
    76 C40      5.2669   9.6637   4.3672   C.ar      1 RES1   0.0000
    77 C41      6.9347   5.4636   2.6340   C.ar      1 RES1   0.0000
    78 C42      5.8145   4.5996   3.0314   C.ar      1 RES1   0.0000
    79 C43      3.4816   4.7399   3.3911   C.ar      1 RES1   0.0000
    80 N8       4.8345   9.0466   3.2521   N.ar      1 RES1   0.0000
    81 N9       4.6815   5.3216   3.2008   N.ar      1 RES1   0.0000
    82 N10      4.7976  11.7573   3.3507   N.ar      1 RES1   0.0000
    83 N11      4.5231   2.6336   3.2196   N.ar      1 RES1   0.0000
    84 N12      1.2463   3.3296   2.1975   N.ar      1 RES1   0.0000
    85 C44      2.1424   2.6265   2.8975   C.ar      1 RES1   0.0000
    86 C45      1.9608   1.3146   3.2698   C.ar      1 RES1   0.0000
    87 H29      2.6154   0.8534   3.7425   H         1 RES1   0.0000
    88 C46     -0.1613   1.4126   2.2101   C.ar      1 RES1   0.0000
    89 H30     -0.9720   1.0246   1.9717   H         1 RES1   0.0000
    90 C47      0.1262   2.7134   1.8559   C.ar      1 RES1   0.0000
    91 H31     -0.4986   3.1802   1.3512   H         1 RES1   0.0000
    92 C48      0.7724   0.7034   2.9184   C.ar      1 RES1   0.0000
    93 H32      0.6067  -0.1801   3.1611   H         1 RES1   0.0000
    94 P1       1.0108   3.1896   7.5539   P.3       2 RES2  -1.0000
    95 F1       0.7250   3.7285   9.0007   F         2 RES2   0.0000
    96 F2      -0.0122   2.0336   7.8281   F         2 RES2   0.0000
    97 F3       2.1488   2.2814   8.1055   F         2 RES2   0.0000
    98 F4      -0.1384   4.1027   6.9845   F         2 RES2   0.0000
    99 F5       2.0092   4.3672   7.3052   F         2 RES2   0.0000
   100 F6       1.2650   2.6702   6.1144   F         2 RES2   0.0000
   101 P2       1.3697  11.9161   5.8277   P.3       3 RES3  -1.0000
   102 F7       1.4305  11.3288   4.3965   F         3 RES3   0.0000
   103 F8       0.3031  12.9570   5.5399   F         3 RES3   0.0000
   104 F9       2.4663  12.9570   5.4520   F         3 RES3   0.0000
   105 F10      1.4736  12.4001   7.3191   F         3 RES3   0.0000
   106 F11      0.3005  10.8466   6.2468   F         3 RES3   0.0000
   107 F12      2.4845  10.8263   6.2106   F         3 RES3   0.0000
   108 O1      -1.0774   9.9395   3.2168   O.3       4 RES4   0.0000
@<TRIPOS>BOND
     1     1     4    1
     2     2     3    1
     3     4    39   ar
     4     5     2   ar
     5     6     5    1
     6     7     1    1
     7     8     1    1
     8     9     1    1
     9    10    11    1
    10    12    26   ar
    11    13    14    1
    12    15     9   ar
    13    16    15    1
    14    17    18    1
    15    19    20   ar
    16    20    69   ar
    17    21    52   ar
    18    22    23    1
    19    24    25    1
    20    26    31   ar
    21    27    28    1
    22    29     7   ar
    23    30    29    1
    24    31     2   ar
    25    32    31    1
    26    33    15   ar
    27    34    33    1
    28    35    36    1
    29    37    10   ar
    30    38    37    1
    31    39    13   ar
    32    40    39    1
    33    41    26    1
    34    42    29   ar
    35    43    42    1
    36    44     5   ar
    37    45    44    1
    38    46    47    1
    39    48    46   ar
    40    49    48    1
    41    50    48   ar
    42    51    50    1
    43    52    46   ar
    44    53    35   ar
    45    54    53    1
    46    55    13   ar
    47    56    55    1
    48    57    17   ar
    49    58    57    1
    50    59    19    1
    51    60    79   ar
    52    61    21    1
    53    62    21   ar
    54    63    62    1
    55    64     8   ar
    56    65    64    1
    57    66    19   ar
    58    67    66    1
    59    68     8   ar
    60    69    27   ar
    61    70    69    1
    62    71     7   ar
    63    72    27   ar
    64    73    72    1
    65    74    41   ar
    66    75     4   ar
    67    76    61   ar
    68    77     9   ar
    69    78    59   ar
    70    79    68    1
    71    80     1    1
    72    81     1    1
    73    82    41   ar
    74    83    59   ar
    75    84    85   ar
    76    85    60    1
    77    86    85   ar
    78    87    86    1
    79    88    89    1
    80    90    84   ar
    81    91    90    1
    82    92    86   ar
    83    93    92    1
    84    10    77   ar
    85    12    44   ar
    86    17    64   ar
    87    22    55   ar
    88    22    75   ar
    89    24    57   ar
    90    24    68   ar
    91    33    37   ar
    92    35    71   ar
    93    42    53   ar
    94    50    62   ar
    95    60    83   ar
    96    61    82   ar
    97    66    72   ar
    98    71    74    1
    99    74    80   ar
   100    75    76    1
   101    76    80   ar
   102    77    78    1
   103    78    81   ar
   104    79    81   ar
   105    88    90   ar
   106    88    92   ar
   107    94    95    1
   108    96    94    1
   109    97    94    1
   110    98    94    1
   111    99    94    1
   112   100    94    1
   113   101   102    1
   114   103   101    1
   115   104   101    1
   116   105   101    1
   117   106   101    1
   118   107   101    1
@<TRIPOS>SUBSTRUCTURE
     1 RES1        1 GROUP             0 ****  ****    0  
     2 RES2       94 GROUP             0 ****  ****    0  
     3 RES3      101 GROUP             0 ****  ****    0  
     4 RES4      108 GROUP             0 ****  ****    0  
@<TRIPOS>CRYSIN
   11.4914   29.5283   14.1580   90.0000   99.9790   90.0000   231     1
