@<TRIPOS>MOLECULE
LUGXUH
   153   165     4     0     0
SMALL
USER_CHARGES
****
Generated from the CSD

@<TRIPOS>ATOM
     1 Fe1     12.4962   3.2729  12.9932   Fe        1 RES1   2.0000
     2 N1      14.4360   1.2368  16.3022   N.pl3     1 RES1   0.0000
     3 N2      13.3729   2.3852  14.7738   N.2       1 RES1   0.0000
     4 N3      10.8504   2.1486  13.8955   N.2       1 RES1   0.0000
     5 N4       9.9988   5.0401  10.0477   N.pl3     1 RES1   0.0000
     6 N5      11.1387   3.8060  11.4517   N.2       1 RES1   0.0000
     7 N6      11.7481   7.1264  14.9048   N.pl3     1 RES1   0.0000
     8 N7      12.1765   5.1937  13.9827   N.2       1 RES1   0.0000
     9 N8      14.1374   4.5268  12.2321   N.2       1 RES1   0.0000
    10 N9      14.5347  -0.2518  11.6413   N.pl3     1 RES1   0.0000
    11 N10     13.4714   1.6284  11.9487   N.2       1 RES1   0.0000
    12 C1      15.7794   2.9081  15.0465   C.3       1 RES1   0.0000
    13 C2      14.5241   2.1928  15.3474   C.2       1 RES1   0.0000
    14 C3      13.1649   0.8052  16.3480   C.2       1 RES1   0.0000
    15 C4      12.4958   1.5039  15.3997   C.2       1 RES1   0.0000
    16 C5      11.1566   1.4582  14.9157   C.2       1 RES1   0.0000
    17 C6       9.4772   2.0822  13.4071   C.3       1 RES1   0.0000
    18 C7       9.4761   1.9895  11.9073   C.3       1 RES1   0.0000
    19 C8       9.8899   3.2609  11.2293   C.2       1 RES1   0.0000
    20 C9       9.1924   4.0301  10.3835   C.2       1 RES1   0.0000
    21 C10     11.1531   4.8893  10.6952   C.2       1 RES1   0.0000
    22 C11     10.2656   5.2559  15.5741   C.3       1 RES1   0.0000
    23 C12     11.3909   5.8328  14.8133   C.2       1 RES1   0.0000
    24 C13     12.8122   7.3215  14.0982   C.2       1 RES1   0.0000
    25 C14     13.0828   6.1331  13.5205   C.2       1 RES1   0.0000
    26 C15     14.0795   5.7388  12.6158   C.2       1 RES1   0.0000
    27 C16     15.1954   4.1560  11.3034   C.3       1 RES1   0.0000
    28 C17     14.6817   3.1184  10.3246   C.3       1 RES1   0.0000
    29 C18     14.4203   1.8138  10.9764   C.2       1 RES1   0.0000
    30 C19     15.0686   0.6419  10.7606   C.2       1 RES1   0.0000
    31 C20     13.5726   0.3722  12.3302   C.2       1 RES1   0.0000
    32 H1       9.9111   5.6350   9.4875   H         1 RES1   0.0000
    33 H2      15.0812   0.9449  16.8472   H         1 RES1   0.0000
    34 H3      14.7427  -0.9615  11.6500   H         1 RES1   0.0000
    35 H4      11.4457   7.6106  15.2689   H         1 RES1   0.0000
    36 H5      11.8234   5.4579  10.6734   H         1 RES1   0.0000
    37 H6       8.3519   3.9222  10.1240   H         1 RES1   0.0000
    38 H7      10.5133   0.9297  15.3452   H         1 RES1   0.0000
    39 H8      12.7306   0.1439  16.9737   H         1 RES1   0.0000
    40 H9      12.9941  -0.0194  12.9123   H         1 RES1   0.0000
    41 H10     15.7495   0.5409  10.1982   H         1 RES1   0.0000
    42 H11     14.6764   6.3890  12.2953   H         1 RES1   0.0000
    43 H12     13.1840   8.1239  13.9456   H         1 RES1   0.0000
    44 H13     10.2005   1.1815  11.7874   H         1 RES1   0.0000
    45 H14      8.5975   1.8843  11.6958   H         1 RES1   0.0000
    46 H15      8.9855   2.9967  13.5881   H         1 RES1   0.0000
    47 H16      9.0471   1.4347  13.8235   H         1 RES1   0.0000
    48 H17     13.9052   3.4172   9.9344   H         1 RES1   0.0000
    49 H18     15.3308   3.0257   9.6706   H         1 RES1   0.0000
    50 H19     15.9225   3.7493  11.8419   H         1 RES1   0.0000
    51 H20     15.5237   4.9280  10.7606   H         1 RES1   0.0000
    52 H21     15.8434   3.6829  15.5937   H         1 RES1   0.0000
    53 H22     16.5144   2.3340  15.2209   H         1 RES1   0.0000
    54 H23     15.9683   3.0077  14.2835   H         1 RES1   0.0000
    55 H24     10.5631   4.9045  16.4047   H         1 RES1   0.0000
    56 H25      9.6194   5.9338  15.7289   H         1 RES1   0.0000
    57 H26      9.6739   4.7855  15.0378   H         1 RES1   0.0000
    58 N11     10.8035   8.6151  17.1895   N.1       2 RES2   0.0000
    59 C21     10.3556   8.5943  19.6464   C.3       2 RES2   0.0000
    60 C22     10.6592   8.5985  18.2337   C.1       2 RES2   0.0000
    61 H27      9.4588   8.3328  19.8164   H         2 RES2   0.0000
    62 H28     10.9468   8.0243  20.1238   H         2 RES2   0.0000
    63 H29     10.4836   9.4922  19.9320   H         2 RES2   0.0000
    64 C23      5.5146   4.3138  13.7058   C.ar      3 RES3   0.0000
    65 C24      5.7948   3.1129  14.3664   C.ar      3 RES3   0.0000
    66 C25      5.9630   1.9148  13.6731   C.ar      3 RES3   0.0000
    67 C26      5.8563   1.8788  12.3237   C.ar      3 RES3   0.0000
    68 C27      5.5715   3.0229  11.6130   C.ar      3 RES3   0.0000
    69 C28      5.4084   4.2252  12.3193   C.ar      3 RES3   0.0000
    70 C29      5.3237   5.5132  16.1038   C.ar      3 RES3   0.0000
    71 C30      4.1335   5.5326  16.8080   C.ar      3 RES3   0.0000
    72 C31      4.0760   5.3984  18.1901   C.ar      3 RES3   0.0000
    73 C32      5.2071   5.2213  18.9008   C.ar      3 RES3   0.0000
    74 C33      6.4152   5.1217  18.2599   C.ar      3 RES3   0.0000
    75 C34      6.4459   5.2836  16.8777   C.ar      3 RES3   0.0000
    76 C35      6.7159   6.6560  14.1462   C.ar      3 RES3   0.0000
    77 C36      7.5639   6.4485  13.0605   C.ar      3 RES3   0.0000
    78 C37      8.6426   7.2897  12.7662   C.ar      3 RES3   0.0000
    79 C38      8.9088   8.3563  13.5641   C.ar      3 RES3   0.0000
    80 C39      8.1333   8.6123  14.6476   C.ar      3 RES3   0.0000
    81 C40      7.0742   7.7559  14.9288   C.ar      3 RES3   0.0000
    82 C41      4.0323   6.5536  14.0524   C.ar      3 RES3   0.0000
    83 C42      2.9758   6.0127  13.3483   C.ar      3 RES3   0.0000
    84 C43      1.7812   6.6643  13.0801   C.ar      3 RES3   0.0000
    85 C44      1.6141   7.9496  13.5423   C.ar      3 RES3   0.0000
    86 C45      2.6221   8.5486  14.2247   C.ar      3 RES3   0.0000
    87 C46      3.8122   7.8583  14.4863   C.ar      3 RES3   0.0000
    88 B1       5.3947   5.7374  14.4906   B         3 RES3  -1.0000
    89 H30      5.8507   3.1599  15.4084   H         3 RES3   0.0000
    90 H31      6.0749   1.2424  14.1832   H         3 RES3   0.0000
    91 H32      5.8448   1.0611  11.8332   H         3 RES3   0.0000
    92 H33      5.4415   3.0409  10.5186   H         3 RES3   0.0000
    93 H34      5.1643   4.9986  11.7416   H         3 RES3   0.0000
    94 H35      3.2458   5.7125  16.3654   H         3 RES3   0.0000
    95 H36      3.1470   5.4247  18.6261   H         3 RES3   0.0000
    96 H37      5.2013   5.1535  19.8295   H         3 RES3   0.0000
    97 H38      7.3267   5.0608  18.6632   H         3 RES3   0.0000
    98 H39      7.2817   5.2379  16.4614   H         3 RES3   0.0000
    99 H40      7.4185   5.7194  12.5962   H         3 RES3   0.0000
   100 H41      9.1877   6.9258  12.0468   H         3 RES3   0.0000
   101 H42      9.7244   8.8350  13.3635   H         3 RES3   0.0000
   102 H43      8.3177   9.3400  15.2950   H         3 RES3   0.0000
   103 H44      6.5600   7.9371  15.6482   H         3 RES3   0.0000
   104 H45      3.1311   5.0456  12.9014   H         3 RES3   0.0000
   105 H46      0.9692   6.1026  12.5351   H         3 RES3   0.0000
   106 H47      0.7586   8.3882  13.3635   H         3 RES3   0.0000
   107 H48      2.6251   9.4452  14.4732   H         3 RES3   0.0000
   108 H49      4.5537   8.3425  14.9288   H         3 RES3   0.0000
   109 C47     16.6637   1.8497  19.2954   C.ar      4 RES4   0.0000
   110 C48     15.7036   1.2147  20.0976   C.ar      4 RES4   0.0000
   111 C49     15.2976  -0.0858  19.8993   C.ar      4 RES4   0.0000
   112 C50     15.8341  -0.8467  18.8943   C.ar      4 RES4   0.0000
   113 C51     16.7849  -0.2698  18.0877   C.ar      4 RES4   0.0000
   114 C52     17.1879   1.0432  18.2904   C.ar      4 RES4   0.0000
   115 C53     15.9331   4.3539  18.7199   C.ar      4 RES4   0.0000
   116 C54     14.6627   3.9181  18.3972   C.ar      4 RES4   0.0000
   117 C55     13.7061   4.7067  17.8108   C.ar      4 RES4   0.0000
   118 C56     13.9884   6.0196  17.5405   C.ar      4 RES4   0.0000
   119 C57     15.2309   6.4914  17.8239   C.ar      4 RES4   0.0000
   120 C58     16.1706   5.6903  18.4038   C.ar      4 RES4   0.0000
   121 C59     16.9071   3.7700  21.1201   C.ar      4 RES4   0.0000
   122 C60     17.5896   3.0257  22.0815   C.ar      4 RES4   0.0000
   123 C61     17.5218   3.2817  23.4287   C.ar      4 RES4   0.0000
   124 C62     16.7396   4.2972  23.9061   C.ar      4 RES4   0.0000
   125 C63     16.0281   5.0346  23.0145   C.ar      4 RES4   0.0000
   126 C64     16.1114   4.7855  21.6542   C.ar      4 RES4   0.0000
   127 C65     18.5311   3.7313  18.9400   C.ar      4 RES4   0.0000
   128 C66     19.6987   3.7631  19.6878   C.ar      4 RES4   0.0000
   129 C67     20.9645   3.9374  19.1253   C.ar      4 RES4   0.0000
   130 C68     21.1218   4.0827  17.7825   C.ar      4 RES4   0.0000
   131 C69     20.0052   4.0564  17.0107   C.ar      4 RES4   0.0000
   132 C70     18.7312   3.9125  17.5732   C.ar      4 RES4   0.0000
   133 B2      17.0162   3.4421  19.5199   B         4 RES4  -1.0000
   134 H50     15.3593   1.6547  20.7691   H         4 RES4   0.0000
   135 H51     14.7006  -0.4911  20.4290   H         4 RES4   0.0000
   136 H52     15.5207  -1.7266  18.7744   H         4 RES4   0.0000
   137 H53     17.2554  -0.8730  17.3443   H         4 RES4   0.0000
   138 H54     17.8225   1.4209  17.7236   H         4 RES4   0.0000
   139 H55     14.4217   3.0658  18.5891   H         4 RES4   0.0000
   140 H56     12.8336   4.3732  17.6342   H         4 RES4   0.0000
   141 H57     13.3497   6.5025  17.2026   H         4 RES4   0.0000
   142 H58     15.4266   7.2966  17.6582   H         4 RES4   0.0000
   143 H59     16.9982   5.9781  18.6392   H         4 RES4   0.0000
   144 H60     18.2240   2.3492  21.7763   H         4 RES4   0.0000
   145 H61     18.0389   2.8597  23.9846   H         4 RES4   0.0000
   146 H62     16.6581   4.4120  24.8326   H         4 RES4   0.0000
   147 H63     15.4489   5.6945  23.2434   H         4 RES4   0.0000
   148 H64     15.5295   5.2739  21.0154   H         4 RES4   0.0000
   149 H65     19.6137   3.6289  20.5947   H         4 RES4   0.0000
   150 H66     21.7172   3.9402  19.7467   H         4 RES4   0.0000
   151 H67     22.0378   4.2778  17.4533   H         4 RES4   0.0000
   152 H68     20.0047   4.1007  16.1256   H         4 RES4   0.0000
   153 H69     17.8564   3.8558  16.9802   H         4 RES4   0.0000
@<TRIPOS>BOND
     1     1     3    1
     2     2    13    1
     3     3    13    2
     4     4     1    1
     5     5    20    1
     6     6     1    1
     7     7    23    1
     8     8     1    1
     9     9     1    1
    10    10    30    1
    11    11     1    1
    12    12    13    1
    13    14     2    1
    14    15     3    1
    15    16     4    2
    16    17     4    1
    17    18    17    1
    18    19     6    1
    19    20    19    2
    20    21     5    1
    21    22    23    1
    22    23     8    2
    23    24     7    1
    24    25     8    1
    25    26     9    2
    26    27     9    1
    27    28    27    1
    28    29    11    1
    29    30    29    2
    30    31    10    1
    31    32     5    1
    32    33     2    1
    33    34    10    1
    34    35     7    1
    35    36    21    1
    36    37    20    1
    37    38    16    1
    38    39    14    1
    39    40    31    1
    40    41    30    1
    41    42    26    1
    42    43    24    1
    43    44    18    1
    44    45    18    1
    45    46    17    1
    46    47    17    1
    47    48    28    1
    48    49    28    1
    49    50    27    1
    50    51    27    1
    51    52    12    1
    52    53    12    1
    53    54    12    1
    54    55    22    1
    55    56    22    1
    56    57    22    1
    57     6    21    2
    58    11    31    2
    59    14    15    2
    60    15    16    1
    61    18    19    1
    62    24    25    2
    63    25    26    1
    64    28    29    1
    65    58    60    3
    66    59    60    1
    67    61    59    1
    68    62    59    1
    69    63    59    1
    70    64    65   ar
    71    65    66   ar
    72    66    67   ar
    73    67    68   ar
    74    68    69   ar
    75    69    64   ar
    76    70    71   ar
    77    71    72   ar
    78    72    73   ar
    79    73    74   ar
    80    74    75   ar
    81    75    70   ar
    82    76    77   ar
    83    77    78   ar
    84    78    79   ar
    85    79    80   ar
    86    80    81   ar
    87    81    76   ar
    88    82    83   ar
    89    83    84   ar
    90    84    85   ar
    91    85    86   ar
    92    86    87   ar
    93    87    82   ar
    94    88    64    1
    95    89    65    1
    96    90    66    1
    97    91    67    1
    98    92    68    1
    99    93    69    1
   100    94    71    1
   101    95    72    1
   102    96    73    1
   103    97    74    1
   104    98    75    1
   105    99    77    1
   106   100    78    1
   107   101    79    1
   108   102    80    1
   109   103    81    1
   110   104    83    1
   111   105    84    1
   112   106    85    1
   113   107    86    1
   114   108    87    1
   115    70    88    1
   116    76    88    1
   117    82    88    1
   118   109   110   ar
   119   110   111   ar
   120   111   112   ar
   121   112   113   ar
   122   113   114   ar
   123   114   109   ar
   124   115   116   ar
   125   116   117   ar
   126   117   118   ar
   127   118   119   ar
   128   119   120   ar
   129   120   115   ar
   130   121   122   ar
   131   122   123   ar
   132   123   124   ar
   133   124   125   ar
   134   125   126   ar
   135   126   121   ar
   136   127   128   ar
   137   128   129   ar
   138   129   130   ar
   139   130   131   ar
   140   131   132   ar
   141   132   127   ar
   142   133   109    1
   143   134   110    1
   144   135   111    1
   145   136   112    1
   146   137   113    1
   147   138   114    1
   148   139   116    1
   149   140   117    1
   150   141   118    1
   151   142   119    1
   152   143   120    1
   153   144   122    1
   154   145   123    1
   155   146   124    1
   156   147   125    1
   157   148   126    1
   158   149   128    1
   159   150   129    1
   160   151   130    1
   161   152   131    1
   162   153   132    1
   163   115   133    1
   164   121   133    1
   165   127   133    1
@<TRIPOS>SUBSTRUCTURE
     1 RES1        1 GROUP             0 ****  ****    0  
     2 RES2       58 GROUP             0 ****  ****    0  
     3 RES3       64 GROUP             0 ****  ****    0  
     4 RES4      109 GROUP             0 ****  ****    0  
@<TRIPOS>CRYSIN
   20.5920   13.8350   22.4030   90.0000  103.3210   90.0000    14     1
