@<TRIPOS>MOLECULE
LUGXOB
    75    78     5     0     0
SMALL
USER_CHARGES
****
Generated from the CSD

@<TRIPOS>ATOM
     1 Fe1      7.4235   4.7992   5.0446   Fe        1 RES1   2.0000
     2 N1       5.9303   1.5661   2.5651   N.pl3     1 RES1   0.0000
     3 N2       6.6183   3.1805   3.8206   N.2       1 RES1   0.0000
     4 N3       6.4575   3.4767   6.4991   N.2       1 RES1   0.0000
     5 N4       8.2426   7.8864   7.8835   N.pl3     1 RES1   0.0000
     6 N5       7.8325   6.1171   6.6796   N.2       1 RES1   0.0000
     7 N6       4.1044   7.3735   3.9173   N.pl3     1 RES1   0.0000
     8 N7       5.7767   6.0589   4.4032   N.2       1 RES1   0.0000
     9 N8       8.3179   6.0513   3.4842   N.2       1 RES1   0.0000
    10 N9      10.9688   2.5107   5.6561   N.pl3     1 RES1   0.0000
    11 N10      9.3490   3.8968   5.2063   N.2       1 RES1   0.0000
    12 C1       6.8836   3.5038   1.3715   C.3       1 RES1   0.0000
    13 C2       6.5052   2.7721   2.5638   C.2       1 RES1   0.0000
    14 C3       5.6205   1.1925   3.8141   C.2       1 RES1   0.0000
    15 C4       6.0566   2.1933   4.6339   C.2       1 RES1   0.0000
    16 C5       5.9911   2.3926   6.0041   C.2       1 RES1   0.0000
    17 C6       6.3395   3.7071   7.9106   C.3       1 RES1   0.0000
    18 C7       7.5865   4.3478   8.4648   C.3       1 RES1   0.0000
    19 C8       7.8267   5.7551   8.0214   C.2       1 RES1   0.0000
    20 C9       8.0853   6.8585   8.7368   C.2       1 RES1   0.0000
    21 C10      8.0939   7.4006   6.6590   C.2       1 RES1   0.0000
    22 C11      3.6650   5.6022   5.6097   C.3       1 RES1   0.0000
    23 C12      4.5222   6.3223   4.6700   C.2       1 RES1   0.0000
    24 C13      5.1332   7.7664   3.1335   C.2       1 RES1   0.0000
    25 C14      6.1761   6.9534   3.4274   C.2       1 RES1   0.0000
    26 C15      7.5248   6.9050   2.9776   C.2       1 RES1   0.0000
    27 C16      9.7257   6.0339   3.0768   C.3       1 RES1   0.0000
    28 C17     10.6151   5.8461   4.3001   C.3       1 RES1   0.0000
    29 C18     10.5462   4.4775   4.8698   C.2       1 RES1   0.0000
    30 C19     11.5443   3.5928   5.1470   C.2       1 RES1   0.0000
    31 C20      9.6597   2.6888   5.6871   C.2       1 RES1   0.0000
    32 H1       6.1603   4.0497   1.0853   H         1 RES1   0.0000
    33 H2       7.6356   4.0497   1.5648   H         1 RES1   0.0000
    34 H3       7.1082   2.8882   0.6832   H         1 RES1   0.0000
    35 H4       5.7609   1.0473   1.7878   H         1 RES1   0.0000
    36 H5       5.1856   0.3949   4.0887   H         1 RES1   0.0000
    37 H6       5.6054   1.7287   6.5623   H         1 RES1   0.0000
    38 H7       6.1926   2.8824   8.3553   H         1 RES1   0.0000
    39 H8       5.6055   4.2897   8.0704   H         1 RES1   0.0000
    40 H9       8.3294   3.8213   8.1929   H         1 RES1   0.0000
    41 H10      7.5279   4.3459   9.4135   H         1 RES1   0.0000
    42 H11      8.4305   8.7885   8.1129   H         1 RES1   0.0000
    43 H12      8.1762   7.9097   5.8611   H         1 RES1   0.0000
    44 H13      8.1423   6.9031   9.6842   H         1 RES1   0.0000
    45 H14      3.2436   4.8782   5.1624   H         1 RES1   0.0000
    46 H15      4.1966   5.2673   6.3225   H         1 RES1   0.0000
    47 H16      3.0020   6.1868   5.9577   H         1 RES1   0.0000
    48 H17      3.2387   7.7645   3.9379   H         1 RES1   0.0000
    49 H18      5.1245   8.4730   2.5007   H         1 RES1   0.0000
    50 H19      7.8346   7.5051   2.3086   H         1 RES1   0.0000
    51 H20      9.9387   6.8585   2.6566   H         1 RES1   0.0000
    52 H21      9.8669   5.3215   2.4646   H         1 RES1   0.0000
    53 H22     10.3520   6.4675   4.9691   H         1 RES1   0.0000
    54 H23     11.5125   6.0223   4.0410   H         1 RES1   0.0000
    55 H24     11.4234   1.7287   5.9500   H         1 RES1   0.0000
    56 H25     12.4729   3.7303   5.0039   H         1 RES1   0.0000
    57 H26      9.0264   2.0539   6.0003   H         1 RES1   0.0000
    58 Cl1      1.2933   8.4474   4.7054   Cl        2 RES2  -1.0000
    59 Cl2      2.0831   0.8634   5.9880   Cl        3 RES3   0.0000
    60 O1       0.7795   0.5149   6.4012   O.3       3 RES3  -1.0000
    61 O2       2.9333   0.4781   6.9954   O.2       3 RES3   0.0000
    62 O3       2.2342   2.2455   5.8611   O.2       3 RES3   0.0000
    63 O4       2.4554   0.1684   4.9304   O.2       3 RES3   0.0000
    64 O5       8.7689   0.0039   1.9283   O.3       4 RES4   0.0000
    65 C21      9.5718   0.8769   2.5445   C.3       4 RES4   0.0000
    66 C22     10.6474   1.2312   1.8690   C.3       4 RES4   0.0000
    67 C23     11.6374   1.3647   1.4308   C.3       4 RES4   0.0000
    68 H27      9.0874   1.6667   2.7559   H         4 RES4   0.0000
    69 H28      9.8884   0.4762   3.3449   H         4 RES4   0.0000
    70 H29     10.4533   0.5691   1.2129   H         4 RES4   0.0000
    71 H30     10.2965   2.0674   1.5816   H         4 RES4   0.0000
    72 H31     11.8442   2.2862   1.5468   H         4 RES4   0.0000
    73 H32     11.7236   1.1363   0.5104   H         4 RES4   0.0000
    74 H33     12.2369   0.8382   1.9438   H         4 RES4   0.0000
    75 O6      11.0005   8.9415   6.0080   O.3       5 RES5   0.0000
@<TRIPOS>BOND
     1     1     3    1
     2     2    13    1
     3     3    13    2
     4     4     1    1
     5     5    20    1
     6     6     1    1
     7     7    23    1
     8     8     1    1
     9     9     1    1
    10    10    30    1
    11    11     1    1
    12    12    13    1
    13    14     2    1
    14    15     3    1
    15    16     4    2
    16    17     4    1
    17    18    17    1
    18    19     6    1
    19    20    19    2
    20    21     5    1
    21    22    23    1
    22    23     8    2
    23    24     7    1
    24    25     8    1
    25    26     9    2
    26    27     9    1
    27    28    27    1
    28    29    11    1
    29    30    29    2
    30    31    10    1
    31    32    12    1
    32    33    12    1
    33    34    12    1
    34    35     2    1
    35    36    14    1
    36    37    16    1
    37    38    17    1
    38    39    17    1
    39    40    18    1
    40    41    18    1
    41    42     5    1
    42    43    21    1
    43    44    20    1
    44    45    22    1
    45    46    22    1
    46    47    22    1
    47    48     7    1
    48    49    24    1
    49    50    26    1
    50    51    27    1
    51    52    27    1
    52    53    28    1
    53    54    28    1
    54    55    10    1
    55    56    30    1
    56    57    31    1
    57     6    21    2
    58    11    31    2
    59    14    15    2
    60    15    16    1
    61    18    19    1
    62    24    25    2
    63    25    26    1
    64    28    29    1
    65    59    60    1
    66    61    59    2
    67    62    59    2
    68    63    59    2
    69    64    65    1
    70    65    66    1
    71    66    67    1
    72    67    72    1
    73    68    65    1
    74    69    65    1
    75    70    66    1
    76    71    66    1
    77    73    67    1
    78    74    67    1
@<TRIPOS>SUBSTRUCTURE
     1 RES1        1 GROUP             0 ****  ****    0  
     2 RES2       58 GROUP             0 ****  ****    0  
     3 RES3       59 GROUP             0 ****  ****    0  
     4 RES4       64 GROUP             0 ****  ****    0  
     5 RES5       75 GROUP             0 ****  ****    0  
@<TRIPOS>CRYSIN
   12.2820   19.3580   12.9710   90.0000   96.4080   90.0000   231     1
