@<TRIPOS>MOLECULE
LUJNOU
    79    80     4     0     0
SMALL
USER_CHARGES
****
Generated from the CSD

@<TRIPOS>ATOM
     1 Fe1      9.1362   6.6385  10.5899   Fe        1 RES1   2.0000
     2 N1      11.0537   6.6660  11.2562   N.3       1 RES1   0.0000
     3 H1      11.5463   7.0607  10.5725   H         1 RES1   0.0000
     4 C1      11.4070   7.4358  12.4950   C.3       1 RES1   0.0000
     5 H2      11.2588   8.3995  12.3262   H         1 RES1   0.0000
     6 H3      12.3696   7.3088  12.6876   H         1 RES1   0.0000
     7 C2      10.6019   7.0208  13.7181   C.3       1 RES1   0.0000
     8 H4      10.7576   6.0590  13.8913   H         1 RES1   0.0000
     9 H5      10.9318   7.5245  14.5032   H         1 RES1   0.0000
    10 C3       9.1066   7.2581  13.5767   C.3       1 RES1   0.0000
    11 H6       8.6652   7.0757  14.4442   H         1 RES1   0.0000
    12 H7       8.9486   8.2091  13.3499   H         1 RES1   0.0000
    13 N2       8.4920   6.3933  12.5215   N.3       1 RES1   0.0000
    14 H8       8.6464   5.5072  12.7596   H         1 RES1   0.0000
    15 C4       7.0160   6.6049  12.5058   C.3       1 RES1   0.0000
    16 H9       6.8127   7.5730  12.4587   H         1 RES1   0.0000
    17 H10      6.6133   6.2413  13.3341   H         1 RES1   0.0000
    18 C5       6.4454   5.8994  11.3007   C.3       1 RES1   0.0000
    19 H11      6.5475   4.9199  11.4004   H         1 RES1   0.0000
    20 H12      5.4816   6.1060  11.2118   H         1 RES1   0.0000
    21 N3       7.1826   6.3691  10.0922   N.3       1 RES1   0.0000
    22 H13      6.8532   7.2210   9.9174   H         1 RES1   0.0000
    23 C6       6.8165   5.5478   8.8918   C.3       1 RES1   0.0000
    24 H14      7.1374   6.0099   8.0773   H         1 RES1   0.0000
    25 H15      5.8307   5.4859   8.8347   H         1 RES1   0.0000
    26 C7       7.4002   4.1380   8.9245   C.3       1 RES1   0.0000
    27 H16      7.0855   3.6798   9.7432   H         1 RES1   0.0000
    28 H17      7.0595   3.6310   8.1450   H         1 RES1   0.0000
    29 C8       8.9202   4.1164   8.8996   C.3       1 RES1   0.0000
    30 H18      9.2306   3.1840   8.7785   H         1 RES1   0.0000
    31 H19      9.2412   4.6466   8.1277   H         1 RES1   0.0000
    32 N4       9.5117   4.6722  10.1574   N.3       1 RES1   0.0000
    33 H20      9.1829   4.1655  10.8648   H         1 RES1   0.0000
    34 C9      10.9935   4.5083  10.1456   C.3       1 RES1   0.0000
    35 H21     11.3713   4.8737   9.3069   H         1 RES1   0.0000
    36 H22     11.2318   3.5486  10.2054   H         1 RES1   0.0000
    37 C10     11.5459   5.2584  11.3361   C.3       1 RES1   0.0000
    38 H23     11.2381   4.8371  12.1779   H         1 RES1   0.0000
    39 H24     12.5358   5.2415  11.3198   H         1 RES1   0.0000
    40 S1       8.8831   8.9119  10.7021   S.2       1 RES1   0.0000
    41 S2       9.6977   7.3276   8.4785   S.2       1 RES1   0.0000
    42 C11      9.2745   8.9150   9.0196   C.3       1 RES1   0.0000
    43 N5       9.2207   9.9765   8.2419   N.pl3     1 RES1   0.0000
    44 C12      8.7489  11.2734   8.7683   C.3       1 RES1   0.0000
    45 H25      8.0088  11.1168   9.4063   H         1 RES1   0.0000
    46 H26      8.3962  11.8193   8.0212   H         1 RES1   0.0000
    47 C13      9.8551  12.0364   9.4655   C.3       1 RES1   0.0000
    48 H27     10.2187  11.4916  10.1939   H         1 RES1   0.0000
    49 H28      9.4963  12.8728   9.8296   H         1 RES1   0.0000
    50 H29     10.5674  12.2393   8.8232   H         1 RES1   0.0000
    51 C14      9.5601   9.8900   6.8076   C.3       1 RES1   0.0000
    52 H30     10.2902   9.2336   6.6807   H         1 RES1   0.0000
    53 H31      9.8825  10.7717   6.4921   H         1 RES1   0.0000
    54 C15      8.3491   9.4672   5.9839   C.3       1 RES1   0.0000
    55 H32      8.0446   8.5844   6.2805   H         1 RES1   0.0000
    56 H33      8.5967   9.4270   5.0365   H         1 RES1   0.0000
    57 H34      7.6280  10.1189   6.1048   H         1 RES1   0.0000
    58 S3      13.7419   8.8245   8.9882   S.o2      2 RES2   0.0000
    59 O1      15.1600   8.7600   8.6871   O.3       2 RES2  -1.0000
    60 O2      12.9351   9.5236   8.0185   O.2       2 RES2   0.0000
    61 O3      13.1979   7.5707   9.4817   O.2       2 RES2   0.0000
    62 C16     13.6786   9.9013  10.4640   C.3       2 RES2   0.0000
    63 F1      14.3330   9.3544  11.4983   F         2 RES2   0.0000
    64 F2      12.4225  10.1217  10.8491   F         2 RES2   0.0000
    65 F3      14.2432  11.0941  10.2211   F         2 RES2   0.0000
    66 S4       8.7583   2.6528  13.4124   S.o2      3 RES3   0.0000
    67 O4       8.2160   2.7869  12.0717   O.3       3 RES3  -1.0000
    68 O5       9.4789   3.8360  13.8557   O.2       3 RES3   0.0000
    69 O6       7.8737   2.0669  14.3840   O.2       3 RES3   0.0000
    70 C17     10.0699   1.3976  13.2219   C.3       3 RES3   0.0000
    71 F4      10.9107   1.7315  12.2417   F         3 RES3   0.0000
    72 F5      10.7742   1.2757  14.3497   F         3 RES3   0.0000
    73 F6       9.5481   0.2069  12.9230   F         3 RES3   0.0000
    74 N6       4.7186   2.8514  11.8430   N.1       4 RES4   0.0000
    75 C18      5.0585   1.8376  12.2341   C.1       4 RES4   0.0000
    76 C19      5.5051   0.5396  12.7383   C.3       4 RES4   0.0000
    77 H35      5.9474   0.0434  12.0181   H         4 RES4   0.0000
    78 H36      4.7320   0.0305  13.0591   H         4 RES4   0.0000
    79 H37      6.1358   0.6748  13.4752   H         4 RES4   0.0000
@<TRIPOS>BOND
     1     1     2    1
     2     2     3    1
     3     4     2    1
     4     5     4    1
     5     6     4    1
     6     7     4    1
     7     8     7    1
     8     9     7    1
     9    10     7    1
    10    11    10    1
    11    12    10    1
    12    13     1    1
    13    14    13    1
    14    15    13    1
    15    16    15    1
    16    17    15    1
    17    18    15    1
    18    19    18    1
    19    20    18    1
    20    21     1    1
    21    22    21    1
    22    23    21    1
    23    24    23    1
    24    25    23    1
    25    26    23    1
    26    27    26    1
    27    28    26    1
    28    29    26    1
    29    30    29    1
    30    31    29    1
    31    32     1    1
    32    33    32    1
    33    34    32    1
    34    35    34    1
    35    36    34    1
    36    37     2    1
    37    38    37    1
    38    39    37    1
    39    40     1    1
    40    41     1    1
    41    42    40   un
    42    43    42    1
    43    44    43    1
    44    45    44    1
    45    46    44    1
    46    47    44    1
    47    48    47    1
    48    49    47    1
    49    50    47    1
    50    51    43    1
    51    52    51    1
    52    53    51    1
    53    54    51    1
    54    55    54    1
    55    56    54    1
    56    57    54    1
    57    10    13    1
    58    18    21    1
    59    29    32    1
    60    34    37    1
    61    41    42   un
    62    58    59    1
    63    60    58    2
    64    61    58    2
    65    62    58    1
    66    63    62    1
    67    64    62    1
    68    65    62    1
    69    66    67    1
    70    68    66    2
    71    69    66    2
    72    70    66    1
    73    71    70    1
    74    72    70    1
    75    73    70    1
    76    74    75    3
    77    75    76    1
    78    76    77    1
    79    78    76    1
    80    79    76    1
@<TRIPOS>SUBSTRUCTURE
     1 RES1        1 GROUP             0 ****  ****    0  
     2 RES2       58 GROUP             0 ****  ****    0  
     3 RES3       66 GROUP             0 ****  ****    0  
     4 RES4       74 GROUP             0 ****  ****    0  
@<TRIPOS>CRYSIN
    9.1969   11.6996   14.5177   89.8320   82.6750   83.2050     2     1
