@<TRIPOS>MOLECULE
LUMQUI
    99   106     1     0     0
SMALL
NO_CHARGES
****
Generated from the CSD

@<TRIPOS>ATOM
     1 Fe1      6.4255   6.4255   0.0000   Fe        1 RES1   0.0000
     2 P1       7.0602   8.2218   1.7773   P.3       1 RES1   0.0000
     3 P2       4.6374   6.0335   1.8231   P.3       1 RES1   0.0000
     4 Cl1      7.7843   4.9210   1.2399   Cl        1 RES1   0.0000
     5 C1       6.2031   7.8189   3.3501   C.ar      1 RES1   0.0000
     6 C2       5.1901   6.8479   3.3910   C.ar      1 RES1   0.0000
     7 C3       4.6051   6.5460   4.6262   C.ar      1 RES1   0.0000
     8 H1       3.9241   5.9149   4.6693   H         1 RES1   0.0000
     9 C4       6.5880   8.4592   4.5417   C.ar      1 RES1   0.0000
    10 H2       7.2435   9.1181   4.5143   H         1 RES1   0.0000
    11 C5       6.0107   8.1296   5.7493   C.ar      1 RES1   0.0000
    12 H3       6.2867   8.5514   6.5307   H         1 RES1   0.0000
    13 C6       6.9496  10.0971   1.7127   C.3       1 RES1   0.0000
    14 H4       6.6990  10.4039   2.6091   H         1 RES1   0.0000
    15 C7       2.9285   6.7483   1.5507   C.3       1 RES1   0.0000
    16 H5       2.6965   6.5669   0.6158   H         1 RES1   0.0000
    17 C8       2.4540   4.4613   2.2784   C.3       1 RES1   0.0000
    18 H6       2.1921   4.1114   1.4124   H         1 RES1   0.0000
    19 H7       2.0311   3.9204   2.9632   H         1 RES1   0.0000
    20 C9       8.8982   8.2303   2.1880   C.3       1 RES1   0.0000
    21 H8       9.3547   7.9144   1.3806   H         1 RES1   0.0000
    22 C10      4.5940   3.1685   1.7462   C.3       1 RES1   0.0000
    23 H9       4.4155   3.2071   0.8039   H         1 RES1   0.0000
    24 H10      4.2099   2.3688   2.1125   H         1 RES1   0.0000
    25 H11      5.5430   3.1638   1.8923   H         1 RES1   0.0000
    26 C11      5.0297   7.1774   5.7902   C.ar      1 RES1   0.0000
    27 H12      4.6421   6.9501   6.6047   H         1 RES1   0.0000
    28 C12      3.9835   4.3817   2.4272   C.3       1 RES1   0.0000
    29 H13      4.1846   4.3155   3.3841   H         1 RES1   0.0000
    30 C13      2.7836   8.2458   1.7471   C.3       1 RES1   0.0000
    31 H14      3.0341   8.4756   2.6449   H         1 RES1   0.0000
    32 H15      1.8718   8.5017   1.5932   H         1 RES1   0.0000
    33 H16      3.3548   8.7058   1.1277   H         1 RES1   0.0000
    34 C14      1.9918   5.8890   2.4060   C.3       1 RES1   0.0000
    35 H17      2.0280   6.1726   3.3329   H         1 RES1   0.0000
    36 H18      1.0771   5.9754   2.0933   H         1 RES1   0.0000
    37 C15      8.3995  10.5405   1.4689   C.3       1 RES1   0.0000
    38 H19      8.6344  10.4144   0.5363   H         1 RES1   0.0000
    39 H20      8.5019  11.4800   1.6868   H         1 RES1   0.0000
    40 C16      9.2975   9.7023   2.3491   C.3       1 RES1   0.0000
    41 H21      9.2005   9.9724   3.2754   H         1 RES1   0.0000
    42 H22     10.2240   9.8242   2.0900   H         1 RES1   0.0000
    43 C17      9.3849   7.3312   3.3215   C.3       1 RES1   0.0000
    44 H23      9.0591   7.6687   4.1594   H         1 RES1   0.0000
    45 H24     10.3445   7.3213   3.3319   H         1 RES1   0.0000
    46 H25      9.0566   6.4395   3.1863   H         1 RES1   0.0000
    47 C18      5.9377  10.6710   0.7446   C.3       1 RES1   0.0000
    48 H26      6.0951  10.3122  -0.1319   H         1 RES1   0.0000
    49 H27      6.0253  11.6264   0.7199   H         1 RES1   0.0000
    50 H28      5.0522  10.4376   1.0319   H         1 RES1   0.0000
    51 P1F      8.2218   7.0602  -1.7773   P.3       1 RES1   0.0000
    52 P2F      6.0335   4.6374  -1.8231   P.3       1 RES1   0.0000
    53 Cl1F     4.9210   7.7843  -1.2399   Cl        1 RES1   0.0000
    54 C1F      7.8189   6.2031  -3.3501   C.ar      1 RES1   0.0000
    55 C2F      6.8479   5.1901  -3.3910   C.ar      1 RES1   0.0000
    56 C3F      6.5460   4.6051  -4.6262   C.ar      1 RES1   0.0000
    57 H1F      5.9149   3.9241  -4.6693   H         1 RES1   0.0000
    58 C4F      8.4592   6.5880  -4.5417   C.ar      1 RES1   0.0000
    59 H2F      9.1181   7.2435  -4.5143   H         1 RES1   0.0000
    60 C5F      8.1296   6.0107  -5.7493   C.ar      1 RES1   0.0000
    61 H3F      8.5514   6.2867  -6.5307   H         1 RES1   0.0000
    62 C6F     10.0971   6.9496  -1.7127   C.3       1 RES1   0.0000
    63 H4F     10.4039   6.6990  -2.6091   H         1 RES1   0.0000
    64 C7F      6.7483   2.9285  -1.5507   C.3       1 RES1   0.0000
    65 H5F      6.5669   2.6965  -0.6158   H         1 RES1   0.0000
    66 C8F      4.4613   2.4540  -2.2784   C.3       1 RES1   0.0000
    67 H6F      4.1114   2.1921  -1.4124   H         1 RES1   0.0000
    68 H7F      3.9204   2.0311  -2.9632   H         1 RES1   0.0000
    69 C9F      8.2303   8.8982  -2.1880   C.3       1 RES1   0.0000
    70 H8F      7.9144   9.3547  -1.3806   H         1 RES1   0.0000
    71 C10F     3.1685   4.5940  -1.7462   C.3       1 RES1   0.0000
    72 H9F      3.2071   4.4155  -0.8039   H         1 RES1   0.0000
    73 H10F     2.3688   4.2099  -2.1125   H         1 RES1   0.0000
    74 H11F     3.1638   5.5430  -1.8923   H         1 RES1   0.0000
    75 C11F     7.1774   5.0297  -5.7902   C.ar      1 RES1   0.0000
    76 H12F     6.9501   4.6421  -6.6047   H         1 RES1   0.0000
    77 C12F     4.3817   3.9835  -2.4272   C.3       1 RES1   0.0000
    78 H13F     4.3155   4.1846  -3.3841   H         1 RES1   0.0000
    79 C13F     8.2458   2.7836  -1.7471   C.3       1 RES1   0.0000
    80 H14F     8.4756   3.0341  -2.6449   H         1 RES1   0.0000
    81 H15F     8.5017   1.8718  -1.5932   H         1 RES1   0.0000
    82 H16F     8.7058   3.3548  -1.1277   H         1 RES1   0.0000
    83 C14F     5.8890   1.9918  -2.4060   C.3       1 RES1   0.0000
    84 H17F     6.1726   2.0280  -3.3329   H         1 RES1   0.0000
    85 H18F     5.9754   1.0771  -2.0933   H         1 RES1   0.0000
    86 C15F    10.5405   8.3995  -1.4689   C.3       1 RES1   0.0000
    87 H19F    10.4144   8.6344  -0.5363   H         1 RES1   0.0000
    88 H20F    11.4800   8.5019  -1.6868   H         1 RES1   0.0000
    89 C16F     9.7023   9.2975  -2.3491   C.3       1 RES1   0.0000
    90 H21F     9.9724   9.2005  -3.2754   H         1 RES1   0.0000
    91 H22F     9.8242  10.2240  -2.0900   H         1 RES1   0.0000
    92 C17F     7.3312   9.3849  -3.3215   C.3       1 RES1   0.0000
    93 H23F     7.6687   9.0591  -4.1594   H         1 RES1   0.0000
    94 H24F     7.3213  10.3445  -3.3319   H         1 RES1   0.0000
    95 H25F     6.4395   9.0566  -3.1863   H         1 RES1   0.0000
    96 C18F    10.6710   5.9377  -0.7446   C.3       1 RES1   0.0000
    97 H26F    10.3122   6.0951   0.1319   H         1 RES1   0.0000
    98 H27F    11.6264   6.0253  -0.7199   H         1 RES1   0.0000
    99 H28F    10.4376   5.0522  -1.0319   H         1 RES1   0.0000
@<TRIPOS>BOND
     1     1     2    1
     2     2     5    1
     3     3     1    1
     4     4     1    1
     5     5     6   ar
     6     6     3    1
     7     7     6   ar
     8     8     7    1
     9     9     5   ar
    10    10     9    1
    11    11     9   ar
    12    12    11    1
    13    13     2    1
    14    14    13    1
    15    15     3    1
    16    16    15    1
    17    17    18    1
    18    19    17    1
    19    20     2    1
    20    21    20    1
    21    22    23    1
    22    24    22    1
    23    25    22    1
    24    26     7   ar
    25    27    26    1
    26    28     3    1
    27    29    28    1
    28    30    15    1
    29    31    30    1
    30    32    30    1
    31    33    30    1
    32    34    15    1
    33    35    34    1
    34    36    34    1
    35    37    13    1
    36    38    37    1
    37    39    37    1
    38    40    20    1
    39    41    40    1
    40    42    40    1
    41    43    20    1
    42    44    43    1
    43    45    43    1
    44    46    43    1
    45    47    13    1
    46    48    47    1
    47    49    47    1
    48    50    47    1
    49    51     1    1
    50    52     1    1
    51    53     1    1
    52    54    51    1
    53    55    52    1
    54    56    55   ar
    55    57    56    1
    56    58    54   ar
    57    59    58    1
    58    60    58   ar
    59    61    60    1
    60    62    51    1
    61    63    62    1
    62    64    52    1
    63    65    64    1
    64    66    67    1
    65    68    66    1
    66    69    51    1
    67    70    69    1
    68    71    72    1
    69    73    71    1
    70    74    71    1
    71    75    56   ar
    72    76    75    1
    73    77    52    1
    74    78    77    1
    75    79    64    1
    76    80    79    1
    77    81    79    1
    78    82    79    1
    79    83    64    1
    80    84    83    1
    81    85    83    1
    82    86    62    1
    83    87    86    1
    84    88    86    1
    85    89    69    1
    86    90    89    1
    87    91    89    1
    88    92    69    1
    89    93    92    1
    90    94    92    1
    91    95    92    1
    92    96    62    1
    93    97    96    1
    94    98    96    1
    95    99    96    1
    96    11    26   ar
    97    17    28    1
    98    17    34    1
    99    22    28    1
   100    37    40    1
   101    54    55   ar
   102    60    75   ar
   103    66    77    1
   104    66    83    1
   105    71    77    1
   106    86    89    1
@<TRIPOS>SUBSTRUCTURE
     1 RES1        1 GROUP             0 ****  ****    0  
@<TRIPOS>CRYSIN
   11.0592   11.0592   30.7432   90.0000   90.0000   90.0000    92     1
