@<TRIPOS>MOLECULE
LUMSER
    94    97     6     0     0
SMALL
USER_CHARGES
****
Generated from the CSD

@<TRIPOS>ATOM
     1 Fe1      1.5612   7.2939  10.6214   Fe        1 RES1   3.0000
     2 O1       3.3442   7.8170  11.3547   O.3       1 RES1   0.0000
     3 N1       4.4245   7.1574  10.8742   N.ar      1 RES1   0.0000
     4 C1       5.1220   7.7518   9.8812   C.ar      1 RES1   0.0000
     5 H1       4.8354   8.5764   9.5040   H         1 RES1   0.0000
     6 C2       6.2763   7.1114   9.4298   C.ar      1 RES1   0.0000
     7 H2       6.7803   7.4943   8.7206   H         1 RES1   0.0000
     8 C3       6.6869   5.9455   9.9947   C.ar      1 RES1   0.0000
     9 H3       7.4940   5.5339   9.7108   H         1 RES1   0.0000
    10 C4       5.9239   5.3643  10.9820   C.ar      1 RES1   0.0000
    11 H4       6.1961   4.5457  11.3780   H         1 RES1   0.0000
    12 C5       4.7576   5.9852  11.3926   C.ar      1 RES1   0.0000
    13 O2       2.1538   5.4148  10.9587   O.3       1 RES1   0.0000
    14 N2       2.6195   5.1500  12.1643   N.ar      1 RES1   0.0000
    15 C6       1.8102   4.5611  13.0802   C.ar      1 RES1   0.0000
    16 H5       0.9064   4.3715  12.8589   H         1 RES1   0.0000
    17 C7       2.2871   4.2388  14.3208   C.ar      1 RES1   0.0000
    18 H6       1.7130   3.8331  14.9601   H         1 RES1   0.0000
    19 C8       3.6124   4.5035  14.6470   C.ar      1 RES1   0.0000
    20 H7       3.9499   4.2973  15.5105   H         1 RES1   0.0000
    21 C9       4.4196   5.0651  13.6976   C.ar      1 RES1   0.0000
    22 H8       5.3353   5.2253  13.8942   H         1 RES1   0.0000
    23 C10      3.9221   5.4033  12.4570   C.ar      1 RES1   0.0000
    24 O3       0.7594   7.4114  12.4614   O.3       1 RES1   0.0000
    25 N3      -0.4651   7.9695  12.5473   N.ar      1 RES1   0.0000
    26 C11     -1.5397   7.1599  12.6157   C.ar      1 RES1   0.0000
    27 H9      -1.4287   6.2178  12.5924   H         1 RES1   0.0000
    28 C12     -2.7786   7.6965  12.7162   C.ar      1 RES1   0.0000
    29 H10     -3.5370   7.1267  12.7861   H         1 RES1   0.0000
    30 C13     -2.9464   9.0765  12.7206   C.ar      1 RES1   0.0000
    31 H11     -3.8150   9.4582  12.7584   H         1 RES1   0.0000
    32 C14     -1.8208   9.8872  12.6682   C.ar      1 RES1   0.0000
    33 H12     -1.9088  10.8326  12.6987   H         1 RES1   0.0000
    34 C15     -0.5723   9.3043  12.5706   C.ar      1 RES1   0.0000
    35 O4       1.0426   9.2200  10.4024   O.3       1 RES1   0.0000
    36 N4       1.4279  10.0348  11.4188   N.ar      1 RES1   0.0000
    37 C16      2.5261  10.7931  11.2470   C.ar      1 RES1   0.0000
    38 H13      3.0147  10.7533  10.4330   H         1 RES1   0.0000
    39 C17      2.9337  11.6331  12.2706   C.ar      1 RES1   0.0000
    40 H14      3.6980  12.1858  12.1571   H         1 RES1   0.0000
    41 C18      2.2329  11.6626  13.4501   C.ar      1 RES1   0.0000
    42 H15      2.5366  12.2002  14.1723   H         1 RES1   0.0000
    43 C19      1.0734  10.9038  13.5826   C.ar      1 RES1   0.0000
    44 H16      0.5622  10.9431  14.3820   H         1 RES1   0.0000
    45 C20      0.6759  10.0923  12.5356   C.ar      1 RES1   0.0000
    46 O5      -0.1599   6.6953   9.7851   O.3       1 RES1   0.0000
    47 N5      -0.0845   5.5987   8.9886   N.ar      1 RES1   0.0000
    48 C21     -0.4897   4.4402   9.4967   C.ar      1 RES1   0.0000
    49 H17     -0.7825   4.3845  10.3995   H         1 RES1   0.0000
    50 C22     -0.4797   3.3085   8.6871   C.ar      1 RES1   0.0000
    51 H18     -0.7524   2.4683   9.0352   H         1 RES1   0.0000
    52 C23     -0.0813   3.4130   7.4043   C.ar      1 RES1   0.0000
    53 H19     -0.0647   2.6391   6.8539   H         1 RES1   0.0000
    54 C24      0.3030   4.6374   6.8772   C.ar      1 RES1   0.0000
    55 H20      0.5584   4.7123   5.9657   H         1 RES1   0.0000
    56 C25      0.3077   5.7470   7.6999   C.ar      1 RES1   0.0000
    57 O6       2.3139   7.2213   8.7891   O.3       1 RES1   0.0000
    58 N6       1.6074   7.7986   7.8120   N.ar      1 RES1   0.0000
    59 C26      1.9088   9.0632   7.4291   C.ar      1 RES1   0.0000
    60 H21      2.5957   9.5450   7.8746   H         1 RES1   0.0000
    61 C27      1.2284   9.6385   6.4069   C.ar      1 RES1   0.0000
    62 H22      1.4261  10.5326   6.1521   H         1 RES1   0.0000
    63 C28      0.2472   8.9352   5.7312   C.ar      1 RES1   0.0000
    64 H23     -0.2155   9.3253   5.0003   H         1 RES1   0.0000
    65 C29     -0.0443   7.6550   6.1448   C.ar      1 RES1   0.0000
    66 H24     -0.7167   7.1548   5.6963   H         1 RES1   0.0000
    67 C30      0.6273   7.0959   7.1975   C.ar      1 RES1   0.0000
    68 Cl1      8.9820   3.6294  12.7883   Cl        2 RES2   0.0000
    69 O7       8.7350   3.6700  11.3941   O.3       2 RES2  -1.0000
    70 O8      10.3427   4.0233  12.9987   O.2       2 RES2   0.0000
    71 O9       8.7940   2.3215  13.3045   O.2       2 RES2   0.0000
    72 O10      8.1036   4.5462  13.4734   O.2       2 RES2   0.0000
    73 Cl2      4.3743   1.5866  11.6707   Cl        3 RES3   0.0000
    74 O11      3.5892   1.0110  12.7133   O.3       3 RES3  -1.0000
    75 O12      3.6345   2.5262  10.9135   O.2       3 RES3   0.0000
    76 O13      4.8436   0.5339  10.8247   O.2       3 RES3   0.0000
    77 O14      5.4917   2.2448  12.2779   O.2       3 RES3   0.0000
    78 Cl3     10.4771  -0.5698   8.8373   Cl        4 RES4   0.0000
    79 O15     11.6028  -1.1974   9.2230   O.3       4 RES4  -1.0000
    80 O16     10.7785   0.2527   7.7290   O.2       4 RES4   0.0000
    81 O17      9.9938   0.2496   9.8899   O.2       4 RES4   0.0000
    82 O18      9.4561  -1.4744   8.4483   O.2       4 RES4   0.0000
    83 N7      11.3154  -0.9929  13.1501   N.1       5 RES5   0.0000
    84 C31     11.6716   0.0048  12.7512   C.1       5 RES5   0.0000
    85 C32     12.0624   1.2550  12.1702   C.3       5 RES5   0.0000
    86 H25     12.2303   1.9076  12.8822   H         5 RES5   0.0000
    87 H26     11.3465   1.5825  11.5877   H         5 RES5   0.0000
    88 H27     12.8800   1.1281  11.6431   H         5 RES5   0.0000
    89 N8       6.5077   0.7237   7.1510   N.1       6 RES6   0.0000
    90 C33      6.8723   1.3209   8.0304   C.1       6 RES6   0.0000
    91 C34      7.3166   2.1598   9.1167   C.3       6 RES6   0.0000
    92 H28      6.5561   2.6680   9.4691   H         6 RES6   0.0000
    93 H29      8.0019   2.7799   8.7920   H         6 RES6   0.0000
    94 H30      7.6925   1.6014   9.8287   H         6 RES6   0.0000
@<TRIPOS>BOND
     1     1     2    1
     2     2     3    1
     3     3     4   ar
     4     4     5    1
     5     6     4   ar
     6     7     6    1
     7     8     6   ar
     8     9     8    1
     9    10     8   ar
    10    11    10    1
    11    12     3   ar
    12    13     1    1
    13    14    13    1
    14    15    14   ar
    15    16    15    1
    16    17    15   ar
    17    18    17    1
    18    19    17   ar
    19    20    19    1
    20    21    19   ar
    21    22    21    1
    22    23    12    1
    23    24     1    1
    24    25    24    1
    25    26    25   ar
    26    27    26    1
    27    28    26   ar
    28    29    28    1
    29    30    28   ar
    30    31    30    1
    31    32    30   ar
    32    33    32    1
    33    34    25   ar
    34    35     1    1
    35    36    35    1
    36    37    36   ar
    37    38    37    1
    38    39    37   ar
    39    40    39    1
    40    41    39   ar
    41    42    41    1
    42    43    41   ar
    43    44    43    1
    44    45    34    1
    45    46     1    1
    46    47    46    1
    47    48    47   ar
    48    49    48    1
    49    50    48   ar
    50    51    50    1
    51    52    50   ar
    52    53    52    1
    53    54    52   ar
    54    55    54    1
    55    56    47   ar
    56    57     1    1
    57    58    57    1
    58    59    58   ar
    59    60    59    1
    60    61    59   ar
    61    62    61    1
    62    63    61   ar
    63    64    63    1
    64    65    63   ar
    65    66    65    1
    66    67    56    1
    67    10    12   ar
    68    14    23   ar
    69    21    23   ar
    70    32    34   ar
    71    36    45   ar
    72    43    45   ar
    73    54    56   ar
    74    58    67   ar
    75    65    67   ar
    76    68    69    1
    77    70    68    2
    78    71    68    2
    79    72    68    2
    80    73    74    1
    81    75    73    2
    82    76    73    2
    83    77    73    2
    84    78    79    1
    85    80    78    2
    86    81    78    2
    87    82    78    2
    88    83    84    3
    89    84    85    1
    90    85    86    1
    91    87    85    1
    92    88    85    1
    93    89    90    3
    94    90    91    1
    95    91    92    1
    96    93    91    1
    97    94    91    1
@<TRIPOS>SUBSTRUCTURE
     1 RES1        1 GROUP             0 ****  ****    0  
     2 RES2       68 GROUP             0 ****  ****    0  
     3 RES3       73 GROUP             0 ****  ****    0  
     4 RES4       78 GROUP             0 ****  ****    0  
     5 RES5       83 GROUP             0 ****  ****    0  
     6 RES6       89 GROUP             0 ****  ****    0  
@<TRIPOS>CRYSIN
   11.7670   13.1660   15.9510  104.6200  101.6600  112.1400     2     1
