@<TRIPOS>MOLECULE
LUNVUO
    81    87     4     0     0
SMALL
USER_CHARGES
****
Generated from the CSD

@<TRIPOS>ATOM
     1 Fe1      8.9710   6.1292   3.3166   Fe        1 RES1   2.0000
     2 S1       4.9337   6.1728   5.0697   S.3       1 RES1   0.0000
     3 S2      11.3041   2.9835   5.3072   S.3       1 RES1   0.0000
     4 O1      11.6510   7.6915   9.4153   O.3       1 RES1   0.0000
     5 O2       4.2406   1.6819   1.4399   O.3       1 RES1   0.0000
     6 N1       9.9170   5.4999   1.7260   N.ar      1 RES1   0.0000
     7 N2      10.9380   4.4911  -0.6794   N.ar      1 RES1   0.0000
     8 N3       7.4983   5.7066   2.1943   N.2       1 RES1   0.0000
     9 N4       6.2551   5.9886   2.7034   N.pl3     1 RES1   0.0000
    10 H1       5.5043   5.7918   2.3044   H         1 RES1   0.0000
    11 N5       7.4744   6.4527   4.6226   N.2       1 RES1   0.0000
    12 N6       9.0453   8.0064   2.7932   N.ar      1 RES1   0.0000
    13 N7       9.5383  10.6886   2.1456   N.ar      1 RES1   0.0000
    14 N8      10.5423   6.6548   4.2422   N.2       1 RES1   0.0000
    15 N9      11.2000   5.6847   4.9396   N.pl3     1 RES1   0.0000
    16 H2      11.8426   5.8274   5.3729   H         1 RES1   0.0000
    17 N10      9.4387   4.3738   4.1812   N.2       1 RES1   0.0000
    18 C1      11.2392   5.3535   1.5319   C.ar      1 RES1   0.0000
    19 H3      11.8464   5.6091   2.2160   H         1 RES1   0.0000
    20 C2      11.7231   4.8314   0.3427   C.ar      1 RES1   0.0000
    21 H4      12.6606   4.7115   0.2507   H         1 RES1   0.0000
    22 C3       9.6262   4.6502  -0.4883   C.ar      1 RES1   0.0000
    23 H5       9.0312   4.4343  -1.1964   H         1 RES1   0.0000
    24 C4       9.0961   5.1215   0.7140   C.ar      1 RES1   0.0000
    25 C5       7.6754   5.2453   0.9922   C.2       1 RES1   0.0000
    26 C6       6.5999   4.8440   0.0275   C.3       1 RES1   0.0000
    27 H6       5.7228   4.9785   0.4430   H         1 RES1   0.0000
    28 H7       6.7090   3.8999  -0.2078   H         1 RES1   0.0000
    29 H8       6.6662   5.3923  -0.7821   H         1 RES1   0.0000
    30 C7       6.3105   6.2428   4.0428   C.2       1 RES1   0.0000
    31 C8       6.0124   6.4417   6.3985   C.2       1 RES1   0.0000
    32 H9       5.7310   6.4831   7.3047   H         1 RES1   0.0000
    33 C9       7.3078   6.5885   6.0009   C.2       1 RES1   0.0000
    34 C10      8.4474   6.8553   6.8856   C.ar      1 RES1   0.0000
    35 C11      8.8502   5.9149   7.8121   C.ar      1 RES1   0.0000
    36 H10      8.3896   5.0850   7.8635   H         1 RES1   0.0000
    37 C12      9.9269   6.1562   8.6802   C.ar      1 RES1   0.0000
    38 H11     10.1979   5.4928   9.3034   H         1 RES1   0.0000
    39 C13     10.5880   7.3645   8.6193   C.ar      1 RES1   0.0000
    40 C14     10.1824   8.3243   7.7107   C.ar      1 RES1   0.0000
    41 H12     10.6309   9.1617   7.6772   H         1 RES1   0.0000
    42 C15      9.1346   8.0798   6.8570   C.ar      1 RES1   0.0000
    43 H13      8.8711   8.7495   6.2361   H         1 RES1   0.0000
    44 C16     12.2074   6.6462  10.2252   C.3       1 RES1   0.0000
    45 H14     11.5373   6.3426  10.8723   H         1 RES1   0.0000
    46 H15     12.9925   6.9869  10.7039   H         1 RES1   0.0000
    47 H16     12.4739   5.8970   9.6532   H         1 RES1   0.0000
    48 C17      8.2008   8.7247   2.0369   C.ar      1 RES1   0.0000
    49 H17      7.4078   8.3119   1.7133   H         1 RES1   0.0000
    50 C18      8.4480  10.0442   1.7145   C.ar      1 RES1   0.0000
    51 H18      7.8242  10.5085   1.1689   H         1 RES1   0.0000
    52 C19     10.3725   9.9870   2.9216   C.ar      1 RES1   0.0000
    53 H19     11.1508  10.4166   3.2571   H         1 RES1   0.0000
    54 C20     10.1513   8.6647   3.2560   C.ar      1 RES1   0.0000
    55 C21     11.0387   7.8455   4.0786   C.2       1 RES1   0.0000
    56 C22     12.3449   8.3007   4.6147   C.3       1 RES1   0.0000
    57 H20     12.4064   8.0698   5.5651   H         1 RES1   0.0000
    58 H21     12.4207   9.2729   4.5096   H         1 RES1   0.0000
    59 H22     13.0712   7.8607   4.1240   H         1 RES1   0.0000
    60 C23     10.5921   4.4752   4.8189   C.2       1 RES1   0.0000
    61 C24      9.9441   2.1627   4.6219   C.2       1 RES1   0.0000
    62 H23      9.8315   1.2196   4.6314   H         1 RES1   0.0000
    63 C25      9.0544   3.0298   4.0655   C.2       1 RES1   0.0000
    64 C26      7.7799   2.6669   3.4064   C.ar      1 RES1   0.0000
    65 C27      6.5632   3.0483   3.9508   C.ar      1 RES1   0.0000
    66 H24      6.5570   3.5277   4.7711   H         1 RES1   0.0000
    67 C28      5.3475   2.7489   3.3336   C.ar      1 RES1   0.0000
    68 H25      4.5266   3.0328   3.7180   H         1 RES1   0.0000
    69 C29      5.3633   2.0325   2.1527   C.ar      1 RES1   0.0000
    70 C30      6.5753   1.6038   1.6142   C.ar      1 RES1   0.0000
    71 H26      6.5783   1.0887   0.8179   H         1 RES1   0.0000
    72 C31      7.7735   1.9219   2.2291   C.ar      1 RES1   0.0000
    73 H27      8.5941   1.6330   1.8483   H         1 RES1   0.0000
    74 C32      2.9720   1.9873   2.0238   C.3       1 RES1   0.0000
    75 H28      2.8695   1.4886   2.8608   H         1 RES1   0.0000
    76 H29      2.2579   1.7348   1.4029   H         1 RES1   0.0000
    77 H30      2.9210   2.9490   2.2076   H         1 RES1   0.0000
    78 C33     10.4655  13.1947   0.5958   C.2       2 RES2   0.0000
    79 O3      10.9531  13.2443   1.6895   O.3       2 RES2   0.0000
    80 Br1     13.6840   5.5587   7.0208   Br        3 RES3  -1.0000
    81 Br2      3.2492   5.7258   2.0490   Br        4 RES4  -1.0000
@<TRIPOS>BOND
     1     1     6    1
     2     2    30    1
     3     3    60    1
     4     4    39    1
     5     5    69    1
     6     6    18   ar
     7     7    20   ar
     8     8     1    1
     9     9     8    1
    10    10     9    1
    11    11     1    1
    12    12     1    1
    13    13    50   ar
    14    14     1    1
    15    15    14    1
    16    16    15    1
    17    17     1    1
    18    18    19    1
    19    20    18   ar
    20    21    20    1
    21    22     7   ar
    22    23    22    1
    23    24     6   ar
    24    25     8    2
    25    26    25    1
    26    27    26    1
    27    28    26    1
    28    29    26    1
    29    30     9    1
    30    31     2    1
    31    32    31    1
    32    33    11    1
    33    34    33    1
    34    35    34   ar
    35    36    35    1
    36    37    35   ar
    37    38    37    1
    38    39    37   ar
    39    40    39   ar
    40    41    40    1
    41    42    34   ar
    42    43    42    1
    43    44     4    1
    44    45    44    1
    45    46    44    1
    46    47    44    1
    47    48    12   ar
    48    49    48    1
    49    50    48   ar
    50    51    50    1
    51    52    13   ar
    52    53    52    1
    53    54    12   ar
    54    55    14    2
    55    56    55    1
    56    57    56    1
    57    58    56    1
    58    59    56    1
    59    60    15    1
    60    61     3    1
    61    62    61    1
    62    63    17    1
    63    64    63    1
    64    65    64   ar
    65    66    65    1
    66    67    65   ar
    67    68    67    1
    68    69    67   ar
    69    70    69   ar
    70    71    70    1
    71    72    64   ar
    72    73    72    1
    73    74     5    1
    74    75    74    1
    75    76    74    1
    76    77    74    1
    77    11    30    2
    78    17    60    2
    79    22    24   ar
    80    24    25    1
    81    31    33    2
    82    40    42   ar
    83    52    54   ar
    84    54    55    1
    85    61    63    2
    86    70    72   ar
    87    78    79    1
@<TRIPOS>SUBSTRUCTURE
     1 RES1        1 GROUP             0 ****  ****    0  
     2 RES2       78 GROUP             0 ****  ****    0  
     3 RES3       80 GROUP             0 ****  ****    0  
     4 RES4       81 GROUP             0 ****  ****    0  
@<TRIPOS>CRYSIN
   11.3805   13.1007   13.3695   67.6860   75.7250   89.2220     2     1
