@<TRIPOS>MOLECULE
LUWPAU
    79    92     1     0     0
SMALL
NO_CHARGES
****
Generated from the CSD

@<TRIPOS>ATOM
     1 Fe1      0.0000   0.0000   0.0000   Fe        1 RES1   0.0000
     2 N1       0.9843   0.7651   1.4842   N.2       1 RES1   0.0000
     3 N2       2.3907   2.3666   0.3071   N.2       1 RES1   0.0000
     4 N3       0.9452   1.1591  -1.2334   N.2       1 RES1   0.0000
     5 N4       0.0437  -0.4825   3.3394   N.2       1 RES1   0.0000
     6 C1       0.8488   0.4364   2.8029   C.2       1 RES1   0.0000
     7 C2       1.7679   1.2218   3.6200   C.2       1 RES1   0.0000
     8 C3       2.0199   1.2402   4.9685   C.2       1 RES1   0.0000
     9 H1       1.5389   0.7015   5.5545   H         1 RES1   0.0000
    10 C4       3.0093   2.0842   5.4257   C.2       1 RES1   0.0000
    11 H2       3.2051   2.1045   6.3350   H         1 RES1   0.0000
    12 C5       3.7232   2.9090   4.5549   C.2       1 RES1   0.0000
    13 H3       4.3899   3.4657   4.8892   H         1 RES1   0.0000
    14 C6       3.4479   2.9062   3.1927   C.2       1 RES1   0.0000
    15 H4       3.9075   3.4637   2.6075   H         1 RES1   0.0000
    16 C7       2.4643   2.0443   2.7355   C.2       1 RES1   0.0000
    17 C8       1.9527   1.7484   1.4040   C.2       1 RES1   0.0000
    18 C9       1.9072   2.0935  -0.9024   C.2       1 RES1   0.0000
    19 C10      2.3395   2.8072  -2.0983   C.2       1 RES1   0.0000
    20 C11      3.2298   3.8455  -2.3047   C.2       1 RES1   0.0000
    21 H5       3.7045   4.2150  -1.5959   H         1 RES1   0.0000
    22 C12      3.3942   4.3170  -3.5927   C.2       1 RES1   0.0000
    23 H6       3.9840   5.0181  -3.7539   H         1 RES1   0.0000
    24 C13      2.6861   3.7552  -4.6538   C.2       1 RES1   0.0000
    25 H7       2.8201   4.0815  -5.5136   H         1 RES1   0.0000
    26 C14      1.7848   2.7197  -4.4534   C.2       1 RES1   0.0000
    27 H8       1.3081   2.3516  -5.1622   H         1 RES1   0.0000
    28 C15      1.6189   2.2514  -3.1594   C.2       1 RES1   0.0000
    29 C16      0.7740   1.2177  -2.5999   C.2       1 RES1   0.0000
    30 N5       1.4359  -1.4267  -0.2397   N.ar      1 RES1   0.0000
    31 C17      2.7378  -1.1088  -0.3975   C.ar      1 RES1   0.0000
    32 H9       2.9717  -0.2093  -0.4103   H         1 RES1   0.0000
    33 C18      3.7355  -2.0413  -0.5416   C.ar      1 RES1   0.0000
    34 H10      4.6196  -1.7737  -0.6508   H         1 RES1   0.0000
    35 C19      3.4104  -3.3778  -0.5212   C.ar      1 RES1   0.0000
    36 H11      4.0688  -4.0296  -0.6022   H         1 RES1   0.0000
    37 C20      2.0907  -3.7237  -0.3787   C.ar      1 RES1   0.0000
    38 H12      1.8395  -4.6195  -0.3685   H         1 RES1   0.0000
    39 C21      1.1403  -2.7329  -0.2525   C.ar      1 RES1   0.0000
    40 H13      0.2491  -2.9834  -0.1714   H         1 RES1   0.0000
    41 C16B    -0.7740  -1.2177   2.5999   C.2       1 RES1   0.0000
    42 N3B     -0.9452  -1.1591   1.2334   N.2       1 RES1   0.0000
    43 N1B     -0.9843  -0.7651  -1.4842   N.2       1 RES1   0.0000
    44 C1B     -0.8488  -0.4364  -2.8029   C.2       1 RES1   0.0000
    45 N4B     -0.0437   0.4825  -3.3394   N.2       1 RES1   0.0000
    46 N5B     -1.4359   1.4267   0.2397   N.ar      1 RES1   0.0000
    47 C17B    -2.7378   1.1088   0.3975   C.ar      1 RES1   0.0000
    48 H9B     -2.9717   0.2093   0.4103   H         1 RES1   0.0000
    49 C18B    -3.7355   2.0413   0.5416   C.ar      1 RES1   0.0000
    50 H10B    -4.6196   1.7737   0.6508   H         1 RES1   0.0000
    51 C19B    -3.4104   3.3778   0.5212   C.ar      1 RES1   0.0000
    52 H11B    -4.0688   4.0296   0.6022   H         1 RES1   0.0000
    53 C20B    -2.0907   3.7237   0.3787   C.ar      1 RES1   0.0000
    54 H12B    -1.8395   4.6195   0.3685   H         1 RES1   0.0000
    55 C21B    -1.1403   2.7329   0.2525   C.ar      1 RES1   0.0000
    56 H13B    -0.2491   2.9834   0.1714   H         1 RES1   0.0000
    57 C2B     -1.7679  -1.2218  -3.6200   C.2       1 RES1   0.0000
    58 C3B     -2.0199  -1.2402  -4.9685   C.2       1 RES1   0.0000
    59 H1B     -1.5389  -0.7015  -5.5545   H         1 RES1   0.0000
    60 C4B     -3.0093  -2.0842  -5.4257   C.2       1 RES1   0.0000
    61 H2B     -3.2051  -2.1045  -6.3350   H         1 RES1   0.0000
    62 C5B     -3.7232  -2.9090  -4.5549   C.2       1 RES1   0.0000
    63 H3B     -4.3899  -3.4657  -4.8892   H         1 RES1   0.0000
    64 C6B     -3.4479  -2.9062  -3.1927   C.2       1 RES1   0.0000
    65 H4B     -3.9075  -3.4637  -2.6075   H         1 RES1   0.0000
    66 C7B     -2.4643  -2.0443  -2.7355   C.2       1 RES1   0.0000
    67 C8B     -1.9527  -1.7484  -1.4040   C.2       1 RES1   0.0000
    68 N2B     -2.3907  -2.3666  -0.3071   N.2       1 RES1   0.0000
    69 C9B     -1.9072  -2.0935   0.9024   C.2       1 RES1   0.0000
    70 C10B    -2.3395  -2.8072   2.0983   C.2       1 RES1   0.0000
    71 C11B    -3.2298  -3.8455   2.3047   C.2       1 RES1   0.0000
    72 H5B     -3.7045  -4.2150   1.5959   H         1 RES1   0.0000
    73 C12B    -3.3942  -4.3170   3.5927   C.2       1 RES1   0.0000
    74 H6B     -3.9840  -5.0181   3.7539   H         1 RES1   0.0000
    75 C13B    -2.6861  -3.7552   4.6538   C.2       1 RES1   0.0000
    76 H7B     -2.8201  -4.0815   5.5136   H         1 RES1   0.0000
    77 C14B    -1.7848  -2.7197   4.4534   C.2       1 RES1   0.0000
    78 H8B     -1.3081  -2.3516   5.1622   H         1 RES1   0.0000
    79 C15B    -1.6189  -2.2514   3.1594   C.2       1 RES1   0.0000
@<TRIPOS>BOND
     1     1     2    1
     2     2     6    1
     3     3    17    2
     4     4     1    1
     5     5     6    2
     6     6     7    1
     7     7     8    1
     8     8     9    1
     9    10     8    2
    10    11    10    1
    11    12    10    1
    12    13    12    1
    13    14    12    2
    14    15    14    1
    15    16     7    2
    16    17     2    1
    17    18     3    1
    18    19    18    1
    19    20    19    1
    20    21    20    1
    21    22    20    2
    22    23    22    1
    23    24    22    1
    24    25    24    1
    25    26    24    2
    26    27    26    1
    27    28    19    2
    28    29     4    1
    29    30     1    1
    30    31    30   ar
    31    32    31    1
    32    33    31   ar
    33    34    33    1
    34    35    33   ar
    35    36    35    1
    36    37    35   ar
    37    38    37    1
    38    39    30   ar
    39    40    39    1
    40    41     5    1
    41    42     1    1
    42    43     1    1
    43    44    43    1
    44    45    29    2
    45    46     1    1
    46    47    46   ar
    47    48    47    1
    48    49    47   ar
    49    50    49    1
    50    51    49   ar
    51    52    51    1
    52    53    51   ar
    53    54    53    1
    54    55    46   ar
    55    56    55    1
    56    57    44    2
    57    58    57    1
    58    59    58    1
    59    60    58    2
    60    61    60    1
    61    62    60    1
    62    63    62    1
    63    64    62    2
    64    65    64    1
    65    66    57    1
    66    67    43    1
    67    68    67    1
    68    69    42    1
    69    70    69    1
    70    71    70    1
    71    72    71    1
    72    73    71    2
    73    74    73    1
    74    75    73    1
    75    76    75    1
    76    77    75    2
    77    78    77    1
    78    79    41    1
    79     4    18    2
    80    14    16    1
    81    16    17    1
    82    26    28    1
    83    28    29    1
    84    37    39   ar
    85    41    42    2
    86    44    45    1
    87    53    55   ar
    88    64    66    1
    89    66    67    2
    90    68    69    2
    91    70    79    2
    92    77    79    1
@<TRIPOS>SUBSTRUCTURE
     1 RES1        1 GROUP             0 ****  ****    0  
@<TRIPOS>CRYSIN
    9.5760   19.9290    9.1790   90.0000  111.6800   90.0000    14     1
