@<TRIPOS>MOLECULE
LUWPAU01
    79    92     1     0     0
SMALL
NO_CHARGES
****
Generated from the CSD

@<TRIPOS>ATOM
     1 Fe1      2.8470   9.9950   4.4908   Fe        1 RES1   0.0000
     2 N1       1.4574   8.5837   4.7693   N.ar      1 RES1   0.0000
     3 N2       0.5586  12.3698   4.1612   N.2       1 RES1   0.0000
     4 N3       1.9257  10.7666   2.9092   N.2       1 RES1   0.0000
     5 N4       1.8867  11.1544   5.7994   N.2       1 RES1   0.0000
     6 C1       1.0226  11.7481   3.0080   C.2       1 RES1   0.0000
     7 C2       0.1983   8.8896   4.9031   C.ar      1 RES1   0.0000
     8 H1      -0.0392   9.7880   4.8855   H         1 RES1   0.0000
     9 N5       2.8013  10.4788   7.9892   N.2       1 RES1   0.0000
    10 C3       3.5906   9.5672   7.4323   C.2       1 RES1   0.0000
    11 C4       0.9855  12.1079   5.4357   C.2       1 RES1   0.0000
    12 C5       2.0275  11.2024   7.2078   C.2       1 RES1   0.0000
    13 C6       1.7130   7.2644   4.7710   C.ar      1 RES1   0.0000
    14 H2       2.6036   7.0115   4.6837   H         1 RES1   0.0000
    15 C7      -0.3237  13.8791   6.9105   C.2       1 RES1   0.0000
    16 H3      -0.7551  14.3012   6.2033   H         1 RES1   0.0000
    17 C8      -0.5192  14.3108   8.2757   C.2       1 RES1   0.0000
    18 H4      -1.1387  14.9879   8.4253   H         1 RES1   0.0000
    19 C9      -0.3685  12.9415   1.1083   C.2       1 RES1   0.0000
    20 H5      -0.8295  13.5303   1.6604   H         1 RES1   0.0000
    21 C10      0.5321  12.8136   6.6976   C.2       1 RES1   0.0000
    22 C11      1.2723  11.2324   0.6835   C.2       1 RES1   0.0000
    23 C12      1.1961  12.2639   7.8239   C.2       1 RES1   0.0000
    24 C13      0.5662  12.0400   1.6140   C.2       1 RES1   0.0000
    25 C14      0.9930  12.7516   9.1712   C.2       1 RES1   0.0000
    26 H6       1.4384  12.3560   9.8850   H         1 RES1   0.0000
    27 C15     -0.7754   7.9800   5.0656   C.ar      1 RES1   0.0000
    28 H7      -1.6515   8.2588   5.1988   H         1 RES1   0.0000
    29 C16      1.0527  11.2584  -0.7266   C.2       1 RES1   0.0000
    30 H8       1.5462  10.7107  -1.2926   H         1 RES1   0.0000
    31 C17      0.1401  13.7971   9.3813   C.2       1 RES1   0.0000
    32 H9       0.0085  14.1511  10.2306   H         1 RES1   0.0000
    33 C18      0.1078  12.0999  -1.2278   C.2       1 RES1   0.0000
    34 H10     -0.0767  12.1378  -2.1377   H         1 RES1   0.0000
    35 C19     -0.5797  12.9115  -0.2973   C.2       1 RES1   0.0000
    36 H11     -1.2313  13.4813  -0.6361   H         1 RES1   0.0000
    37 C20      0.8072   6.2709   4.8860   C.ar      1 RES1   0.0000
    38 H12      1.0552   5.3745   4.8651   H         1 RES1   0.0000
    39 C21     -0.4867   6.6527   5.0351   C.ar      1 RES1   0.0000
    40 H13     -1.1620   6.0180   5.1147   H         1 RES1   0.0000
    41 N2B      5.1353   7.6202   4.8204   N.2       1 RES1   0.0000
    42 N3B      3.7683   9.2234   6.0725   N.2       1 RES1   0.0000
    43 N4B      3.8072   8.8356   3.1822   N.2       1 RES1   0.0000
    44 C1B      4.6713   8.2419   5.9737   C.2       1 RES1   0.0000
    45 N5B      2.8927   9.5112   0.9925   N.2       1 RES1   0.0000
    46 C3B      2.1033  10.4228   1.5493   C.2       1 RES1   0.0000
    47 C4B      4.7085   7.8821   3.5460   C.2       1 RES1   0.0000
    48 C5B      3.6664   8.7876   1.7739   C.2       1 RES1   0.0000
    49 C7B      6.0176   6.1109   2.0712   C.2       1 RES1   0.0000
    50 H3B      6.4490   5.6888   2.7783   H         1 RES1   0.0000
    51 C8B      6.2131   5.6792   0.7060   C.2       1 RES1   0.0000
    52 H4B      6.8326   5.0021   0.5564   H         1 RES1   0.0000
    53 C9B      6.0624   7.0485   7.8733   C.2       1 RES1   0.0000
    54 H5B      6.5234   6.4597   7.3212   H         1 RES1   0.0000
    55 C10B     5.1618   7.1764   2.2840   C.2       1 RES1   0.0000
    56 C11B     4.4216   8.7576   8.2981   C.2       1 RES1   0.0000
    57 C12B     4.4978   7.7261   1.1577   C.2       1 RES1   0.0000
    58 C13B     5.1277   7.9500   7.3676   C.2       1 RES1   0.0000
    59 C14B     4.7010   7.2384  -0.1895   C.2       1 RES1   0.0000
    60 H6B      4.2555   7.6340  -0.9034   H         1 RES1   0.0000
    61 C16B     4.6413   8.7316   9.7083   C.2       1 RES1   0.0000
    62 H8B      4.1477   9.2793  10.2742   H         1 RES1   0.0000
    63 C17B     5.5538   6.1929  -0.3997   C.2       1 RES1   0.0000
    64 H9B      5.6854   5.8389  -1.2490   H         1 RES1   0.0000
    65 C18B     5.5861   7.8901  10.2094   C.2       1 RES1   0.0000
    66 H10B     5.7706   7.8522  11.1194   H         1 RES1   0.0000
    67 C19B     6.2737   7.0785   9.2789   C.2       1 RES1   0.0000
    68 H11B     6.9252   6.5087   9.6178   H         1 RES1   0.0000
    69 N1B      4.2365  11.4063   4.2124   N.ar      1 RES1   0.0000
    70 C2B      5.4957  11.1004   4.0786   C.ar      1 RES1   0.0000
    71 H1B      5.7331  10.2020   4.0961   H         1 RES1   0.0000
    72 C6B      3.9810  12.7256   4.2106   C.ar      1 RES1   0.0000
    73 H2B      3.0904  12.9785   4.2979   H         1 RES1   0.0000
    74 C15B     6.4693  12.0100   3.9160   C.ar      1 RES1   0.0000
    75 H7B      7.3455  11.7312   3.7828   H         1 RES1   0.0000
    76 C20B     4.8867  13.7191   4.0956   C.ar      1 RES1   0.0000
    77 H12B     4.6387  14.6155   4.1165   H         1 RES1   0.0000
    78 C21B     6.1806  13.3373   3.9465   C.ar      1 RES1   0.0000
    79 H13B     6.8559  13.9720   3.8669   H         1 RES1   0.0000
@<TRIPOS>BOND
     1     1     2    1
     2     2     7   ar
     3     3     6    2
     4     4     1    1
     5     5     1    1
     6     6     4    1
     7     7     8    1
     8     9    10    1
     9    10    42    1
    10    11     3    1
    11    12     5    1
    12    13     2   ar
    13    14    13    1
    14    15    16    1
    15    17    15    2
    16    18    17    1
    17    19    20    1
    18    21    11    1
    19    22    24    2
    20    23    12    1
    21    24     6    1
    22    25    23    1
    23    26    25    1
    24    27     7   ar
    25    28    27    1
    26    29    22    1
    27    30    29    1
    28    31    17    1
    29    32    31    1
    30    33    29    2
    31    34    33    1
    32    35    19    2
    33    36    35    1
    34    37    13   ar
    35    38    37    1
    36    39    27   ar
    37    40    39    1
    38    41    44    1
    39    42     1    1
    40    43     1    1
    41    44    42    1
    42    45    46    2
    43    46     4    1
    44    47    41    2
    45    48    43    2
    46    49    50    1
    47    51    49    2
    48    52    51    1
    49    53    54    1
    50    55    47    1
    51    56    10    2
    52    57    48    1
    53    58    44    2
    54    59    57    1
    55    60    59    1
    56    61    56    1
    57    62    61    1
    58    63    51    1
    59    64    63    1
    60    65    61    2
    61    66    65    1
    62    67    53    2
    63    68    67    1
    64    69     1    1
    65    70    69   ar
    66    71    70    1
    67    72    69   ar
    68    73    72    1
    69    74    70   ar
    70    75    74    1
    71    76    72   ar
    72    77    76    1
    73    78    74   ar
    74    79    78    1
    75     5    11    2
    76     9    12    2
    77    15    21    1
    78    19    24    1
    79    21    23    2
    80    22    46    1
    81    25    31    2
    82    33    35    1
    83    37    39   ar
    84    43    47    1
    85    45    48    1
    86    49    55    1
    87    53    58    1
    88    55    57    2
    89    56    58    1
    90    59    63    2
    91    65    67    1
    92    76    78   ar
@<TRIPOS>SUBSTRUCTURE
     1 RES1        1 GROUP             0 ****  ****    0  
@<TRIPOS>CRYSIN
    9.2500   19.9900    9.6600   90.0000  111.6000   90.0000    14     1
