@<TRIPOS>MOLECULE
LUXPEB
    77    82     1     0     0
SMALL
NO_CHARGES
****
Generated from the CSD

@<TRIPOS>ATOM
     1 Fe1      6.0250  23.9770   3.3585   Fe        1 RES1   0.0000
     2 P1       7.7376  24.7040   4.5455   P.3       1 RES1   0.0000
     3 P2       4.6840  23.7306   5.1349   P.3       1 RES1   0.0000
     4 N1       7.1436  24.0494   1.6710   N.2       1 RES1   0.0000
     5 N2       5.2201  25.7391   2.9807   N.2       1 RES1   0.0000
     6 N3       6.7578  22.1487   3.3670   N.2       1 RES1   0.0000
     7 N4       4.5322  23.4001   2.1422   N.2       1 RES1   0.0000
     8 C1       6.6541  20.9920   4.0488   C.2       1 RES1   0.0000
     9 H1       6.1591  20.8791   4.8275   H         1 RES1   0.0000
    10 C2       7.7423  22.9545   1.3947   C.2       1 RES1   0.0000
    11 H2       8.2637  22.8677   0.6303   H         1 RES1   0.0000
    12 C3       4.1146  25.6711   2.2020   C.2       1 RES1   0.0000
    13 C4       7.5786  21.8794   2.3025   C.2       1 RES1   0.0000
    14 C5       7.7815  24.5655  -1.6123   C.ar      1 RES1   0.0000
    15 H3       6.9043  24.2823  -1.7403   H         1 RES1   0.0000
    16 C6       3.5159  21.9041   0.4162   C.ar      1 RES1   0.0000
    17 C7       7.1636  25.1868   0.7392   C.3       1 RES1   0.0000
    18 H4       7.3593  25.9934   1.2439   H         1 RES1   0.0000
    19 H5       6.2765  25.2888   0.3612   H         1 RES1   0.0000
    20 C8       3.7988  24.3742   1.7343   C.2       1 RES1   0.0000
    21 H6       3.0873  24.2306   1.1530   H         1 RES1   0.0000
    22 C9       7.9716  20.5488   2.3109   C.2       1 RES1   0.0000
    23 H7       8.5158  20.1174   1.6925   H         1 RES1   0.0000
    24 C10      9.4766  25.4844  -0.2584   C.ar      1 RES1   0.0000
    25 H8       9.7650  25.8302   0.5550   H         1 RES1   0.0000
    26 C11      8.1582  25.0821  -0.3959   C.ar      1 RES1   0.0000
    27 C12      5.3821  27.0364   3.2582   C.2       1 RES1   0.0000
    28 H9       6.0727  27.3754   3.7797   H         1 RES1   0.0000
    29 C13      7.5176  25.9115   5.8920   C.3       1 RES1   0.0000
    30 H10      7.2956  26.7687   5.5212   H         1 RES1   0.0000
    31 H11      8.3329  25.9825   6.3944   H         1 RES1   0.0000
    32 H12      6.8097  25.6207   6.4709   H         1 RES1   0.0000
    33 C14      3.5832  26.9363   1.9879   C.2       1 RES1   0.0000
    34 H13      2.8316  27.1496   1.4832   H         1 RES1   0.0000
    35 C15      3.7670  25.2162   5.6671   C.3       1 RES1   0.0000
    36 H14      4.3793  25.8547   6.0391   H         1 RES1   0.0000
    37 H15      3.1182  24.9706   6.3322   H         1 RES1   0.0000
    38 H16      3.3193  25.6044   4.9112   H         1 RES1   0.0000
    39 C16     10.3638  25.3824  -1.2954   C.ar      1 RES1   0.0000
    40 H17     11.2409  25.6697  -1.1806   H         1 RES1   0.0000
    41 C17      4.3029  22.0246   1.6745   C.3       1 RES1   0.0000
    42 H18      3.8416  21.5347   2.3731   H         1 RES1   0.0000
    43 H19      5.1637  21.5973   1.5394   H         1 RES1   0.0000
    44 C18      9.0753  25.5459   3.6182   C.3       1 RES1   0.0000
    45 H20      9.4439  24.9433   2.9699   H         1 RES1   0.0000
    46 H21      9.7632  25.8193   4.2282   H         1 RES1   0.0000
    47 H22      8.7187  26.3171   3.1709   H         1 RES1   0.0000
    48 C19      7.3838  19.9987   3.4316   C.2       1 RES1   0.0000
    49 H23      7.4648  19.1190   3.7187   H         1 RES1   0.0000
    50 C20      2.1947  21.5132   0.4677   C.ar      1 RES1   0.0000
    51 H24      1.7971  21.3606   1.2942   H         1 RES1   0.0000
    52 C21      4.3948  27.8115   2.6733   C.2       1 RES1   0.0000
    53 H25      4.2993  28.7356   2.7319   H         1 RES1   0.0000
    54 C22      8.6923  23.4229   5.3932   C.3       1 RES1   0.0000
    55 H26      8.1172  22.9384   5.9901   H         1 RES1   0.0000
    56 H27      9.4020  23.8307   5.8932   H         1 RES1   0.0000
    57 H28      9.0626  22.8187   4.7449   H         1 RES1   0.0000
    58 C23      4.0636  22.1364  -0.8145   C.ar      1 RES1   0.0000
    59 H29      4.9489  22.4107  -0.8863   H         1 RES1   0.0000
    60 C24      1.4649  21.3451  -0.6579   C.ar      1 RES1   0.0000
    61 H30      0.5796  21.0668  -0.5981   H         1 RES1   0.0000
    62 C25      8.6841  24.4618  -2.6422   C.ar      1 RES1   0.0000
    63 H31      8.4075  24.1109  -3.4579   H         1 RES1   0.0000
    64 C26      3.2993  22.5622   4.9327   C.3       1 RES1   0.0000
    65 H32      2.7515  22.8405   4.1947   H         1 RES1   0.0000
    66 H33      2.7725  22.5494   5.7353   H         1 RES1   0.0000
    67 H34      3.6451  21.6816   4.7629   H         1 RES1   0.0000
    68 C27      9.9780  24.8647  -2.4939   C.ar      1 RES1   0.0000
    69 H35     10.5840  24.7883  -3.1948   H         1 RES1   0.0000
    70 C28      5.2947  23.1560   6.7448   C.3       1 RES1   0.0000
    71 H36      5.6268  22.2583   6.6587   H         1 RES1   0.0000
    72 H37      4.5777  23.1724   7.3835   H         1 RES1   0.0000
    73 H38      6.0017  23.7328   7.0426   H         1 RES1   0.0000
    74 C29      3.2729  21.9563  -1.9855   C.ar      1 RES1   0.0000
    75 H39      3.6323  22.1005  -2.8312   H         1 RES1   0.0000
    76 C30      2.0009  21.5728  -1.8360   C.ar      1 RES1   0.0000
    77 H40      1.4749  21.4640  -2.5955   H         1 RES1   0.0000
@<TRIPOS>BOND
     1     1     2    1
     2     2    29    1
     3     3     1    1
     4     4     1    1
     5     5     1    1
     6     6     1    1
     7     7     1    1
     8     8     6    1
     9     9     8    1
    10    10     4    2
    11    11    10    1
    12    12     5    1
    13    13     6    1
    14    14    15    1
    15    16    41    1
    16    17     4    1
    17    18    17    1
    18    19    17    1
    19    20     7    2
    20    21    20    1
    21    22    13    2
    22    23    22    1
    23    24    25    1
    24    26    14   ar
    25    27     5    1
    26    28    27    1
    27    29    30    1
    28    31    29    1
    29    32    29    1
    30    33    12    2
    31    34    33    1
    32    35     3    1
    33    36    35    1
    34    37    35    1
    35    38    35    1
    36    39    24   ar
    37    40    39    1
    38    41     7    1
    39    42    41    1
    40    43    41    1
    41    44     2    1
    42    45    44    1
    43    46    44    1
    44    47    44    1
    45    48     8    2
    46    49    48    1
    47    50    16   ar
    48    51    50    1
    49    52    27    2
    50    53    52    1
    51    54     2    1
    52    55    54    1
    53    56    54    1
    54    57    54    1
    55    58    16   ar
    56    59    58    1
    57    60    50   ar
    58    61    60    1
    59    62    14   ar
    60    63    62    1
    61    64     3    1
    62    65    64    1
    63    66    64    1
    64    67    64    1
    65    68    39   ar
    66    69    68    1
    67    70     3    1
    68    71    70    1
    69    72    70    1
    70    73    70    1
    71    74    58   ar
    72    75    74    1
    73    76    60   ar
    74    77    76    1
    75    10    13    1
    76    12    20    1
    77    17    26    1
    78    22    48    1
    79    24    26   ar
    80    33    52    1
    81    62    68   ar
    82    74    76   ar
@<TRIPOS>SUBSTRUCTURE
     1 RES1        1 GROUP             0 ****  ****    0  
@<TRIPOS>CRYSIN
    9.0990   27.2040   11.9610   90.0000   90.0000   90.0000    14     1
