@<TRIPOS>MOLECULE
LUZHUL
   103   109     3     0     0
SMALL
USER_CHARGES
****
Generated from the CSD

@<TRIPOS>ATOM
     1 Fe1      1.1648   6.4449   6.4285   Fe        1 RES1   2.0000
     2 O1      -3.3432   8.4191  13.4018   O.3       1 RES1   0.0000
     3 O2       4.2180  -0.9993   9.3666   O.3       1 RES1   0.0000
     4 O3      -1.3596  13.9580   3.2726   O.3       1 RES1   0.0000
     5 N1       0.8812   5.4780   3.8210   N.pl3     1 RES1   0.0000
     6 N2       2.7610   6.4869   3.8975   N.pl3     1 RES1   0.0000
     7 N3      -0.4777   5.4742   5.6529   N.ar      1 RES1   0.0000
     8 N4       3.8271   7.5769   5.7787   N.pl3     1 RES1   0.0000
     9 N5       3.4626   7.7448   7.8834   N.pl3     1 RES1   0.0000
    10 N6       2.9870   6.2904   9.6601   N.ar      1 RES1   0.0000
    11 N7      -0.2709   6.9777   9.0464   N.1       1 RES1   0.0000
    12 N8       2.3459   3.7837   7.3236   N.1       1 RES1   0.0000
    13 N9       0.1714   9.1947   5.6088   N.1       1 RES1   0.0000
    14 C1       1.7181   6.1467   4.6542   C.3       1 RES1   0.0000
    15 C2       1.4091   5.4102   2.5334   C.2       1 RES1   0.0000
    16 C3       2.5862   6.0453   2.5728   C.2       1 RES1   0.0000
    17 C4      -0.3414   5.0685   4.3726   C.ar      1 RES1   0.0000
    18 C5      -1.2918   4.3422   3.6793   C.ar      1 RES1   0.0000
    19 C6      -2.4673   4.0344   4.3394   C.ar      1 RES1   0.0000
    20 C7      -2.6399   4.4435   5.6460   C.ar      1 RES1   0.0000
    21 C8      -1.6287   5.1564   6.2771   C.ar      1 RES1   0.0000
    22 C9       3.8386   7.3493   4.3357   C.3       1 RES1   0.0000
    23 C10      2.9055   7.2597   6.7346   C.3       1 RES1   0.0000
    24 C11      4.9012   8.2776   6.3217   C.2       1 RES1   0.0000
    25 C12      4.6724   8.3893   7.6315   C.2       1 RES1   0.0000
    26 C13      2.9791   7.5492   9.2267   C.ar      1 RES1   0.0000
    27 C14      2.6193   8.6506   9.9802   C.ar      1 RES1   0.0000
    28 C15      2.2032   8.4271  11.2798   C.ar      1 RES1   0.0000
    29 C16      2.1748   7.1285  11.7616   C.ar      1 RES1   0.0000
    30 C17      2.5784   6.1017  10.9246   C.ar      1 RES1   0.0000
    31 C18      0.3544   6.7508   8.0987   C.1       1 RES1   0.0000
    32 C19     -1.0357   7.3625  10.1545   C.ar      1 RES1   0.0000
    33 C20     -1.1726   8.7129  10.4446   C.ar      1 RES1   0.0000
    34 C21     -1.9449   9.1145  11.5275   C.ar      1 RES1   0.0000
    35 C22     -2.5611   8.1521  12.3224   C.ar      1 RES1   0.0000
    36 C23     -2.4194   6.7941  12.0187   C.ar      1 RES1   0.0000
    37 C24     -1.6659   6.3944  10.9308   C.ar      1 RES1   0.0000
    38 C25     -3.4827   9.7861  13.7932   C.3       1 RES1   0.0000
    39 C26      1.8803   4.7860   6.9917   C.1       1 RES1   0.0000
    40 C27      2.8811   2.5911   7.8406   C.ar      1 RES1   0.0000
    41 C28      3.3950   2.5832   9.1226   C.ar      1 RES1   0.0000
    42 C29      3.8609   1.3915   9.6653   C.ar      1 RES1   0.0000
    43 C30      3.8132   0.2261   8.9096   C.ar      1 RES1   0.0000
    44 C31      3.3484   0.2610   7.6025   C.ar      1 RES1   0.0000
    45 C32      2.8636   1.4390   7.0631   C.ar      1 RES1   0.0000
    46 C33      4.5345  -1.1049  10.7651   C.3       1 RES1   0.0000
    47 C34      0.5350   8.1357   5.9145   C.1       1 RES1   0.0000
    48 C35     -0.2696  10.3947   5.0334   C.ar      1 RES1   0.0000
    49 C36     -0.5740  10.3956   3.6904   C.ar      1 RES1   0.0000
    50 C37     -0.9615  11.5687   3.0660   C.ar      1 RES1   0.0000
    51 C38     -1.0305  12.7420   3.8024   C.ar      1 RES1   0.0000
    52 C39     -0.7780  12.7169   5.1674   C.ar      1 RES1   0.0000
    53 C40     -0.3912  11.5501   5.7978   C.ar      1 RES1   0.0000
    54 C41     -1.6495  13.9906   1.8679   C.3       1 RES1   0.0000
    55 H1       1.0114   4.9955   1.7760   H         1 RES1   0.0000
    56 H2       3.1869   6.1738   1.8478   H         1 RES1   0.0000
    57 H3      -1.1432   4.0641   2.7816   H         1 RES1   0.0000
    58 H4      -3.1512   3.5460   3.8963   H         1 RES1   0.0000
    59 H5      -3.4437   4.2390   6.1107   H         1 RES1   0.0000
    60 H6      -1.7527   5.4283   7.1782   H         1 RES1   0.0000
    61 H7       3.7647   8.2201   3.8715   H         1 RES1   0.0000
    62 H8       4.7036   6.9412   4.0796   H         1 RES1   0.0000
    63 H9       5.6535   8.6136   5.8481   H         1 RES1   0.0000
    64 H10      5.2276   8.8235   8.2681   H         1 RES1   0.0000
    65 H11      2.6555   9.5275   9.6180   H         1 RES1   0.0000
    66 H12      1.9413   9.1536  11.8349   H         1 RES1   0.0000
    67 H13      1.8852   6.9456  12.6474   H         1 RES1   0.0000
    68 H14      2.5657   5.2141  11.2652   H         1 RES1   0.0000
    69 H15     -0.7391   9.3613   9.9029   H         1 RES1   0.0000
    70 H16     -2.0513  10.0368  11.7235   H         1 RES1   0.0000
    71 H17     -2.8427   6.1410  12.5631   H         1 RES1   0.0000
    72 H18     -1.5798   5.4721  10.7153   H         1 RES1   0.0000
    73 H19     -3.8374  10.3057  13.0412   H         1 RES1   0.0000
    74 H20     -2.6075  10.1418  14.0543   H         1 RES1   0.0000
    75 H21     -4.0996   9.8466  14.5521   H         1 RES1   0.0000
    76 H22      3.4298   3.3864   9.6304   H         1 RES1   0.0000
    77 H23      4.2105   1.3729  10.5494   H         1 RES1   0.0000
    78 H24      3.3630  -0.5291   7.0742   H         1 RES1   0.0000
    79 H25      2.5249   1.4604   6.1751   H         1 RES1   0.0000
    80 H26      4.7418  -2.0375  10.9828   H         1 RES1   0.0000
    81 H27      3.7672  -0.8067  11.2974   H         1 RES1   0.0000
    82 H28      5.3106  -0.5422  10.9680   H         1 RES1   0.0000
    83 H29     -0.5183   9.5887   3.1903   H         1 RES1   0.0000
    84 H30     -1.1776  11.5694   2.1401   H         1 RES1   0.0000
    85 H31     -0.8718  13.5151   5.6747   H         1 RES1   0.0000
    86 H32     -0.2131  11.5366   6.7299   H         1 RES1   0.0000
    87 H33     -0.8670  13.6812   1.3648   H         1 RES1   0.0000
    88 H34     -1.8662  14.9077   1.6001   H         1 RES1   0.0000
    89 H35     -2.4124  13.4058   1.6769   H         1 RES1   0.0000
    90 P1       4.5098  12.4941   9.4521   P.3       2 RES2  -1.0000
    91 F1       3.4022  11.7513   8.5601   F         2 RES2   0.0000
    92 F2       5.6007  11.4117   9.0077   F         2 RES2   0.0000
    93 F3       5.6041  13.2315  10.3487   F         2 RES2   0.0000
    94 F4       3.4147  13.5597   9.9205   F         2 RES2   0.0000
    95 F5       4.9050  13.4241   8.2183   F         2 RES2   0.0000
    96 F6       4.1082  11.5611  10.6943   F         2 RES2   0.0000
    97 P2       4.5913   3.0268  13.2909   P.3       3 RES3  -1.0000
    98 F7       5.1408   1.5948  12.8411   F         3 RES3   0.0000
    99 F8       4.0363   4.4719  13.7575   F         3 RES3   0.0000
   100 F9       5.1264   3.6571  11.9337   F         3 RES3   0.0000
   101 F10      5.9570   3.3127  14.0218   F         3 RES3   0.0000
   102 F11      3.9732   2.3618  14.6014   F         3 RES3   0.0000
   103 F12      3.1902   2.7450  12.5352   F         3 RES3   0.0000
@<TRIPOS>BOND
     1     1     7    1
     2     2    35    1
     3     3    43    1
     4     4    51    1
     5     5    14    1
     6     6    14    1
     7     7    17   ar
     8     8    22    1
     9     9    23    1
    10    10    26   ar
    11    11    31    3
    12    12    39    3
    13    13    47    3
    14    14     1    1
    15    15     5    1
    16    16     6    1
    17    17     5    1
    18    18    17   ar
    19    19    18   ar
    20    20    19   ar
    21    21     7   ar
    22    22     6    1
    23    23     1    1
    24    24     8    1
    25    25     9    1
    26    26     9    1
    27    27    26   ar
    28    28    27   ar
    29    29    28   ar
    30    30    10   ar
    31    31     1    1
    32    32    11    1
    33    33    32   ar
    34    34    33   ar
    35    35    34   ar
    36    36    35   ar
    37    37    32   ar
    38    38     2    1
    39    39     1    1
    40    40    12    1
    41    41    40   ar
    42    42    41   ar
    43    43    42   ar
    44    44    43   ar
    45    45    40   ar
    46    46     3    1
    47    47     1    1
    48    48    13    1
    49    49    48   ar
    50    50    49   ar
    51    51    50   ar
    52    52    51   ar
    53    53    48   ar
    54    54     4    1
    55    55    15    1
    56    56    16    1
    57    57    18    1
    58    58    19    1
    59    59    20    1
    60    60    21    1
    61    61    22    1
    62    62    22    1
    63    63    24    1
    64    64    25    1
    65    65    27    1
    66    66    28    1
    67    67    29    1
    68    68    30    1
    69    69    33    1
    70    70    34    1
    71    71    36    1
    72    72    37    1
    73    73    38    1
    74    74    38    1
    75    75    38    1
    76    76    41    1
    77    77    42    1
    78    78    44    1
    79    79    45    1
    80    80    46    1
    81    81    46    1
    82    82    46    1
    83    83    49    1
    84    84    50    1
    85    85    52    1
    86    86    53    1
    87    87    54    1
    88    88    54    1
    89    89    54    1
    90     8    23    1
    91    15    16    2
    92    20    21   ar
    93    24    25    2
    94    29    30   ar
    95    36    37   ar
    96    44    45   ar
    97    52    53   ar
    98    90    91    1
    99    92    90    1
   100    93    90    1
   101    94    90    1
   102    95    90    1
   103    96    90    1
   104    97    98    1
   105    99    97    1
   106   100    97    1
   107   101    97    1
   108   102    97    1
   109   103    97    1
@<TRIPOS>SUBSTRUCTURE
     1 RES1        1 GROUP             0 ****  ****    0  
     2 RES2       90 GROUP             0 ****  ****    0  
     3 RES3       97 GROUP             0 ****  ****    0  
@<TRIPOS>CRYSIN
    8.0891   21.8620   24.9410   90.0000   96.7210   90.0000    14     1
