@<TRIPOS>MOLECULE
LUZVOU
    90    90     4     0     0
SMALL
USER_CHARGES
****
Generated from the CSD

@<TRIPOS>ATOM
     1 H1       8.2167   5.3442   3.4077   H         1 RES1   0.0000
     2 H2       9.2811   4.4515   4.0830   H         1 RES1   0.0000
     3 Fe1      7.1031   3.0016   3.7967   Fe        1 RES1   0.0000
     4 Cl1      9.4446   1.1240   7.8040   Cl        1 RES1   0.0000
     5 Cl2      4.8711  -1.4812   4.2361   Cl        1 RES1   0.0000
     6 O1       6.1670   1.2352   3.9778   O.3       1 RES1  -1.0000
     7 O2       8.1042   2.2369   5.3487   O.3       1 RES1   0.0000
     8 O3       8.0552  -1.4861   8.1973   O.2       1 RES1   0.0000
     9 O4       6.2074  -2.6125   6.6788   O.2       1 RES1   0.0000
    10 C1       6.5790   0.4824   4.9247   C.2       1 RES1   0.0000
    11 C2       7.6988   1.0848   5.7538   C.2       1 RES1   0.0000
    12 C3       8.1932   0.4216   6.8421   C.2       1 RES1   0.0000
    13 C4       7.6798  -0.8536   7.2221   C.2       1 RES1   0.0000
    14 C5       6.5949  -1.5033   6.3427   C.2       1 RES1   0.0000
    15 C6       6.1166  -0.7829   5.2042   C.2       1 RES1   0.0000
    16 Cl3      4.7071   5.0621  -0.0572   Cl        1 RES1   0.0000
    17 Cl4      9.9663   1.5117  -0.0400   Cl        1 RES1   0.0000
    18 O5       8.2582   2.3783   2.2912   O.3       1 RES1   0.0000
    19 O6       6.0594   3.7310   2.2598   O.3       1 RES1   0.0000
    20 O7       6.4532   4.3347  -2.3807   O.2       1 RES1   0.0000
    21 O8       8.5947   2.7426  -2.3728   O.2       1 RES1   0.0000
    22 C7       7.8711   2.7319   1.1165   C.2       1 RES1   0.0000
    23 C8       6.6001   3.5519   1.0993   C.2       1 RES1   0.0000
    24 C9       6.1247   4.0583  -0.0691   C.2       1 RES1   0.0000
    25 C10      6.7882   3.8481  -1.3065   C.2       1 RES1   0.0000
    26 C11      8.0537   2.9530  -1.2971   C.2       1 RES1   0.0000
    27 C12      8.5067   2.4360  -0.0455   C.2       1 RES1   0.0000
    28 O9       5.6648   3.9305   4.9231   O.3       1 RES1   0.0000
    29 O10      8.3434   4.6471   4.0202   O.3       1 RES1   0.0000
    30 H3       5.8410   3.8387   5.8543   H         1 RES1   0.0000
    31 H4       5.3992   4.8363   4.8367   H         1 RES1   0.0000
    32 N1       1.7887   2.5953   3.6747   N.4       2 RES2   1.0000
    33 C13      2.9822   2.0301   2.9068   C.3       2 RES2   0.0000
    34 H5       3.7338   2.6354   3.0131   H         2 RES2   0.0000
    35 H6       3.2325   1.1813   3.3041   H         2 RES2   0.0000
    36 C14      2.7341   1.8193   1.4212   C.3       2 RES2   0.0000
    37 H7       1.9017   1.3352   1.3017   H         2 RES2   0.0000
    38 H8       2.6434   2.6810   0.9858   H         2 RES2   0.0000
    39 C15      3.8398   1.0595   0.7789   C.3       2 RES2   0.0000
    40 H9       3.8729   0.1668   1.1577   H         2 RES2   0.0000
    41 H10      4.6817   1.4975   0.9749   H         2 RES2   0.0000
    42 C16      3.6750   0.9537  -0.7161   C.3       2 RES2   0.0000
    43 H11      4.4093   0.4566  -1.0844   H         2 RES2   0.0000
    44 H12      2.8514   0.5029  -0.9167   H         2 RES2   0.0000
    45 H13      3.6600   1.8335  -1.0994   H         2 RES2   0.0000
    46 C17      0.6118   1.6209   3.6386   C.3       2 RES2   0.0000
    47 H14     -0.1376   2.0313   4.0979   H         2 RES2   0.0000
    48 H15      0.3498   1.4944   2.7128   H         2 RES2   0.0000
    49 C18      0.8539   0.2724   4.2463   C.3       2 RES2   0.0000
    50 H16      1.0183   0.3668   5.1977   H         2 RES2   0.0000
    51 H17      1.6371  -0.1331   3.8421   H         2 RES2   0.0000
    52 C19     -0.3776  -0.6263   4.0154   C.3       2 RES2   0.0000
    53 H18     -1.1815  -0.1108   4.1834   H         2 RES2   0.0000
    54 H19     -0.3938  -0.9087   3.0878   H         2 RES2   0.0000
    55 C20     -0.3818  -1.7973   4.8650   C.3       2 RES2   0.0000
    56 H20     -1.1651  -2.3217   4.6837   H         2 RES2   0.0000
    57 H21      0.4025  -2.3229   4.6902   H         2 RES2   0.0000
    58 H22     -0.3852  -1.5250   5.7858   H         2 RES2   0.0000
    59 C21      2.2378   2.8108   5.1053   C.3       2 RES2   0.0000
    60 H23      3.0515   3.3383   5.0981   H         2 RES2   0.0000
    61 H24      2.4504   1.9488   5.4956   H         2 RES2   0.0000
    62 C22      1.2150   3.5063   5.9894   C.3       2 RES2   0.0000
    63 H25      0.9947   4.3704   5.6085   H         2 RES2   0.0000
    64 H26      0.4031   2.9763   6.0206   H         2 RES2   0.0000
    65 C23      1.7403   3.6956   7.3839   C.3       2 RES2   0.0000
    66 H27      1.9022   2.8242   7.7791   H         2 RES2   0.0000
    67 H28      2.5905   4.1606   7.3383   H         2 RES2   0.0000
    68 C24      0.8382   4.4453   8.2507   C.3       2 RES2   0.0000
    69 H29      1.2306   4.5315   9.1232   H         2 RES2   0.0000
    70 H30      0.6902   5.3186   7.8797   H         2 RES2   0.0000
    71 H31      0.0014   3.9812   8.3208   H         2 RES2   0.0000
    72 C25      1.3156   3.8933   3.0355   C.3       2 RES2   0.0000
    73 H32      1.0545   3.7066   2.1198   H         2 RES2   0.0000
    74 H33      0.5235   4.1963   3.5071   H         2 RES2   0.0000
    75 C26      2.3255   5.0230   3.0230   C.3       2 RES2   0.0000
    76 H34      3.1034   4.7489   2.5134   H         2 RES2   0.0000
    77 H35      2.6121   5.2035   3.9320   H         2 RES2   0.0000
    78 C27      1.7504   6.2970   2.4168   C.3       2 RES2   0.0000
    79 H36      2.4606   6.9534   2.3414   H         2 RES2   0.0000
    80 H37      1.4369   6.1002   1.5194   H         2 RES2   0.0000
    81 C28      0.6190   6.8972   3.2020   C.3       2 RES2   0.0000
    82 H38      0.3099   7.6927   2.7613   H         2 RES2   0.0000
    83 H39     -0.1007   6.2649   3.2616   H         2 RES2   0.0000
    84 H40      0.9242   7.1191   4.0846   H         2 RES2   0.0000
    85 O11      5.5397   6.5376   4.6938   O.3       3 RES3   0.0000
    86 H41      4.9286   7.0232   5.2136   H         3 RES3   0.0000
    87 H42      5.6332   7.0092   3.8788   H         3 RES3   0.0000
    88 O12      4.5932  -4.7893   6.1464   O.3       4 RES4   0.0000
    89 H43      4.2123  -4.9271   7.0039   H         4 RES4   0.0000
    90 H44      5.4021  -5.2844   6.2187   H         4 RES4   0.0000
@<TRIPOS>BOND
     1     1    29    1
     2     2    29    1
     3     3     6    1
     4     4    12    1
     5     5    15    1
     6     6    10    1
     7     7     3    1
     8     8    13    2
     9     9    14    2
    10    10    11    1
    11    11     7    1
    12    12    11    2
    13    13    12    1
    14    14    13    1
    15    15    10    2
    16    16    24    1
    17    17    27    1
    18    18     3    1
    19    19     3    1
    20    20    25    2
    21    21    26    2
    22    22    18    1
    23    23    19    1
    24    24    23    2
    25    25    24    1
    26    26    25    1
    27    27    22    2
    28    28     3    1
    29    29     3    1
    30    30    28    1
    31    31    28    1
    32    14    15    1
    33    22    23    1
    34    26    27    1
    35    32    33    1
    36    33    34    1
    37    35    33    1
    38    36    33    1
    39    37    36    1
    40    38    36    1
    41    39    36    1
    42    40    39    1
    43    41    39    1
    44    42    39    1
    45    43    42    1
    46    44    42    1
    47    45    42    1
    48    46    32    1
    49    47    46    1
    50    48    46    1
    51    49    46    1
    52    50    49    1
    53    51    49    1
    54    52    49    1
    55    53    52    1
    56    54    52    1
    57    55    52    1
    58    56    55    1
    59    57    55    1
    60    58    55    1
    61    59    32    1
    62    60    59    1
    63    61    59    1
    64    62    59    1
    65    63    62    1
    66    64    62    1
    67    65    62    1
    68    66    65    1
    69    67    65    1
    70    68    65    1
    71    69    68    1
    72    70    68    1
    73    71    68    1
    74    72    32    1
    75    73    72    1
    76    74    72    1
    77    75    72    1
    78    76    75    1
    79    77    75    1
    80    78    75    1
    81    79    78    1
    82    80    78    1
    83    81    78    1
    84    82    81    1
    85    83    81    1
    86    84    81    1
    87    85    86    1
    88    87    85    1
    89    88    89    1
    90    90    88    1
@<TRIPOS>SUBSTRUCTURE
     1 RES1        1 GROUP             0 ****  ****    0  
     2 RES2       32 GROUP             0 ****  ****    0  
     3 RES3       85 GROUP             0 ****  ****    0  
     4 RES4       88 GROUP             0 ****  ****    0  
@<TRIPOS>CRYSIN
   10.6942   11.5080   16.3692   76.8330   76.8940   72.7290     2     1
