@<TRIPOS>MOLECULE
LUZVOU01
    90    90     4     0     0
SMALL
USER_CHARGES
****
Generated from the CSD

@<TRIPOS>ATOM
     1 Fe1      7.4531   3.6691   3.9701   Fe        1 RES1   0.0000
     2 Cl1      9.9847   8.0133   3.5261   Cl        1 RES1   0.0000
     3 Cl2      5.2133   5.7371  -0.0468   Cl        1 RES1   0.0000
     4 O1       6.5030   4.5099   2.3985   O.3       1 RES1  -1.0000
     5 O2       8.4708   5.3928   3.8020   O.3       1 RES1   0.0000
     6 O3       8.6892   9.2572   1.1028   O.2       1 RES1   0.0000
     7 O4       6.6913   8.3499  -0.3376   O.2       1 RES1   0.0000
     8 C1       6.9552   5.6526   2.0208   C.2       1 RES1   0.0000
     9 C2       8.1044   6.1983   2.8696   C.2       1 RES1   0.0000
    10 C3       8.6670   7.4192   2.5706   C.2       1 RES1   0.0000
    11 C4       7.0539   7.6286   0.6093   C.2       1 RES1   0.0000
    12 C5       8.2180   8.1839   1.4742   C.2       1 RES1   0.0000
    13 C6       6.5024   6.3742   0.9404   C.2       1 RES1   0.0000
    14 Cl3      9.8606   1.3908   7.7075   Cl        1 RES1   0.0000
    15 Cl4      4.7510   5.1865   7.9149   Cl        1 RES1   0.0000
    16 O5       6.3944   4.3255   5.5125   O.3       1 RES1   0.0000
    17 O6       8.5008   2.8714   5.4835   O.3       1 RES1   0.0000
    18 O7       8.1307   2.0025  10.0684   O.2       1 RES1   0.0000
    19 O8       6.0451   3.6834  10.1858   O.2       1 RES1   0.0000
    20 C7       6.7717   3.8765   6.6780   C.2       1 RES1   0.0000
    21 C8       7.9864   3.0233   6.6426   C.2       1 RES1   0.0000
    22 C9       8.4613   2.3995   7.7888   C.2       1 RES1   0.0000
    23 C10      7.8145   2.5687   9.0122   C.2       1 RES1   0.0000
    24 C11      6.5526   3.5321   9.0974   C.2       1 RES1   0.0000
    25 C12      6.1123   4.1490   7.8805   C.2       1 RES1   0.0000
    26 O9       8.8273   2.6405   2.8599   O.3       1 RES1   0.0000
    27 H1       9.5960   2.9903   2.9615   H         1 RES1   0.0000
    28 H2       8.6527   2.7472   2.0354   H         1 RES1   0.0000
    29 O10      6.1316   2.1243   3.7570   O.3       1 RES1   0.0000
    30 H3       6.3171   1.6979   3.0445   H         1 RES1   0.0000
    31 H4       5.3517   2.4347   3.6212   H         1 RES1   0.0000
    32 N1      12.6696   3.8978   3.9354   N.4       2 RES2   1.0000
    33 C13     13.9289   4.7594   4.0849   C.3       2 RES2   0.0000
    34 H5      14.0563   4.9486   5.0276   H         2 RES2   0.0000
    35 H6      14.6909   4.2358   3.7899   H         2 RES2   0.0000
    36 C14     13.9417   6.0788   3.3310   C.3       2 RES2   0.0000
    37 H7      13.0468   6.4535   3.3152   H         2 RES2   0.0000
    38 H8      14.2223   5.9285   2.4148   H         2 RES2   0.0000
    39 C15     14.9104   7.0743   4.0158   C.3       2 RES2   0.0000
    40 H9      15.7358   6.6181   4.2439   H         2 RES2   0.0000
    41 H10     15.1244   7.7934   3.4012   H         2 RES2   0.0000
    42 C16     14.2843   7.6533   5.2778   C.3       2 RES2   0.0000
    43 H11     13.4853   8.1326   5.0479   H         2 RES2   0.0000
    44 H12     14.9067   8.2522   5.6981   H         2 RES2   0.0000
    45 H13     14.0677   6.9411   5.8837   H         2 RES2   0.0000
    46 C17     12.3337   3.7616   2.4484   C.3       2 RES2   0.0000
    47 H14     11.5063   3.2618   2.3655   H         2 RES2   0.0000
    48 H15     12.1763   4.6478   2.0867   H         2 RES2   0.0000
    49 C18     13.3915   3.0807   1.6092   C.3       2 RES2   0.0000
    50 H16     13.5638   2.1985   1.9727   H         2 RES2   0.0000
    51 H17     14.2152   3.5906   1.6654   H         2 RES2   0.0000
    52 C19     12.9879   2.9437   0.1286   C.3       2 RES2   0.0000
    53 H18     13.7751   2.7355  -0.3974   H         2 RES2   0.0000
    54 H19     12.6354   3.7913  -0.1843   H         2 RES2   0.0000
    55 C20     11.9097   1.8249  -0.0932   C.3       2 RES2   0.0000
    56 H20     11.7099   1.7547  -1.0293   H         2 RES2   0.0000
    57 H21     11.1105   2.0504   0.3887   H         2 RES2   0.0000
    58 H22     12.2494   0.9855   0.2256   H         2 RES2   0.0000
    59 C21     12.9347   2.5781   4.5736   C.3       2 RES2   0.0000
    60 H23     13.1622   2.7223   5.5046   H         2 RES2   0.0000
    61 H24     13.7034   2.1724   4.1421   H         2 RES2   0.0000
    62 C22     11.7759   1.6140   4.5013   C.3       2 RES2   0.0000
    63 H25     11.5279   1.4734   3.5743   H         2 RES2   0.0000
    64 H26     11.0112   1.9918   4.9638   H         2 RES2   0.0000
    65 C23     12.1540   0.2629   5.1459   C.3       2 RES2   0.0000
    66 H27     12.5730   0.4365   6.0041   H         2 RES2   0.0000
    67 H28     11.3412  -0.2383   5.3136   H         2 RES2   0.0000
    68 C24     13.0819  -0.5874   4.3245   C.3       2 RES2   0.0000
    69 H29     12.6780  -0.7694   3.4726   H         2 RES2   0.0000
    70 H30     13.2472  -1.4148   4.7829   H         2 RES2   0.0000
    71 H31     13.9108  -0.1227   4.1933   H         2 RES2   0.0000
    72 C25     11.4887   4.5907   4.6154   C.3       2 RES2   0.0000
    73 H32     11.4272   5.4941   4.2665   H         2 RES2   0.0000
    74 H33     10.6772   4.1261   4.3585   H         2 RES2   0.0000
    75 C26     11.5301   4.6715   6.1362   C.3       2 RES2   0.0000
    76 H34     11.3356   3.7969   6.5091   H         2 RES2   0.0000
    77 H35     12.4210   4.9267   6.4207   H         2 RES2   0.0000
    78 C27     10.5237   5.6789   6.6667   C.3       2 RES2   0.0000
    79 H36      9.6532   5.4870   6.2838   H         2 RES2   0.0000
    80 H37     10.7846   6.5673   6.3768   H         2 RES2   0.0000
    81 C28     10.4076   5.6693   8.1988   C.3       2 RES2   0.0000
    82 H38      9.7800   6.3409   8.4757   H         2 RES2   0.0000
    83 H39     11.2659   5.8535   8.5853   H         2 RES2   0.0000
    84 H40     10.1027   4.8069   8.4901   H         2 RES2   0.0000
    85 O11      8.7788   0.0785   3.5046   O.3       3 RES3   0.0000
    86 H41      8.5574   0.2624   4.3042   H         3 RES3   0.0000
    87 H42      8.0866  -0.1399   3.0622   H         3 RES3   0.0000
    88 O12      6.4644   0.3687   1.7748   O.3       4 RES4   0.0000
    89 H43      5.6861   0.0551   1.6430   H         4 RES4   0.0000
    90 H44      6.5650   0.9526   1.1648   H         4 RES4   0.0000
@<TRIPOS>BOND
     1     1     4    1
     2     2    10    1
     3     3    13    1
     4     4     8    1
     5     5     1    1
     6     6    12    2
     7     7    11    2
     8     8     9    1
     9     9     5    1
    10    10     9    2
    11    11    12    1
    12    12    10    1
    13    13     8    2
    14    14    22    1
    15    15    25    1
    16    16     1    1
    17    17     1    1
    18    18    23    2
    19    19    24    2
    20    20    16    1
    21    21    17    1
    22    22    21    2
    23    23    22    1
    24    24    23    1
    25    25    20    2
    26    26     1    1
    27    27    26    1
    28    28    26    1
    29    29     1    1
    30    30    29    1
    31    31    29    1
    32    11    13    1
    33    20    21    1
    34    24    25    1
    35    32    33    1
    36    33    34    1
    37    35    33    1
    38    36    33    1
    39    37    36    1
    40    38    36    1
    41    39    36    1
    42    40    39    1
    43    41    39    1
    44    42    39    1
    45    43    42    1
    46    44    42    1
    47    45    42    1
    48    46    32    1
    49    47    46    1
    50    48    46    1
    51    49    46    1
    52    50    49    1
    53    51    49    1
    54    52    49    1
    55    53    52    1
    56    54    52    1
    57    55    52    1
    58    56    55    1
    59    57    55    1
    60    58    55    1
    61    59    32    1
    62    60    59    1
    63    61    59    1
    64    62    59    1
    65    63    62    1
    66    64    62    1
    67    65    62    1
    68    66    65    1
    69    67    65    1
    70    68    65    1
    71    69    68    1
    72    70    68    1
    73    71    68    1
    74    72    32    1
    75    73    72    1
    76    74    72    1
    77    75    72    1
    78    76    75    1
    79    77    75    1
    80    78    75    1
    81    79    78    1
    82    80    78    1
    83    81    78    1
    84    82    81    1
    85    83    81    1
    86    84    81    1
    87    85    86    1
    88    87    85    1
    89    88    89    1
    90    90    88    1
@<TRIPOS>SUBSTRUCTURE
     1 RES1        1 GROUP             0 ****  ****    0  
     2 RES2       32 GROUP             0 ****  ****    0  
     3 RES3       85 GROUP             0 ****  ****    0  
     4 RES4       88 GROUP             0 ****  ****    0  
@<TRIPOS>CRYSIN
   10.4469   11.4073   16.6390   75.8110   80.3560   67.6200     2     1
