@<TRIPOS>MOLECULE
LUZZOV
   134   140     3     0     0
SMALL
USER_CHARGES
****
Generated from the CSD

@<TRIPOS>ATOM
     1 Fe1      1.7588  16.3083  -3.3515   Fe        1 RES1   2.0000
     2 N1       3.2610  16.4441  -2.0846   N.ar      1 RES1   0.0000
     3 N2       4.6449  15.0780   0.9827   N.am      1 RES1   0.0000
     4 H1       4.2380  14.3208   0.9371   H         1 RES1   0.0000
     5 N3       2.8103  17.6774  -4.2806   N.ar      1 RES1   0.0000
     6 N4       3.1080  19.4597  -7.4444   N.am      1 RES1   0.0000
     7 H2       2.6912  18.8818  -7.9257   H         1 RES1   0.0000
     8 N5       0.8264  14.8312  -2.4801   N.ar      1 RES1   0.0000
     9 N6      -1.9638  14.0891  -0.2534   N.am      1 RES1   0.0000
    10 H3      -1.9723  14.8713   0.1046   H         1 RES1   0.0000
    11 O1       5.9719  16.3210   2.3085   O.2       1 RES1   0.0000
    12 O2       5.2408  14.3188   2.9547   O.3       1 RES1   0.0000
    13 O3       2.9464  20.6130  -9.2717   O.3       1 RES1   0.0000
    14 O4       3.9667  21.5571  -7.5128   O.2       1 RES1   0.0000
    15 O5      -3.0738  12.1162  -0.2628   O.2       1 RES1   0.0000
    16 O6      -3.7782  13.8502   0.9773   O.3       1 RES1   0.0000
    17 C1       3.4482  15.7107  -0.9827   C.ar      1 RES1   0.0000
    18 H4       2.8366  15.0357  -0.7896   H         1 RES1   0.0000
    19 C2       4.5207  15.9125  -0.1019   C.ar      1 RES1   0.0000
    20 C3       5.4208  16.9388  -0.3901   C.ar      1 RES1   0.0000
    21 H5       6.1325  17.1157   0.1810   H         1 RES1   0.0000
    22 C4       5.2440  17.6786  -1.5189   C.ar      1 RES1   0.0000
    23 H6       5.8427  18.3587  -1.7227   H         1 RES1   0.0000
    24 C5       4.1641  17.4245  -2.3715   C.ar      1 RES1   0.0000
    25 C6       3.9349  18.1195  -3.6330   C.ar      1 RES1   0.0000
    26 C7       4.7880  19.0561  -4.1733   C.ar      1 RES1   0.0000
    27 H7       5.5323  19.3426  -3.6961   H         1 RES1   0.0000
    28 C8       4.5295  19.5643  -5.4214   C.ar      1 RES1   0.0000
    29 H8       5.0887  20.2095  -5.7928   H         1 RES1   0.0000
    30 C9       3.4223  19.0985  -6.1266   C.ar      1 RES1   0.0000
    31 C10      2.5803  18.1893  -5.5193   C.ar      1 RES1   0.0000
    32 H9       1.8187  17.9128  -5.9778   H         1 RES1   0.0000
    33 C11      5.3471  15.3321   2.1249   C.2       1 RES1   0.0000
    34 C12      5.7380  14.5051   4.2832   C.3       1 RES1   0.0000
    35 H10      5.0491  14.9111   4.8316   H         1 RES1   0.0000
    36 H11      6.4981  15.1079   4.2618   H         1 RES1   0.0000
    37 C13      6.1356  13.2471   4.8610   C.3       1 RES1   0.0000
    38 H12      6.4521  13.3941   5.7552   H         1 RES1   0.0000
    39 H13      6.8350  12.8585   4.3315   H         1 RES1   0.0000
    40 H14      5.3817  12.6543   4.8812   H         1 RES1   0.0000
    41 C14      3.4111  20.6330  -8.0115   C.2       1 RES1   0.0000
    42 C15      3.0528  21.8311 -10.0452   C.3       1 RES1   0.0000
    43 H15      3.6482  22.4489  -9.5907   H         1 RES1   0.0000
    44 H16      3.4377  21.6294 -10.9126   H         1 RES1   0.0000
    45 C16      1.7933  22.4389 -10.2208   C.3       1 RES1   0.0000
    46 H17      1.8925  23.2385 -10.7410   H         1 RES1   0.0000
    47 H18      1.4226  22.6606  -9.3628   H         1 RES1   0.0000
    48 H19      1.2060  21.8311 -10.6766   H         1 RES1   0.0000
    49 C17     -0.2002  14.9186  -1.6128   C.ar      1 RES1   0.0000
    50 H20     -0.4367  15.7630  -1.3031   H         1 RES1   0.0000
    51 C18     -0.9273  13.8251  -1.1502   C.ar      1 RES1   0.0000
    52 C19     -0.5672  12.5771  -1.6074   C.ar      1 RES1   0.0000
    53 H21     -1.0394  11.8223  -1.3419   H         1 RES1   0.0000
    54 C20      0.5068  12.4675  -2.4667   C.ar      1 RES1   0.0000
    55 H22      0.7654  11.6255  -2.7657   H         1 RES1   0.0000
    56 C21      1.2032  13.5859  -2.8917   C.ar      1 RES1   0.0000
    57 C22     -2.9551  13.2446   0.1099   C.2       1 RES1   0.0000
    58 C23     -5.0201  13.1276   1.3460   C.3       1 RES1   0.0000
    59 H23     -4.8241  12.1860   1.4693   H         1 RES1   0.0000
    60 H24     -5.3636  13.4763   2.1839   H         1 RES1   0.0000
    61 C24     -6.0327  13.2870   0.2949   C.3       1 RES1   0.0000
    62 H25     -6.8278  12.8087   0.5416   H         1 RES1   0.0000
    63 H26     -5.6930  12.9358  -0.5322   H         1 RES1   0.0000
    64 H27     -6.2365  14.2186   0.1863   H         1 RES1   0.0000
    65 N1F      0.2567  16.4441  -4.6184   N.ar      1 RES1   0.0000
    66 C1F      0.0695  15.7107  -5.7204   C.ar      1 RES1   0.0000
    67 H4F      0.6811  15.0357  -5.9134   H         1 RES1   0.0000
    68 C2F     -1.0030  15.9125  -6.6012   C.ar      1 RES1   0.0000
    69 N2F     -1.1272  15.0780  -7.6857   N.am      1 RES1   0.0000
    70 H1F     -0.7203  14.3208  -7.6401   H         1 RES1   0.0000
    71 C11F    -1.8295  15.3321  -8.8279   C.2       1 RES1   0.0000
    72 O1F     -2.4542  16.3210  -9.0116   O.2       1 RES1   0.0000
    73 O2F     -1.7231  14.3188  -9.6577   O.3       1 RES1   0.0000
    74 C12F    -2.2203  14.5051 -10.9863   C.3       1 RES1   0.0000
    75 H10F    -1.5314  14.9111 -11.5346   H         1 RES1   0.0000
    76 H11F    -2.9804  15.1079 -10.9648   H         1 RES1   0.0000
    77 C13F    -2.6179  13.2471 -11.5641   C.3       1 RES1   0.0000
    78 H12F    -2.9345  13.3941 -12.4583   H         1 RES1   0.0000
    79 H13F    -3.3174  12.8585 -11.0346   H         1 RES1   0.0000
    80 H14F    -1.8640  12.6543 -11.5842   H         1 RES1   0.0000
    81 C3F     -1.9031  16.9388  -6.3129   C.ar      1 RES1   0.0000
    82 H5F     -2.6148  17.1157  -6.8840   H         1 RES1   0.0000
    83 C4F     -1.7263  17.6786  -5.1841   C.ar      1 RES1   0.0000
    84 H6F     -2.3250  18.3587  -4.9804   H         1 RES1   0.0000
    85 C5F     -0.6464  17.4245  -4.3315   C.ar      1 RES1   0.0000
    86 C6F     -0.4173  18.1195  -3.0700   C.ar      1 RES1   0.0000
    87 N3F      0.7073  17.6774  -2.4225   N.ar      1 RES1   0.0000
    88 C21F     2.3145  13.5859  -3.8114   C.ar      1 RES1   0.0000
    89 N5F      2.6913  14.8312  -4.2229   N.ar      1 RES1   0.0000
    90 C17F     3.7179  14.9186  -5.0903   C.ar      1 RES1   0.0000
    91 H20F     3.9543  15.7630  -5.4000   H         1 RES1   0.0000
    92 C18F     4.4450  13.8251  -5.5528   C.ar      1 RES1   0.0000
    93 N6F      5.4815  14.0891  -6.4497   N.am      1 RES1   0.0000
    94 H3F      5.4900  14.8713  -6.8076   H         1 RES1   0.0000
    95 C22F     6.4728  13.2446  -6.8130   C.2       1 RES1   0.0000
    96 O5F      6.5915  12.1162  -6.4403   O.2       1 RES1   0.0000
    97 O6F      7.2959  13.8502  -7.6803   O.3       1 RES1   0.0000
    98 C23F     8.5378  13.1276  -8.0490   C.3       1 RES1   0.0000
    99 H23F     8.3418  12.1860  -8.1724   H         1 RES1   0.0000
   100 H24F     8.8813  13.4763  -8.8869   H         1 RES1   0.0000
   101 C24F     9.5504  13.2870  -6.9980   C.3       1 RES1   0.0000
   102 H25F    10.3455  12.8087  -7.2446   H         1 RES1   0.0000
   103 H26F     9.2107  12.9358  -6.1708   H         1 RES1   0.0000
   104 H27F     9.7542  14.2186  -6.8894   H         1 RES1   0.0000
   105 C19F     4.0849  12.5771  -5.0957   C.ar      1 RES1   0.0000
   106 H21F     4.5571  11.8223  -5.3611   H         1 RES1   0.0000
   107 C20F     3.0109  12.4675  -4.2363   C.ar      1 RES1   0.0000
   108 H22F     2.7523  11.6255  -3.9374   H         1 RES1   0.0000
   109 C10F     0.9374  18.1893  -1.1838   C.ar      1 RES1   0.0000
   110 C9F      0.0954  19.0985  -0.5765   C.ar      1 RES1   0.0000
   111 N4F      0.4097  19.4597   0.7414   N.am      1 RES1   0.0000
   112 H2F      0.8265  18.8818   1.2226   H         1 RES1   0.0000
   113 C14F     0.1066  20.6330   1.3084   C.2       1 RES1   0.0000
   114 O3F      0.5713  20.6130   2.5686   O.3       1 RES1   0.0000
   115 C15F     0.4649  21.8311   3.3421   C.3       1 RES1   0.0000
   116 H15F    -0.1305  22.4489   2.8877   H         1 RES1   0.0000
   117 H16F     0.0800  21.6294   4.2095   H         1 RES1   0.0000
   118 C16F     1.7243  22.4389   3.5178   C.3       1 RES1   0.0000
   119 H17F     1.6252  23.2385   4.0379   H         1 RES1   0.0000
   120 H18F     2.0951  22.6606   2.6598   H         1 RES1   0.0000
   121 H19F     2.3116  21.8311   3.9736   H         1 RES1   0.0000
   122 O4F     -0.4490  21.5571   0.8097   O.2       1 RES1   0.0000
   123 C8F     -1.0119  19.5643  -1.2816   C.ar      1 RES1   0.0000
   124 C7F     -1.2703  19.0561  -2.5297   C.ar      1 RES1   0.0000
   125 H7F     -2.0146  19.3426  -3.0070   H         1 RES1   0.0000
   126 H8F     -1.5710  20.2095  -0.9103   H         1 RES1   0.0000
   127 H9F      1.6990  17.9128  -0.7253   H         1 RES1   0.0000
   128 N7       2.0414  16.1915  -8.9177   N.pl3     2 RES2   0.0000
   129 O7       1.7324  17.3299  -8.7622   O.3       2 RES2  -1.0000
   130 O8       2.9353  15.7307  -8.3627   O.2       2 RES2   0.0000
   131 O9       1.3582  15.5065  -9.6805   O.2       2 RES2   0.0000
   132 O10      5.2433  16.6822 -12.6232   O.3       3 RES3   0.0000
   133 C25      4.3627  17.2352 -11.6499   C.3       3 RES3   0.0000
   134 C26      3.1560  17.4993 -12.3524   C.3       3 RES3   0.0000
@<TRIPOS>BOND
     1     1     2    1
     2     2    17   ar
     3     3     4    1
     4     5     1    1
     5     6     7    1
     6     8     1    1
     7     9    10    1
     8    11    33    2
     9    12    33    1
    10    13    41    1
    11    14    41    2
    12    15    57    2
    13    16    57    1
    14    17    18    1
    15    19     3    1
    16    20    19   ar
    17    21    20    1
    18    22    20   ar
    19    23    22    1
    20    24     2   ar
    21    25     5   ar
    22    26    25   ar
    23    27    26    1
    24    28    26   ar
    25    29    28    1
    26    30     6    1
    27    31     5   ar
    28    32    31    1
    29    33     3   am
    30    34    12    1
    31    35    34    1
    32    36    34    1
    33    37    34    1
    34    38    37    1
    35    39    37    1
    36    40    37    1
    37    41     6   am
    38    42    13    1
    39    43    42    1
    40    44    42    1
    41    45    42    1
    42    46    45    1
    43    47    45    1
    44    48    45    1
    45    49     8   ar
    46    50    49    1
    47    51     9    1
    48    52    51   ar
    49    53    52    1
    50    54    52   ar
    51    55    54    1
    52    56     8   ar
    53    57     9   am
    54    58    16    1
    55    59    58    1
    56    60    58    1
    57    61    58    1
    58    62    61    1
    59    63    61    1
    60    64    61    1
    61    65     1    1
    62    66    65   ar
    63    67    66    1
    64    68    66   ar
    65    69    68    1
    66    70    69    1
    67    71    69   am
    68    72    71    2
    69    73    71    1
    70    74    73    1
    71    75    74    1
    72    76    74    1
    73    77    74    1
    74    78    77    1
    75    79    77    1
    76    80    77    1
    77    81    68   ar
    78    82    81    1
    79    83    81   ar
    80    84    83    1
    81    85    65   ar
    82    86    85    1
    83    87     1    1
    84    88    56    1
    85    89     1    1
    86    90    89   ar
    87    91    90    1
    88    92    90   ar
    89    93    92    1
    90    94    93    1
    91    95    93   am
    92    96    95    2
    93    97    95    1
    94    98    97    1
    95    99    98    1
    96   100    98    1
    97   101    98    1
    98   102   101    1
    99   103   101    1
   100   104   101    1
   101   105    92   ar
   102   106   105    1
   103   107    88   ar
   104   108   107    1
   105   109    87   ar
   106   110   109   ar
   107   111   110    1
   108   112   111    1
   109   113   111   am
   110   114   113    1
   111   115   114    1
   112   116   115    1
   113   117   115    1
   114   118   115    1
   115   119   118    1
   116   120   118    1
   117   121   118    1
   118   122   113    2
   119   123   110   ar
   120   124    86   ar
   121   125   124    1
   122   126   123    1
   123   127   109    1
   124    17    19   ar
   125    22    24   ar
   126    24    25    1
   127    28    30   ar
   128    30    31   ar
   129    49    51   ar
   130    54    56   ar
   131    83    85   ar
   132    86    87   ar
   133    88    89   ar
   134   105   107   ar
   135   123   124   ar
   136   128   129    1
   137   130   128    2
   138   131   128    2
   139   132   133    1
   140   133   134    1
@<TRIPOS>SUBSTRUCTURE
     1 RES1        1 GROUP             0 ****  ****    0  
     2 RES2      128 GROUP             0 ****  ****    0  
     3 RES3      132 GROUP             0 ****  ****    0  
@<TRIPOS>CRYSIN
   18.4900   24.9100   15.1400   90.0000  117.6900   90.0000    15     1
