@<TRIPOS>MOLECULE
LUZZIP
   133   139     3     0     0
SMALL
USER_CHARGES
****
Generated from the CSD

@<TRIPOS>ATOM
     1 Fe1      7.5354   8.6782   3.2767   Fe        1 RES1   2.0000
     2 N1       8.4578  10.1599   2.3815   N.ar      1 RES1   0.0000
     3 N2      11.2308  10.9251   0.1599   N.am      1 RES1   0.0000
     4 H1      11.2460  10.1504  -0.2372   H         1 RES1   0.0000
     5 N3       6.4965   7.3029   4.2256   N.ar      1 RES1   0.0000
     6 N4       6.2906   5.4458   7.3516   N.am      1 RES1   0.0000
     7 H2       6.7247   6.0231   7.8366   H         1 RES1   0.0000
     8 N5       9.0394   8.5590   4.5127   N.ar      1 RES1   0.0000
     9 N6      10.4618   9.9713   7.5561   N.am      1 RES1   0.0000
    10 H3      10.0383  10.7302   7.5220   H         1 RES1   0.0000
    11 O1      12.3091  12.9191   0.2451   O.2       1 RES1   0.0000
    12 O2      13.0545  11.2161  -1.0145   O.3       1 RES1   0.0000
    13 O3       5.4281   3.3507   7.3739   O.2       1 RES1   0.0000
    14 O4       6.4784   4.2558   9.1590   O.3       1 RES1   0.0000
    15 O5      11.8283   8.7284   8.8510   O.2       1 RES1   0.0000
    16 O6      11.0880  10.7529   9.5011   O.3       1 RES1   0.0000
    17 C1       9.4805  10.0772   1.5138   C.ar      1 RES1   0.0000
    18 H4       9.7271   9.2276   1.1940   H         1 RES1   0.0000
    19 C2      10.1890  11.1740   1.0682   C.ar      1 RES1   0.0000
    20 C3       9.8317  12.4270   1.5165   C.ar      1 RES1   0.0000
    21 H5      10.2976  13.1909   1.2294   H         1 RES1   0.0000
    22 C4       8.7716  12.5329   2.3959   C.ar      1 RES1   0.0000
    23 H6       8.5109  13.3800   2.7144   H         1 RES1   0.0000
    24 C5       8.0916  11.3958   2.8114   C.ar      1 RES1   0.0000
    25 C6      12.2019  11.7967  -0.1402   C.2       1 RES1   0.0000
    26 C7      14.2541  11.9681  -1.3461   C.3       1 RES1   0.0000
    27 H7      14.0367  12.9186  -1.4326   H         1 RES1   0.0000
    28 H8      14.6172  11.6555  -2.2019   H         1 RES1   0.0000
    29 C8      15.2731  11.7740  -0.2608   C.3       1 RES1   0.0000
    30 H9      16.0773  12.2682  -0.4810   H         1 RES1   0.0000
    31 H10     15.4846  10.8311  -0.1809   H         1 RES1   0.0000
    32 H11     14.9137  12.0967   0.5806   H         1 RES1   0.0000
    33 C9       6.7727   6.7770   5.4302   C.ar      1 RES1   0.0000
    34 H12      7.5564   7.0493   5.8745   H         1 RES1   0.0000
    35 C10      5.9402   5.8341   6.0514   C.ar      1 RES1   0.0000
    36 C11      4.8125   5.3954   5.3764   C.ar      1 RES1   0.0000
    37 H13      4.2401   4.7525   5.7552   H         1 RES1   0.0000
    38 C12      4.5556   5.9299   4.1273   C.ar      1 RES1   0.0000
    39 H14      3.8111   5.6324   3.6358   H         1 RES1   0.0000
    40 C13      5.3774   6.8904   3.6018   C.ar      1 RES1   0.0000
    41 C14      6.0141   4.2633   7.9113   C.2       1 RES1   0.0000
    42 C15      6.4001   2.9901   9.8996   C.3       1 RES1   0.0000
    43 H15      6.1770   3.1666  10.8380   H         1 RES1   0.0000
    44 H16      5.6990   2.4229   9.5169   H         1 RES1   0.0000
    45 C16      7.6964   2.3119   9.8131   C.3       1 RES1   0.0000
    46 H17      7.6590   1.4799  10.3138   H         1 RES1   0.0000
    47 H18      8.3862   2.8817  10.1853   H         1 RES1   0.0000
    48 H19      7.8992   2.1203   8.8851   H         1 RES1   0.0000
    49 C17      9.2514   9.3057   5.6058   C.ar      1 RES1   0.0000
    50 H20      8.6414   9.9915   5.8037   H         1 RES1   0.0000
    51 C18     10.3311   9.1141   6.4630   C.ar      1 RES1   0.0000
    52 C19     11.2287   8.1057   6.1799   C.ar      1 RES1   0.0000
    53 H21     11.9643   7.9418   6.7421   H         1 RES1   0.0000
    54 C20     11.0194   7.3493   5.0566   C.ar      1 RES1   0.0000
    55 H22     11.6160   6.6509   4.8561   H         1 RES1   0.0000
    56 C21      9.9514   7.5838   4.2125   C.ar      1 RES1   0.0000
    57 C22     11.1928   9.7217   8.6557   C.2       1 RES1   0.0000
    58 C23     11.6233  10.5109  10.8328   C.3       1 RES1   0.0000
    59 H23     12.3743   9.8831  10.7869   H         1 RES1   0.0000
    60 H24     10.9320  10.1226  11.4095   H         1 RES1   0.0000
    61 C24     12.0730  11.8017  11.3767   C.3       1 RES1   0.0000
    62 H25     12.4369  11.6681  12.2654   H         1 RES1   0.0000
    63 H26     11.3195  12.4119  11.4239   H         1 RES1   0.0000
    64 H27     12.7570  12.1749  10.8000   H         1 RES1   0.0000
    65 C5F      6.9792  11.3958   3.7420   C.ar      1 RES1   0.0000
    66 N1F      6.6129  10.1599   4.1719   N.ar      1 RES1   0.0000
    67 C21F     5.1193   7.5838   2.3409   C.ar      1 RES1   0.0000
    68 N5F      6.0313   8.5590   2.0407   N.ar      1 RES1   0.0000
    69 N3F      8.5742   7.3029   2.3278   N.ar      1 RES1   0.0000
    70 C9F      8.2980   6.7770   1.1233   C.ar      1 RES1   0.0000
    71 H12F     7.5144   7.0493   0.6789   H         1 RES1   0.0000
    72 C10F     9.1306   5.8341   0.5020   C.ar      1 RES1   0.0000
    73 N4F      8.7802   5.4458  -0.7982   N.am      1 RES1   0.0000
    74 H2F      8.3461   6.0231  -1.2832   H         1 RES1   0.0000
    75 C14F     9.0566   4.2633  -1.3579   C.2       1 RES1   0.0000
    76 O3F      9.6426   3.3507  -0.8205   O.2       1 RES1   0.0000
    77 O4F      8.5923   4.2558  -2.6056   O.3       1 RES1   0.0000
    78 C15F     8.6706   2.9901  -3.3462   C.3       1 RES1   0.0000
    79 H15F     8.8937   3.1666  -4.2846   H         1 RES1   0.0000
    80 H16F     9.3717   2.4229  -2.9635   H         1 RES1   0.0000
    81 C16F     7.3744   2.3119  -3.2597   C.3       1 RES1   0.0000
    82 H17F     7.4117   1.4799  -3.7603   H         1 RES1   0.0000
    83 H18F     6.6845   2.8817  -3.6319   H         1 RES1   0.0000
    84 H19F     7.1715   2.1203  -2.3317   H         1 RES1   0.0000
    85 C11F    10.2583   5.3954   1.1770   C.ar      1 RES1   0.0000
    86 H13F    10.8307   4.7525   0.7982   H         1 RES1   0.0000
    87 C12F    10.5151   5.9299   2.4261   C.ar      1 RES1   0.0000
    88 H14F    11.2596   5.6324   2.9176   H         1 RES1   0.0000
    89 C13F     9.6933   6.8904   2.9517   C.ar      1 RES1   0.0000
    90 C17F     5.8193   9.3057   0.9476   C.ar      1 RES1   0.0000
    91 H20F     6.4293   9.9915   0.7497   H         1 RES1   0.0000
    92 C18F     4.7397   9.1141   0.0904   C.ar      1 RES1   0.0000
    93 N6F      4.6089   9.9713  -1.0027   N.am      1 RES1   0.0000
    94 H3F      5.0325  10.7302  -0.9686   H         1 RES1   0.0000
    95 C22F     3.8780   9.7217  -2.1023   C.2       1 RES1   0.0000
    96 O5F      3.2424   8.7284  -2.2976   O.2       1 RES1   0.0000
    97 O6F      3.9828  10.7529  -2.9477   O.3       1 RES1   0.0000
    98 C23F     3.4474  10.5109  -4.2794   C.3       1 RES1   0.0000
    99 H23F     2.6964   9.8831  -4.2335   H         1 RES1   0.0000
   100 H24F     4.1388  10.1226  -4.8561   H         1 RES1   0.0000
   101 C24F     2.9977  11.8017  -4.8233   C.3       1 RES1   0.0000
   102 H25F     2.6339  11.6681  -5.7120   H         1 RES1   0.0000
   103 H26F     3.7512  12.4119  -4.8705   H         1 RES1   0.0000
   104 H27F     2.3137  12.1749  -4.2466   H         1 RES1   0.0000
   105 C19F     3.8420   8.1057   0.3735   C.ar      1 RES1   0.0000
   106 H21F     3.1064   7.9418  -0.1887   H         1 RES1   0.0000
   107 C20F     4.0513   7.3493   1.4968   C.ar      1 RES1   0.0000
   108 H22F     3.4548   6.6509   1.6973   H         1 RES1   0.0000
   109 C1F      5.5902  10.0772   5.0396   C.ar      1 RES1   0.0000
   110 H4F      5.3437   9.2276   5.3594   H         1 RES1   0.0000
   111 C2F      4.8817  11.1740   5.4852   C.ar      1 RES1   0.0000
   112 N2F      3.8399  10.9251   6.3935   N.am      1 RES1   0.0000
   113 H1F      3.8247  10.1504   6.7906   H         1 RES1   0.0000
   114 C6F      2.8688  11.7967   6.6937   C.2       1 RES1   0.0000
   115 O1F      2.7616  12.9191   6.3083   O.2       1 RES1   0.0000
   116 O2F      2.0163  11.2161   7.5679   O.3       1 RES1   0.0000
   117 C7F      0.8167  11.9681   7.8995   C.3       1 RES1   0.0000
   118 H7F      1.0340  12.9186   7.9860   H         1 RES1   0.0000
   119 H8F      0.4535  11.6555   8.7554   H         1 RES1   0.0000
   120 C8F     -0.2023  11.7740   6.8142   C.3       1 RES1   0.0000
   121 H9F     -1.0066  12.2682   7.0344   H         1 RES1   0.0000
   122 H10F    -0.4139  10.8311   6.7343   H         1 RES1   0.0000
   123 H11F     0.1570  12.0967   5.9728   H         1 RES1   0.0000
   124 C3F      5.2390  12.4270   5.0370   C.ar      1 RES1   0.0000
   125 H5F      4.7731  13.1909   5.3240   H         1 RES1   0.0000
   126 C4F      6.2992  12.5329   4.1575   C.ar      1 RES1   0.0000
   127 H6F      6.5598  13.3800   3.8390   H         1 RES1   0.0000
   128 Cl1      7.1546   8.7239   9.1711   Cl        2 RES2   0.0000
   129 O7       7.7865   7.6972   8.4998   O.3       2 RES2  -1.0000
   130 O8       5.9018   8.4561   9.5103   O.2       2 RES2   0.0000
   131 O9       7.9338   9.0587  10.2535   O.2       2 RES2   0.0000
   132 O10      7.0369   9.7394   8.3359   O.2       2 RES2   0.0000
   133 O11      4.4979   8.3250  12.2221   O.3       3 RES3   0.0000
@<TRIPOS>BOND
     1     1     2    1
     2     2    17   ar
     3     3     4    1
     4     5     1    1
     5     6     7    1
     6     8     1    1
     7     9    10    1
     8    11    25    2
     9    12    25    1
    10    13    41    2
    11    14    41    1
    12    15    57    2
    13    16    57    1
    14    17    18    1
    15    19     3    1
    16    20    19   ar
    17    21    20    1
    18    22    20   ar
    19    23    22    1
    20    24     2   ar
    21    25     3   am
    22    26    12    1
    23    27    26    1
    24    28    26    1
    25    29    26    1
    26    30    29    1
    27    31    29    1
    28    32    29    1
    29    33     5   ar
    30    34    33    1
    31    35     6    1
    32    36    35   ar
    33    37    36    1
    34    38    36   ar
    35    39    38    1
    36    40     5   ar
    37    41     6   am
    38    42    14    1
    39    43    42    1
    40    44    42    1
    41    45    42    1
    42    46    45    1
    43    47    45    1
    44    48    45    1
    45    49     8   ar
    46    50    49    1
    47    51     9    1
    48    52    51   ar
    49    53    52    1
    50    54    52   ar
    51    55    54    1
    52    56     8   ar
    53    57     9   am
    54    58    16    1
    55    59    58    1
    56    60    58    1
    57    61    58    1
    58    62    61    1
    59    63    61    1
    60    64    61    1
    61    65    24    1
    62    66     1    1
    63    67    40    1
    64    68     1    1
    65    69     1    1
    66    70    69   ar
    67    71    70    1
    68    72    70   ar
    69    73    72    1
    70    74    73    1
    71    75    73   am
    72    76    75    2
    73    77    75    1
    74    78    77    1
    75    79    78    1
    76    80    78    1
    77    81    78    1
    78    82    81    1
    79    83    81    1
    80    84    81    1
    81    85    72   ar
    82    86    85    1
    83    87    85   ar
    84    88    87    1
    85    89    56    1
    86    90    68   ar
    87    91    90    1
    88    92    90   ar
    89    93    92    1
    90    94    93    1
    91    95    93   am
    92    96    95    2
    93    97    95    1
    94    98    97    1
    95    99    98    1
    96   100    98    1
    97   101    98    1
    98   102   101    1
    99   103   101    1
   100   104   101    1
   101   105    92   ar
   102   106   105    1
   103   107    67   ar
   104   108   107    1
   105   109    66   ar
   106   110   109    1
   107   111   109   ar
   108   112   111    1
   109   113   112    1
   110   114   112   am
   111   115   114    2
   112   116   114    1
   113   117   116    1
   114   118   117    1
   115   119   117    1
   116   120   117    1
   117   121   120    1
   118   122   120    1
   119   123   120    1
   120   124   111   ar
   121   125   124    1
   122   126    65   ar
   123   127   126    1
   124    17    19   ar
   125    22    24   ar
   126    33    35   ar
   127    38    40   ar
   128    49    51   ar
   129    54    56   ar
   130    65    66   ar
   131    67    68   ar
   132    69    89   ar
   133    87    89   ar
   134   105   107   ar
   135   124   126   ar
   136   128   129    1
   137   130   128    2
   138   131   128    2
   139   132   128    2
@<TRIPOS>SUBSTRUCTURE
     1 RES1        1 GROUP             0 ****  ****    0  
     2 RES2      128 GROUP             0 ****  ****    0  
     3 RES3      133 GROUP             0 ****  ****    0  
@<TRIPOS>CRYSIN
   18.4590   25.2120   14.7550   90.0000  117.3400   90.0000    15     1
