@<TRIPOS>MOLECULE
MAFBII
   195   209     4     0     0
SMALL
USER_CHARGES
****
Generated from the CSD

@<TRIPOS>ATOM
     1 Fe1      8.9520   3.8250  12.4909   Fe        1 RES1   2.0000
     2 N1       7.5349   0.0528  12.4763   N.pl3     1 RES1   0.0000
     3 N2       7.9260   2.2101  12.0281   N.2       1 RES1   0.0000
     4 N3      12.3599   5.1693  14.1733   N.pl3     1 RES1   0.0000
     5 N4       7.7446   4.1638  14.0028   N.2       1 RES1   0.0000
     6 N5       7.7909   5.1140  11.6960   N.ar      1 RES1   0.0000
     7 N6       9.8962   5.0035   8.7455   N.pl3     1 RES1   0.0000
     8 N7       5.8347   5.0340  14.7439   N.pl3     1 RES1   0.0000
     9 N8      10.3241   4.9736  13.2804   N.2       1 RES1   0.0000
    10 N9       9.7902   3.9431  10.7173   N.2       1 RES1   0.0000
    11 N10     10.1051   2.4936  13.2259   N.ar      1 RES1   0.0000
    12 C1       8.4154   1.0910  12.5799   C.2       1 RES1   0.0000
    13 C2      10.9166   3.4811  10.0364   C.ar      1 RES1   0.0000
    14 C3       6.4025   0.5481  11.8394   C.ar      1 RES1   0.0000
    15 C4       9.2296   4.8597   9.9097   C.2       1 RES1   0.0000
    16 C5       9.7372   1.1841  13.1859   C.ar      1 RES1   0.0000
    17 C6      10.5749   6.3229  13.4967   C.ar      1 RES1   0.0000
    18 C7       6.6675   1.8894  11.5245   C.ar      1 RES1   0.0000
    19 C8      11.4014   4.3185  13.7206   C.2       1 RES1   0.0000
    20 C9       5.7282   2.6557  10.8366   C.ar      1 RES1   0.0000
    21 H1       5.9059   3.5566  10.5955   H         1 RES1   0.0000
    22 C10     12.6889   9.1985   9.3034   C.ar      1 RES1   0.0000
    23 C11     11.3070   2.8553  13.7457   C.ar      1 RES1   0.0000
    24 C12      6.7010   5.5431  12.3771   C.ar      1 RES1   0.0000
    25 C13      6.3673   4.2863  15.7718   C.ar      1 RES1   0.0000
    26 C14     11.8600   6.4548  14.0417   C.ar      1 RES1   0.0000
    27 C15      6.6805  -1.2077  14.4029   C.ar      1 RES1   0.0000
    28 C16      6.6960   4.9409  13.7143   C.2       1 RES1   0.0000
    29 C17      5.1812  -0.0541  11.5532   C.ar      1 RES1   0.0000
    30 H2       4.9922  -0.9511  11.8061   H         1 RES1   0.0000
    31 C18     10.5842   0.1996  13.6699   C.ar      1 RES1   0.0000
    32 H3      10.3305  -0.7159  13.6403   H         1 RES1   0.0000
    33 C19      7.5613   3.7602  15.3071   C.ar      1 RES1   0.0000
    34 C20     10.9730   4.1358   8.7816   C.ar      1 RES1   0.0000
    35 C21     12.1815   1.9182  14.2382   C.ar      1 RES1   0.0000
    36 H4      13.0212   2.1772  14.5968   H         1 RES1   0.0000
    37 C22      4.5274   2.0484  10.5202   C.ar      1 RES1   0.0000
    38 H5       3.8682   2.5382  10.0430   H         1 RES1   0.0000
    39 C23     11.8742   2.5221  10.3702   C.ar      1 RES1   0.0000
    40 H6      11.8440   2.0622  11.2013   H         1 RES1   0.0000
    41 C24      7.5425  -1.2534  13.1545   C.3       1 RES1   0.0000
    42 H7       8.4698  -1.4929  13.4028   H         1 RES1   0.0000
    43 H8       7.1979  -1.9481  12.5401   H         1 RES1   0.0000
    44 C25      5.8067   6.4379  11.7982   C.ar      1 RES1   0.0000
    45 H9       5.0527   6.7589  12.2777   H         1 RES1   0.0000
    46 C26      4.2665   0.7155  10.8899   C.ar      1 RES1   0.0000
    47 H10      3.4222   0.3380  10.6723   H         1 RES1   0.0000
    48 C27      7.1506   6.4075   9.7935   C.ar      1 RES1   0.0000
    49 H11      7.3145   6.6964   8.9029   H         1 RES1   0.0000
    50 C28     10.2664   8.6673  13.6910   C.ar      1 RES1   0.0000
    51 H12      9.7250   9.4426  13.6006   H         1 RES1   0.0000
    52 C29     10.9114   7.2042   8.3739   C.ar      1 RES1   0.0000
    53 C30      3.3815   4.6415  14.7452   C.ar      1 RES1   0.0000
    54 C31     11.8035   0.5734  14.1980   C.ar      1 RES1   0.0000
    55 H13     12.3939  -0.0893  14.5372   H         1 RES1   0.0000
    56 C32      9.7515   7.4342  13.3235   C.ar      1 RES1   0.0000
    57 H14      8.8754   7.3495  12.9683   H         1 RES1   0.0000
    58 C33      6.0677  -2.3580  14.8466   C.ar      1 RES1   0.0000
    59 H15      6.1877  -3.1745  14.3766   H         1 RES1   0.0000
    60 C34      8.3788   2.9957  16.1394   C.ar      1 RES1   0.0000
    61 H16      9.2139   2.6559  15.8396   H         1 RES1   0.0000
    62 C35     11.5756   8.0381   7.4867   C.ar      1 RES1   0.0000
    63 H17     11.4288   7.9371   6.5532   H         1 RES1   0.0000
    64 C36      9.9317   6.1876   7.8796   C.3       1 RES1   0.0000
    65 H18      9.0293   6.5928   7.8424   H         1 RES1   0.0000
    66 H19     10.1801   5.9128   6.9606   H         1 RES1   0.0000
    67 C37      6.0599   6.8456  10.4885   C.ar      1 RES1   0.0000
    68 H20      5.4564   7.4453  10.0670   H         1 RES1   0.0000
    69 C38     11.9736   3.8736   7.8690   C.ar      1 RES1   0.0000
    70 H21     12.0170   4.3277   7.0352   H         1 RES1   0.0000
    71 C39     14.5508   4.4707  13.3066   C.ar      1 RES1   0.0000
    72 C40      8.0188   5.5211  10.4336   C.ar      1 RES1   0.0000
    73 C41     12.3930   7.6930  14.3734   C.ar      1 RES1   0.0000
    74 H22     13.2781   7.7852  14.7064   H         1 RES1   0.0000
    75 C42     12.8639   2.2666   9.4513   C.ar      1 RES1   0.0000
    76 H23     13.5353   1.6295   9.6608   H         1 RES1   0.0000
    77 C43     13.7528   4.8327  14.5170   C.3       1 RES1   0.0000
    78 H24     13.7580   4.0714  15.1506   H         1 RES1   0.0000
    79 H25     14.1749   5.6066  14.9677   H         1 RES1   0.0000
    80 C44     12.0418   8.3460  10.1843   C.ar      1 RES1   0.0000
    81 H26     12.2074   8.4255  11.1162   H         1 RES1   0.0000
    82 C45     12.4484   9.0141   7.9303   C.ar      1 RES1   0.0000
    83 H27     12.8930   9.5672   7.2982   H         1 RES1   0.0000
    84 C46     11.5644   8.7925  14.1896   C.ar      1 RES1   0.0000
    85 H28     11.8892   9.6564  14.4119   H         1 RES1   0.0000
    86 C47     11.1695   7.3919   9.7322   C.ar      1 RES1   0.0000
    87 H29     10.7257   6.8391  10.3654   H         1 RES1   0.0000
    88 C48     12.9071   2.9196   8.2176   C.ar      1 RES1   0.0000
    89 H30     13.5979   2.7009   7.6039   H         1 RES1   0.0000
    90 C49     13.6447  10.2625   9.8653   C.3       1 RES1   0.0000
    91 C50      4.5136   5.6548  14.8444   C.3       1 RES1   0.0000
    92 H31      4.4148   6.3227  14.1192   H         1 RES1   0.0000
    93 H32      4.4461   6.1339  15.7079   H         1 RES1   0.0000
    94 C51      2.2460   4.7667  15.5056   C.ar      1 RES1   0.0000
    95 H33      2.1868   5.4813  16.1291   H         1 RES1   0.0000
    96 C52      5.0635  -1.1638  16.7077   C.ar      1 RES1   0.0000
    97 C53      5.8891   4.0444  17.0626   C.ar      1 RES1   0.0000
    98 H34      5.0586   4.3930  17.3622   H         1 RES1   0.0000
    99 C54      1.2107   2.8282  14.4705   C.ar      1 RES1   0.0000
   100 C55      2.3798   2.6929  13.7396   C.ar      1 RES1   0.0000
   101 H35      2.4547   1.9750  13.1221   H         1 RES1   0.0000
   102 C56      3.4321   3.5640  13.8790   C.ar      1 RES1   0.0000
   103 H36      4.2184   3.4226  13.3652   H         1 RES1   0.0000
   104 C57     15.5323   3.5251  13.3636   C.ar      1 RES1   0.0000
   105 H37     15.6865   3.0531  14.1733   H         1 RES1   0.0000
   106 C58      1.1834   3.8854  15.3916   C.ar      1 RES1   0.0000
   107 H38      0.4228   3.9995  15.9491   H         1 RES1   0.0000
   108 C59     14.7758   9.5672  10.6554   C.3       1 RES1   0.0000
   109 H39     14.3920   9.0873  11.4196   H         1 RES1   0.0000
   110 H40     15.4096  10.2412  10.9793   H         1 RES1   0.0000
   111 H41     15.2412   8.9338  10.0719   H         1 RES1   0.0000
   112 C60     12.8551  11.2131  10.7462   C.3       1 RES1   0.0000
   113 H42     12.1295  11.6165  10.2245   H         1 RES1   0.0000
   114 H43     13.4475  11.9177  11.0808   H         1 RES1   0.0000
   115 H44     12.4760  10.7180  11.5028   H         1 RES1   0.0000
   116 C61      5.7240  -0.0118  16.2366   C.ar      1 RES1   0.0000
   117 H45      5.6177   0.8071  16.7056   H         1 RES1   0.0000
   118 C62      5.2706  -2.3174  15.9936   C.ar      1 RES1   0.0000
   119 H46      4.8560  -3.1200  16.2905   H         1 RES1   0.0000
   120 C63     14.2819  11.0981   8.7457   C.3       1 RES1   0.0000
   121 H47     14.7778  10.5076   8.1408   H         1 RES1   0.0000
   122 H48     14.8939  11.7546   9.1370   H         1 RES1   0.0000
   123 H49     13.5790  11.5627   8.2451   H         1 RES1   0.0000
   124 C64      6.5138  -0.0406  15.1191   C.ar      1 RES1   0.0000
   125 H50      6.9536   0.7527  14.8349   H         1 RES1   0.0000
   126 C65      4.1655  -1.0876  17.9202   C.3       1 RES1   0.0000
   127 C66      6.6911   3.2697  17.8759   C.ar      1 RES1   0.0000
   128 H51      6.4062   3.0787  18.7619   H         1 RES1   0.0000
   129 C67     14.3469   5.0982  12.1024   C.ar      1 RES1   0.0000
   130 H52     13.6471   5.7362  12.0290   H         1 RES1   0.0000
   131 C68      7.9214   2.7555  17.4259   C.ar      1 RES1   0.0000
   132 H53      8.4515   2.2326  18.0158   H         1 RES1   0.0000
   133 C69      0.0371   1.8657  14.2783   C.3       1 RES1   0.0000
   134 C70     16.1107   3.9176  11.0251   C.ar      1 RES1   0.0000
   135 C71      2.9902  -0.1742  17.5780   C.3       1 RES1   0.0000
   136 H54      2.4580  -0.5813  16.8634   H         1 RES1   0.0000
   137 H55      3.3288   0.6950  17.2804   H         1 RES1   0.0000
   138 H56      2.4301  -0.0523  18.3735   H         1 RES1   0.0000
   139 C72     16.3194   3.2426  12.2207   C.ar      1 RES1   0.0000
   140 H57     16.9998   2.5814  12.2730   H         1 RES1   0.0000
   141 C73      3.6548  -2.4544  18.3617   C.3       1 RES1   0.0000
   142 H58      4.4142  -3.0292  18.5906   H         1 RES1   0.0000
   143 H59      3.1429  -2.8629  17.6329   H         1 RES1   0.0000
   144 H60      3.0769  -2.3487  19.1470   H         1 RES1   0.0000
   145 C74     18.4586   3.9243  10.1737   C.3       1 RES1   0.0000
   146 H61     18.5635   4.8766  10.3778   H         1 RES1   0.0000
   147 H62     19.0285   3.6892   9.4109   H         1 RES1   0.0000
   148 H63     18.7218   3.3916  10.9531   H         1 RES1   0.0000
   149 C75     15.1283   4.8327  10.9976   C.ar      1 RES1   0.0000
   150 H64     14.9649   5.3093  10.1935   H         1 RES1   0.0000
   151 C76     16.7965   2.4273   9.2210   C.3       1 RES1   0.0000
   152 H65     17.0766   1.6963   9.8113   H         1 RES1   0.0000
   153 H66     17.2936   2.3770   8.3793   H         1 RES1   0.0000
   154 H67     15.8360   2.3491   9.0394   H         1 RES1   0.0000
   155 C77      4.9490  -0.5244  19.1011   C.3       1 RES1   0.0000
   156 H68      4.4051  -0.5826  19.9129   H         1 RES1   0.0000
   157 H69      5.1746   0.4136  18.9247   H         1 RES1   0.0000
   158 H70      5.7740  -1.0403  19.2218   H         1 RES1   0.0000
   159 C78     17.0518   3.6452   9.8400   C.3       1 RES1   0.0000
   160 C79     -1.2342   2.3208  14.9437   C.3       1 RES1   0.0000
   161 H71     -1.4622   3.2200  14.6291   H         1 RES1   0.0000
   162 H72     -1.1054   2.3364  15.9148   H         1 RES1   0.0000
   163 H73     -1.9588   1.7013  14.7193   H         1 RES1   0.0000
   164 C80     -0.3632   1.8133  12.7974   C.3       1 RES1   0.0000
   165 H74     -0.5434   2.7211  12.4747   H         1 RES1   0.0000
   166 H75     -1.1674   1.2638  12.6943   H         1 RES1   0.0000
   167 H76      0.3691   1.4216  12.2757   H         1 RES1   0.0000
   168 C81      0.3554   0.5328  14.7811   C.3       1 RES1   0.0000
   169 H77      0.5155   0.5783  15.7479   H         1 RES1   0.0000
   170 H78      1.1600   0.1989  14.3331   H         1 RES1   0.0000
   171 H79     -0.3939  -0.0721  14.6029   H         1 RES1   0.0000
   172 C82     16.6141   4.6483   8.5704   C.3       1 RES1   0.0000
   173 H80     15.6825   4.4745   8.3233   H         1 RES1   0.0000
   174 H81     17.1949   4.4712   7.8000   H         1 RES1   0.0000
   175 H82     16.7121   5.5832   8.8447   H         1 RES1   0.0000
   176 Cl1     12.2581   4.2070  17.8750   Cl        2 RES2   0.0000
   177 O1      11.8569   3.3279  16.8091   O.2       2 RES2   0.0000
   178 O2      11.7067   3.7890  19.0781   O.2       2 RES2   0.0000
   179 O3      12.0007   5.5228  17.4927   O.2       2 RES2   0.0000
   180 O4      13.7291   4.1391  18.1103   O.3       2 RES2  -1.0000
   181 Cl2      6.7111   8.6124  15.5730   Cl        3 RES3   0.0000
   182 O5       6.5153   8.1886  14.2337   O.2       3 RES3   0.0000
   183 O6       5.4443   8.8044  16.2197   O.2       3 RES3   0.0000
   184 O7       7.4274   9.8328  15.5838   O.2       3 RES3   0.0000
   185 O8       7.5395   7.6406  16.2450   O.3       3 RES3  -1.0000
   186 O9       1.0901   0.1505   9.6287   O.2       4 RES4   0.0000
   187 C83      1.2226   2.2531   8.2915   C.3       4 RES4   0.0000
   188 H83      0.9573   3.0967   8.7107   H         4 RES4   0.0000
   189 H84      0.9444   2.2524   7.3512   H         4 RES4   0.0000
   190 H85      2.1976   2.1550   8.3418   H         4 RES4   0.0000
   191 C84      0.4953   0.9811   9.0858   C.2       4 RES4   0.0000
   192 C85     -0.9645   0.7612   8.9443   C.3       4 RES4   0.0000
   193 H86     -1.1265  -0.1501   8.6220   H         4 RES4   0.0000
   194 H87     -1.3296   1.4045   8.3010   H         4 RES4   0.0000
   195 H88     -1.3995   0.8839   9.8126   H         4 RES4   0.0000
@<TRIPOS>BOND
     1     1     3    1
     2     2    12    1
     3     3    12    2
     4     4    19    1
     5     5     1    1
     6     6     1    1
     7     7    15    1
     8     8    25    1
     9     9     1    1
    10    10     1    1
    11    11     1    1
    12    12    16    1
    13    13    10    1
    14    14     2    1
    15    15    10    2
    16    16    11   ar
    17    17     9    1
    18    18     3    1
    19    19     9    2
    20    20    18   ar
    21    21    20    1
    22    22    80   ar
    23    23    11   ar
    24    24     6   ar
    25    25    33   ar
    26    26     4    1
    27    27    41    1
    28    28     5    2
    29    29    14   ar
    30    30    29    1
    31    31    16   ar
    32    32    31    1
    33    33     5    1
    34    34     7    1
    35    35    23   ar
    36    36    35    1
    37    37    20   ar
    38    38    37    1
    39    39    13   ar
    40    40    39    1
    41    41     2    1
    42    42    41    1
    43    43    41    1
    44    44    24   ar
    45    45    44    1
    46    46    29   ar
    47    47    46    1
    48    48    49    1
    49    50    51    1
    50    52    62   ar
    51    53    91    1
    52    54    31   ar
    53    55    54    1
    54    56    17   ar
    55    57    56    1
    56    58    27   ar
    57    59    58    1
    58    60    33   ar
    59    61    60    1
    60    62    63    1
    61    64     7    1
    62    65    64    1
    63    66    64    1
    64    67    44   ar
    65    68    67    1
    66    69    34   ar
    67    70    69    1
    68    71    77    1
    69    72     6   ar
    70    73    26   ar
    71    74    73    1
    72    75    39   ar
    73    76    75    1
    74    77     4    1
    75    78    77    1
    76    79    77    1
    77    80    81    1
    78    82    22   ar
    79    83    82    1
    80    84    50   ar
    81    85    84    1
    82    86    52   ar
    83    87    86    1
    84    88    69   ar
    85    89    88    1
    86    90    22    1
    87    91     8    1
    88    92    91    1
    89    93    91    1
    90    94    53   ar
    91    95    94    1
    92    96   116   ar
    93    97    25   ar
    94    98    97    1
    95    99   100   ar
    96   100   101    1
    97   102    53   ar
    98   103   102    1
    99   104    71   ar
   100   105   104    1
   101   106    94   ar
   102   107   106    1
   103   108    90    1
   104   109   108    1
   105   110   108    1
   106   111   108    1
   107   112    90    1
   108   113   112    1
   109   114   112    1
   110   115   112    1
   111   116   117    1
   112   118    58   ar
   113   119   118    1
   114   120    90    1
   115   121   120    1
   116   122   120    1
   117   123   120    1
   118   124    27   ar
   119   125   124    1
   120   126    96    1
   121   127    97   ar
   122   128   127    1
   123   129    71   ar
   124   130   129    1
   125   131    60   ar
   126   132   131    1
   127   133    99    1
   128   134   139   ar
   129   135   126    1
   130   136   135    1
   131   137   135    1
   132   138   135    1
   133   139   104   ar
   134   140   139    1
   135   141   126    1
   136   142   141    1
   137   143   141    1
   138   144   141    1
   139   145   146    1
   140   147   145    1
   141   148   145    1
   142   149   129   ar
   143   150   149    1
   144   151   152    1
   145   153   151    1
   146   154   151    1
   147   155   126    1
   148   156   155    1
   149   157   155    1
   150   158   155    1
   151   159   134    1
   152   160   133    1
   153   161   160    1
   154   162   160    1
   155   163   160    1
   156   164   133    1
   157   165   164    1
   158   166   164    1
   159   167   164    1
   160   168   133    1
   161   169   168    1
   162   170   168    1
   163   171   168    1
   164   172   159    1
   165   173   172    1
   166   174   172    1
   167   175   172    1
   168     8    28    1
   169    13    34   ar
   170    14    18   ar
   171    15    72    1
   172    17    26   ar
   173    19    23    1
   174    24    28    1
   175    35    54   ar
   176    37    46   ar
   177    48    67   ar
   178    48    72   ar
   179    50    56   ar
   180    52    64    1
   181    62    82   ar
   182    73    84   ar
   183    75    88   ar
   184    80    86   ar
   185    96   118   ar
   186    99   106   ar
   187   100   102   ar
   188   116   124   ar
   189   127   131   ar
   190   134   149   ar
   191   145   159    1
   192   151   159    1
   193   176   177    2
   194   178   176    2
   195   179   176    2
   196   180   176    1
   197   181   182    2
   198   183   181    2
   199   184   181    2
   200   185   181    1
   201   186   191    2
   202   187   188    1
   203   189   187    1
   204   190   187    1
   205   191   187    1
   206   192   191    1
   207   193   192    1
   208   194   192    1
   209   195   192    1
@<TRIPOS>SUBSTRUCTURE
     1 RES1        1 GROUP             0 ****  ****    0  
     2 RES2      176 GROUP             0 ****  ****    0  
     3 RES3      181 GROUP             0 ****  ****    0  
     4 RES4      186 GROUP             0 ****  ****    0  
@<TRIPOS>CRYSIN
   21.5941   16.9152   22.1820   90.0000  107.7600   90.0000   231     1
