@<TRIPOS>MOLECULE
MAKJOX
    93    91     4     0     0
SMALL
USER_CHARGES
****
Generated from the CSD

@<TRIPOS>ATOM
     1 Fe1     -3.3390   2.3454   7.8378   Fe        1 RES1   2.0000
     2 P1      -4.1941   0.6792   6.5183   P.3       1 RES1   0.0000
     3 P2      -2.1869   3.0196   5.9836   P.3       1 RES1   0.0000
     4 P3      -2.4815   4.0058   9.1839   P.3       1 RES1   0.0000
     5 P4      -4.5165   1.7171   9.7129   P.3       1 RES1   0.0000
     6 O1      -5.5117   4.0345   6.9768   O.2       1 RES1   0.0000
     7 O2      -1.7900   1.1091   8.3640   O.3       1 RES1   0.0000
     8 C1      -4.6406   3.3562   7.3506   C.1       1 RES1   0.0000
     9 C2      -3.2101   0.6493   4.9642   C.3       1 RES1   0.0000
    10 H1      -2.3715   0.1408   5.1059   H         1 RES1   0.0000
    11 H2      -3.7255   0.2019   4.2466   H         1 RES1   0.0000
    12 C3      -2.8791   2.1042   4.5461   C.3       1 RES1   0.0000
    13 H3      -3.6999   2.5547   4.2272   H         1 RES1   0.0000
    14 H4      -2.2211   2.0980   3.8055   H         1 RES1   0.0000
    15 C4      -2.8062   3.4908  10.9187   C.3       1 RES1   0.0000
    16 H5      -2.1989   2.7525  11.1774   H         1 RES1   0.0000
    17 H6      -2.6594   4.2499  11.5352   H         1 RES1   0.0000
    18 C5      -4.2680   3.0258  10.9842   C.3       1 RES1   0.0000
    19 H7      -4.8748   3.7890  10.8088   H         1 RES1   0.0000
    20 H8      -4.4681   2.6676  11.8842   H         1 RES1   0.0000
    21 C6      -4.1606  -1.0252   7.1486   C.3       1 RES1   0.0000
    22 H9      -3.3645  -1.1236   7.7297   H         1 RES1   0.0000
    23 H10     -4.9613  -1.1598   7.7173   H         1 RES1   0.0000
    24 C7      -4.1259  -2.1632   6.0750   C.3       1 RES1   0.0000
    25 H11     -4.1106  -3.0341   6.5232   H         1 RES1   0.0000
    26 H12     -3.3243  -2.0659   5.5205   H         1 RES1   0.0000
    27 H13     -4.9232  -2.1021   5.5081   H         1 RES1   0.0000
    28 C8      -5.9143   0.9786   5.9297   C.3       1 RES1   0.0000
    29 H14     -6.4416   1.2944   6.7039   H         1 RES1   0.0000
    30 H15     -5.8790   1.7242   5.2795   H         1 RES1   0.0000
    31 C9      -6.6962  -0.1719   5.2742   C.3       1 RES1   0.0000
    32 H16     -7.5872   0.1439   5.0173   H         1 RES1   0.0000
    33 H17     -6.7821  -0.9123   5.9102   H         1 RES1   0.0000
    34 H18     -6.2170  -0.4805   4.4770   H         1 RES1   0.0000
    35 C10     -2.3655   4.7997   5.4992   C.3       1 RES1   0.0000
    36 H19     -3.2550   5.1094   5.8004   H         1 RES1   0.0000
    37 H20     -1.6883   5.3206   6.0006   H         1 RES1   0.0000
    38 C11     -2.2241   5.1456   4.0234   C.3       1 RES1   0.0000
    39 H21     -2.3374   6.1118   3.9012   H         1 RES1   0.0000
    40 H22     -2.9066   4.6682   3.5079   H         1 RES1   0.0000
    41 H23     -1.3334   4.8805   3.7081   H         1 RES1   0.0000
    42 C12     -0.3969   2.5971   5.9829   C.3       1 RES1   0.0000
    43 H24     -0.0306   2.7929   6.8811   H         1 RES1   0.0000
    44 H25     -0.3071   1.6227   5.8323   H         1 RES1   0.0000
    45 C13      0.4609   3.3199   4.9518   C.3       1 RES1   0.0000
    46 H26      1.3936   3.0238   5.0350   H         1 RES1   0.0000
    47 H27      0.4111   4.2861   5.1041   H         1 RES1   0.0000
    48 H28      0.1354   3.1139   4.0500   H         1 RES1   0.0000
    49 C14     -3.3268   5.6354   9.0213   C.3       1 RES1   0.0000
    50 H29     -3.0059   6.0527   8.1815   H         1 RES1   0.0000
    51 H30     -4.2931   5.4583   8.9043   H         1 RES1   0.0000
    52 C15     -3.1840   6.6606  10.1179   C.3       1 RES1   0.0000
    53 H31     -3.6905   7.4652   9.8805   H         1 RES1   0.0000
    54 H32     -2.2385   6.8894  10.2295   H         1 RES1   0.0000
    55 H33     -3.5319   6.2909  10.9559   H         1 RES1   0.0000
    56 C16     -0.6794   4.3389   9.0903   C.3       1 RES1   0.0000
    57 H34     -0.2076   3.4701   9.0478   H         1 RES1   0.0000
    58 H35     -0.4972   4.8163   8.2435   H         1 RES1   0.0000
    59 C17     -0.0857   5.1477  10.2313   C.3       1 RES1   0.0000
    60 H36      0.8749   5.2657  10.0825   H         1 RES1   0.0000
    61 H37     -0.2291   4.6744  11.0781   H         1 RES1   0.0000
    62 H38     -0.5211   6.0248  10.2703   H         1 RES1   0.0000
    63 C18     -3.9707   0.1678  10.5006   C.3       1 RES1   0.0000
    64 H39     -4.4911  -0.5716  10.0966   H         1 RES1   0.0000
    65 H40     -3.0235   0.0249  10.2526   H         1 RES1   0.0000
    66 C19     -4.0722   0.0311  11.9746   C.3       1 RES1   0.0000
    67 H41     -3.7435  -0.8512  12.2457   H         1 RES1   0.0000
    68 H42     -5.0100   0.1284  12.2492   H         1 RES1   0.0000
    69 H43     -3.5338   0.7269  12.4051   H         1 RES1   0.0000
    70 C20     -6.3413   1.5854   9.5616   C.3       1 RES1   0.0000
    71 H44     -6.6696   2.3869   9.0815   H         1 RES1   0.0000
    72 H45     -6.5492   0.7994   8.9982   H         1 RES1   0.0000
    73 C21     -7.1236   1.4570  10.8531   C.3       1 RES1   0.0000
    74 H46     -8.0808   1.3949  10.6512   H         1 RES1   0.0000
    75 H47     -6.9579   2.2430  11.4148   H         1 RES1   0.0000
    76 H48     -6.8366   0.6503  11.3297   H         1 RES1   0.0000
    77 S1      -7.7248   8.0006   9.4730   S.o2      2 RES2   0.0000
    78 F1      -6.6915   6.7320   7.4321   F         2 RES2   0.0000
    79 F2      -8.7406   6.2495   7.8307   F         2 RES2   0.0000
    80 F3      -7.1308   5.4666   9.2445   F         2 RES2   0.0000
    81 O3      -8.0771   9.0237   8.5216   O.3       2 RES2  -1.0000
    82 O4      -6.4495   8.1280  10.0346   O.2       2 RES2   0.0000
    83 O5      -8.7507   7.6009  10.3766   O.2       2 RES2   0.0000
    84 C22     -7.5756   6.5115   8.4561   C.3       2 RES2   0.0000
    85 S2      -0.3927  -2.0876   6.6378   S.o2      3 RES3   0.0000
    86 F4       2.1399  -1.8060   6.0608   F         3 RES3   0.0000
    87 F5       1.6033  -3.7186   6.9006   F         3 RES3   0.0000
    88 F6       1.7535  -2.0276   8.1035   F         3 RES3   0.0000
    89 O6      -0.4921  -0.6555   6.7482   O.3       3 RES3  -1.0000
    90 O7      -0.6036  -2.5816   5.3132   O.2       3 RES3   0.0000
    91 O8      -1.0659  -2.8218   7.6730   O.2       3 RES3   0.0000
    92 C23      1.3703  -2.4346   6.9325   C.3       3 RES3   0.0000
    93 O9      -0.3012   1.0169  10.5590   O.3       4 RES4   0.0000
@<TRIPOS>BOND
     1     1     2    1
     2     2     9    1
     3     3     1    1
     4     4     1    1
     5     5     1    1
     6     6     8    3
     7     7     1    1
     8     8     1    1
     9     9    10    1
    10    11     9    1
    11    12     3    1
    12    13    12    1
    13    14    12    1
    14    15     4    1
    15    16    15    1
    16    17    15    1
    17    18     5    1
    18    19    18    1
    19    20    18    1
    20    21     2    1
    21    22    21    1
    22    23    21    1
    23    24    21    1
    24    25    24    1
    25    26    24    1
    26    27    24    1
    27    28     2    1
    28    29    28    1
    29    30    28    1
    30    31    28    1
    31    32    31    1
    32    33    31    1
    33    34    31    1
    34    35     3    1
    35    36    35    1
    36    37    35    1
    37    38    35    1
    38    39    38    1
    39    40    38    1
    40    41    38    1
    41    42     3    1
    42    43    42    1
    43    44    42    1
    44    45    42    1
    45    46    45    1
    46    47    45    1
    47    48    45    1
    48    49     4    1
    49    50    49    1
    50    51    49    1
    51    52    49    1
    52    53    52    1
    53    54    52    1
    54    55    52    1
    55    56     4    1
    56    57    56    1
    57    58    56    1
    58    59    56    1
    59    60    59    1
    60    61    59    1
    61    62    59    1
    62    63     5    1
    63    64    63    1
    64    65    63    1
    65    66    63    1
    66    67    66    1
    67    68    66    1
    68    69    66    1
    69    70     5    1
    70    71    70    1
    71    72    70    1
    72    73    70    1
    73    74    73    1
    74    75    73    1
    75    76    73    1
    76     9    12    1
    77    15    18    1
    78    77    81    1
    79    78    84    1
    80    79    84    1
    81    80    84    1
    82    82    77    2
    83    83    77    2
    84    84    77    1
    85    85    89    1
    86    86    92    1
    87    87    92    1
    88    88    92    1
    89    90    85    2
    90    91    85    2
    91    92    85    1
@<TRIPOS>SUBSTRUCTURE
     1 RES1        1 GROUP             0 ****  ****    0  
     2 RES2       77 GROUP             0 ****  ****    0  
     3 RES3       85 GROUP             0 ****  ****    0  
     4 RES4       93 GROUP             0 ****  ****    0  
@<TRIPOS>CRYSIN
   21.5801   10.3554   20.1249   90.0000  118.3180   90.0000     9     1
