@<TRIPOS>MOLECULE
MALJIT
    91   102     1     0     0
SMALL
NO_CHARGES
****
Generated from the CSD

@<TRIPOS>ATOM
     1 Fe1     -0.0091   6.5236   6.5521   Fe        1 RES1   0.0000
     2 I1       7.6053   7.6625   0.5831   I         1 RES1   0.0000
     3 B1       2.6999   6.9389   4.8313   B         1 RES1   0.0000
     4 C1       3.9576   7.1259   3.8318   C.ar      1 RES1   0.0000
     5 C2       4.1877   8.3355   3.1618   C.ar      1 RES1   0.0000
     6 H1       3.6237   9.0770   3.3481   H         1 RES1   0.0000
     7 C3       5.2156   8.4899   2.2310   C.ar      1 RES1   0.0000
     8 H2       5.3513   9.3249   1.7979   H         1 RES1   0.0000
     9 C4       6.0359   7.4098   1.9462   C.ar      1 RES1   0.0000
    10 C5       5.8021   6.1771   2.5345   C.ar      1 RES1   0.0000
    11 H3       6.3411   5.4277   2.3090   H         1 RES1   0.0000
    12 C6       4.7700   6.0493   3.4578   C.ar      1 RES1   0.0000
    13 H4       4.6102   5.1980   3.8500   H         1 RES1   0.0000
    14 C7       1.4695   6.3004   2.6154   C.ar      1 RES1   0.0000
    15 H5       2.1972   6.4623   2.0259   H         1 RES1   0.0000
    16 C8       0.2226   5.8559   2.2410   C.ar      1 RES1   0.0000
    17 H6      -0.0812   5.6521   1.3642   H         1 RES1   0.0000
    18 C9      -0.4997   5.7708   3.4359   C.ar      1 RES1   0.0000
    19 C10     -1.9236   5.3346   3.6067   C.3       1 RES1   0.0000
    20 H7      -2.1327   5.2672   4.5616   H         1 RES1   0.0000
    21 H8      -2.0504   4.4609   3.1830   H         1 RES1   0.0000
    22 H9      -2.5194   5.9913   3.1870   H         1 RES1   0.0000
    23 C11      4.1335   5.4435   6.4578   C.ar      1 RES1   0.0000
    24 H10      4.9913   5.5895   6.0765   H         1 RES1   0.0000
    25 C12      3.8793   4.7286   7.6045   C.ar      1 RES1   0.0000
    26 H11      4.5104   4.2860   8.1600   H         1 RES1   0.0000
    27 C13      2.4958   4.7932   7.7774   C.ar      1 RES1   0.0000
    28 C14      1.6874   4.1574   8.8556   C.3       1 RES1   0.0000
    29 H12      0.7339   4.3056   8.6803   H         1 RES1   0.0000
    30 H13      1.9251   4.5535   9.7194   H         1 RES1   0.0000
    31 H14      1.8694   3.1953   8.8755   H         1 RES1   0.0000
    32 C15      3.0817   9.3420   5.8723   C.ar      1 RES1   0.0000
    33 H15      3.9835   9.4763   5.6047   H         1 RES1   0.0000
    34 C16      2.3370  10.2063   6.6347   C.ar      1 RES1   0.0000
    35 H16      2.6057  11.0498   6.9793   H         1 RES1   0.0000
    36 C17      1.0977   9.5788   6.7943   C.ar      1 RES1   0.0000
    37 C18     -0.0921  10.0794   7.5483   C.3       1 RES1   0.0000
    38 H17     -0.9101   9.7255   7.1405   H         1 RES1   0.0000
    39 H18     -0.1099  11.0589   7.5179   H         1 RES1   0.0000
    40 H19     -0.0364   9.7829   8.4811   H         1 RES1   0.0000
    41 N1       0.2612   6.1462   4.4666   N.ar      1 RES1   0.0000
    42 N2       1.4928   6.4704   3.9563   N.ar      1 RES1   0.0000
    43 N3       1.9439   5.5268   6.7958   N.ar      1 RES1   0.0000
    44 N4       2.9638   5.9046   5.9627   N.ar      1 RES1   0.0000
    45 N5       1.0971   8.3938   6.1627   N.ar      1 RES1   0.0000
    46 N6       2.3219   8.2679   5.5651   N.ar      1 RES1   0.0000
    47 I1B     -7.6236   5.3848  12.5211   I         1 RES1   0.0000
    48 B1B     -2.7182   6.1084   8.2730   B         1 RES1   0.0000
    49 C1B     -3.9759   5.9214   9.2725   C.ar      1 RES1   0.0000
    50 C2B     -4.2060   4.7118   9.9425   C.ar      1 RES1   0.0000
    51 H1B     -3.6420   3.9703   9.7561   H         1 RES1   0.0000
    52 C3B     -5.2338   4.5574  10.8733   C.ar      1 RES1   0.0000
    53 H2B     -5.3696   3.7224  11.3064   H         1 RES1   0.0000
    54 C4B     -6.0542   5.6375  11.1580   C.ar      1 RES1   0.0000
    55 C5B     -5.8204   6.8702  10.5698   C.ar      1 RES1   0.0000
    56 H3B     -6.3594   7.6196  10.7953   H         1 RES1   0.0000
    57 C6B     -4.7883   6.9980   9.6465   C.ar      1 RES1   0.0000
    58 H4B     -4.6285   7.8493   9.2542   H         1 RES1   0.0000
    59 C7B     -1.4878   6.7469  10.4889   C.ar      1 RES1   0.0000
    60 H5B     -2.2155   6.5850  11.0784   H         1 RES1   0.0000
    61 C8B     -0.2409   7.1914  10.8633   C.ar      1 RES1   0.0000
    62 H6B      0.0629   7.3952  11.7401   H         1 RES1   0.0000
    63 C9B      0.4815   7.2765   9.6683   C.ar      1 RES1   0.0000
    64 C10B     1.9053   7.7127   9.4976   C.3       1 RES1   0.0000
    65 H7B      2.1144   7.7801   8.5427   H         1 RES1   0.0000
    66 H8B      2.0321   8.5864   9.9213   H         1 RES1   0.0000
    67 H9B      2.5011   7.0560   9.9173   H         1 RES1   0.0000
    68 C11B    -4.1518   7.6038   6.6465   C.ar      1 RES1   0.0000
    69 H10B    -5.0096   7.4578   7.0278   H         1 RES1   0.0000
    70 C12B    -3.8976   8.3187   5.4997   C.ar      1 RES1   0.0000
    71 H11B    -4.5287   8.7613   4.9442   H         1 RES1   0.0000
    72 C13B    -2.5141   8.2541   5.3269   C.ar      1 RES1   0.0000
    73 C14B    -1.7057   8.8899   4.2487   C.3       1 RES1   0.0000
    74 H12B    -0.7522   8.7417   4.4240   H         1 RES1   0.0000
    75 H13B    -1.9434   8.4938   3.3848   H         1 RES1   0.0000
    76 H14B    -1.8877   9.8520   4.2288   H         1 RES1   0.0000
    77 C15B    -3.1000   3.7053   7.2320   C.ar      1 RES1   0.0000
    78 H15B    -4.0018   3.5710   7.4996   H         1 RES1   0.0000
    79 C16B    -2.3553   2.8410   6.4696   C.ar      1 RES1   0.0000
    80 H16B    -2.6240   1.9975   6.1249   H         1 RES1   0.0000
    81 C17B    -1.1160   3.4685   6.3100   C.ar      1 RES1   0.0000
    82 C18B     0.0738   2.9679   5.5560   C.3       1 RES1   0.0000
    83 H17B     0.8918   3.3218   5.9638   H         1 RES1   0.0000
    84 H18B     0.0916   1.9884   5.5864   H         1 RES1   0.0000
    85 H19B     0.0181   3.2644   4.6232   H         1 RES1   0.0000
    86 N1B     -0.2795   6.9011   8.6377   N.ar      1 RES1   0.0000
    87 N2B     -1.5111   6.5769   9.1480   N.ar      1 RES1   0.0000
    88 N3B     -1.9622   7.5205   6.3085   N.ar      1 RES1   0.0000
    89 N4B     -2.9821   7.1427   7.1416   N.ar      1 RES1   0.0000
    90 N5B     -1.1154   4.6535   6.9416   N.ar      1 RES1   0.0000
    91 N6B     -2.3402   4.7794   7.5392   N.ar      1 RES1   0.0000
@<TRIPOS>BOND
     1     1    41    1
     2     2     9    1
     3     3     4    1
     4     4     5   ar
     5     5     6    1
     6     7     5   ar
     7     8     7    1
     8     9     7   ar
     9    10     9   ar
    10    11    10    1
    11    12     4   ar
    12    13    12    1
    13    14    15    1
    14    16    14   ar
    15    17    16    1
    16    18    16   ar
    17    19    18    1
    18    20    19    1
    19    21    19    1
    20    22    19    1
    21    23    24    1
    22    25    23   ar
    23    26    25    1
    24    27    25   ar
    25    28    27    1
    26    29    28    1
    27    30    28    1
    28    31    28    1
    29    32    33    1
    30    34    32   ar
    31    35    34    1
    32    36    34   ar
    33    37    36    1
    34    38    37    1
    35    39    37    1
    36    40    37    1
    37    41    18   ar
    38    42     3    1
    39    43     1    1
    40    44     3    1
    41    45     1    1
    42    46     3    1
    43    47    54    1
    44    48    49    1
    45    49    50   ar
    46    50    51    1
    47    52    50   ar
    48    53    52    1
    49    54    52   ar
    50    55    54   ar
    51    56    55    1
    52    57    49   ar
    53    58    57    1
    54    59    60    1
    55    61    59   ar
    56    62    61    1
    57    63    61   ar
    58    64    63    1
    59    65    64    1
    60    66    64    1
    61    67    64    1
    62    68    69    1
    63    70    68   ar
    64    71    70    1
    65    72    70   ar
    66    73    72    1
    67    74    73    1
    68    75    73    1
    69    76    73    1
    70    77    78    1
    71    79    77   ar
    72    80    79    1
    73    81    79   ar
    74    82    81    1
    75    83    82    1
    76    84    82    1
    77    85    82    1
    78    86     1    1
    79    87    48    1
    80    88     1    1
    81    89    48    1
    82    90     1    1
    83    91    48    1
    84    10    12   ar
    85    14    42   ar
    86    23    44   ar
    87    27    43   ar
    88    32    46   ar
    89    36    45   ar
    90    41    42   ar
    91    43    44   ar
    92    45    46   ar
    93    55    57   ar
    94    59    87   ar
    95    63    86   ar
    96    68    89   ar
    97    72    88   ar
    98    77    91   ar
    99    81    90   ar
   100    86    87   ar
   101    88    89   ar
   102    90    91   ar
@<TRIPOS>SUBSTRUCTURE
     1 RES1        1 GROUP             0 ****  ****    0  
@<TRIPOS>CRYSIN
   11.1677   13.0473   13.1043   90.0000   90.0800   90.0000    14     1
