@<TRIPOS>MOLECULE
MALJOZ
    96   106     2     0     0
SMALL
NO_CHARGES
****
Generated from the CSD

@<TRIPOS>ATOM
     1 Fe1     -0.3982   7.3274   6.3836   Fe        1 RES1   0.0000
     2 I1       6.8556  12.7449   2.7626   I         1 RES1   0.0000
     3 B1       2.1371   9.0010   5.2907   B         1 RES1   0.0000
     4 C1       3.8312   7.4842   6.6492   C.ar      1 RES1   0.0000
     5 H1       4.6450   7.7861   6.2636   H         1 RES1   0.0000
     6 C2       3.7232   6.5082   7.5875   C.ar      1 RES1   0.0000
     7 H2       4.4271   6.0187   7.9961   H         1 RES1   0.0000
     8 C3       2.3669   6.3792   7.8225   C.ar      1 RES1   0.0000
     9 C4       1.6882   5.4281   8.7711   C.3       1 RES1   0.0000
    10 H3       1.3326   5.9264   9.5358   H         1 RES1   0.0000
    11 H4       2.3363   4.7643   9.0864   H         1 RES1   0.0000
    12 H5       0.9539   4.9738   8.3076   H         1 RES1   0.0000
    13 C5       1.1750  11.2182   6.2725   C.ar      1 RES1   0.0000
    14 H6       1.9311  11.7663   6.0963   H         1 RES1   0.0000
    15 C6       0.0112  11.6271   6.8866   C.ar      1 RES1   0.0000
    16 H7      -0.1960  12.4976   7.2084   H         1 RES1   0.0000
    17 C7      -0.7911  10.5031   6.9339   C.ar      1 RES1   0.0000
    18 C8      -2.1780  10.3785   7.5033   C.3       1 RES1   0.0000
    19 H8      -2.5424   9.4963   7.2862   H         1 RES1   0.0000
    20 H9      -2.7517  11.0732   7.1190   H         1 RES1   0.0000
    21 H10     -2.1421  10.4870   8.4774   H         1 RES1   0.0000
    22 C9       1.9983   7.8271   2.9288   C.ar      1 RES1   0.0000
    23 H11      2.8065   8.1569   2.5547   H         1 RES1   0.0000
    24 C10      1.1575   6.9376   2.3326   C.ar      1 RES1   0.0000
    25 H12      1.2510   6.5448   1.4733   H         1 RES1   0.0000
    26 C11      0.1319   6.7236   3.2480   C.ar      1 RES1   0.0000
    27 C12     -1.0625   5.8414   3.0948   C.3       1 RES1   0.0000
    28 H13     -1.5607   5.8180   3.9374   H         1 RES1   0.0000
    29 H14     -0.7703   4.9343   2.8624   H         1 RES1   0.0000
    30 H15     -1.6376   6.1917   2.3836   H         1 RES1   0.0000
    31 C13      3.3112   9.9675   4.7251   C.ar      1 RES1   0.0000
    32 C14      4.4717  10.2979   5.4222   C.ar      1 RES1   0.0000
    33 H16      4.5897   9.9491   6.2981   H         1 RES1   0.0000
    34 C15      5.4636  11.1113   4.8911   C.ar      1 RES1   0.0000
    35 H17      6.2525  11.2945   5.3890   H         1 RES1   0.0000
    36 C16      5.2909  11.6520   3.6335   C.ar      1 RES1   0.0000
    37 C17      4.1030  11.4498   2.9492   C.ar      1 RES1   0.0000
    38 H18      3.9510  11.8762   2.1142   H         1 RES1   0.0000
    39 C18      3.1378  10.6203   3.4969   C.ar      1 RES1   0.0000
    40 H19      2.3271  10.4870   3.0194   H         1 RES1   0.0000
    41 N1       1.6787   7.2461   7.0655   N.ar      1 RES1   0.0000
    42 N2       2.6136   7.9514   6.3510   N.ar      1 RES1   0.0000
    43 N3      -0.1538   9.4507   6.3964   N.ar      1 RES1   0.0000
    44 N4       1.0639   9.9128   5.9637   N.ar      1 RES1   0.0000
    45 N5       0.3477   7.4473   4.3578   N.ar      1 RES1   0.0000
    46 N6       1.4985   8.1630   4.1384   N.ar      1 RES1   0.0000
    47 I1B     -7.6519   1.9099  10.0046   I         1 RES1   0.0000
    48 B1B     -2.9334   5.6538   7.4765   B         1 RES1   0.0000
    49 C1B     -4.6275   7.1706   6.1180   C.ar      1 RES1   0.0000
    50 H1B     -5.4413   6.8687   6.5036   H         1 RES1   0.0000
    51 C2B     -4.5195   8.1466   5.1796   C.ar      1 RES1   0.0000
    52 H2B     -5.2234   8.6361   4.7711   H         1 RES1   0.0000
    53 C3B     -3.1632   8.2756   4.9447   C.ar      1 RES1   0.0000
    54 C4B     -2.4845   9.2267   3.9961   C.3       1 RES1   0.0000
    55 H3B     -2.1289   8.7284   3.2314   H         1 RES1   0.0000
    56 H4B     -3.1326   9.8905   3.6808   H         1 RES1   0.0000
    57 H5B     -1.7502   9.6810   4.4596   H         1 RES1   0.0000
    58 C5B     -1.9713   3.4366   6.4947   C.ar      1 RES1   0.0000
    59 H6B     -2.7274   2.8885   6.6709   H         1 RES1   0.0000
    60 C6B     -0.8076   3.0277   5.8806   C.ar      1 RES1   0.0000
    61 H7B     -0.6003   2.1572   5.5588   H         1 RES1   0.0000
    62 C7B     -0.0052   4.1517   5.8333   C.ar      1 RES1   0.0000
    63 C8B      1.3816   4.2763   5.2639   C.3       1 RES1   0.0000
    64 H8B      1.7461   5.1585   5.4810   H         1 RES1   0.0000
    65 H9B      1.9554   3.5816   5.6482   H         1 RES1   0.0000
    66 H10B     1.3458   4.1678   4.2898   H         1 RES1   0.0000
    67 C9B     -2.7946   6.8277   9.8384   C.ar      1 RES1   0.0000
    68 H11B    -3.6028   6.4979  10.2125   H         1 RES1   0.0000
    69 C10B    -1.9538   7.7172  10.4346   C.ar      1 RES1   0.0000
    70 H12B    -2.0473   8.1100  11.2939   H         1 RES1   0.0000
    71 C11B    -0.9282   7.9312   9.5192   C.ar      1 RES1   0.0000
    72 C12B     0.2662   8.8134   9.6724   C.3       1 RES1   0.0000
    73 H13B     0.7643   8.8368   8.8298   H         1 RES1   0.0000
    74 H14B    -0.0261   9.7205   9.9048   H         1 RES1   0.0000
    75 H15B     0.8413   8.4631  10.3836   H         1 RES1   0.0000
    76 C13B    -4.1075   4.6873   8.0421   C.ar      1 RES1   0.0000
    77 C14B    -5.2680   4.3569   7.3450   C.ar      1 RES1   0.0000
    78 H16B    -5.3860   4.7057   6.4691   H         1 RES1   0.0000
    79 C15B    -6.2599   3.5435   7.8761   C.ar      1 RES1   0.0000
    80 H17B    -7.0489   3.3603   7.3782   H         1 RES1   0.0000
    81 C16B    -6.0872   3.0028   9.1336   C.ar      1 RES1   0.0000
    82 C17B    -4.8993   3.2050   9.8180   C.ar      1 RES1   0.0000
    83 H18B    -4.7473   2.7786  10.6529   H         1 RES1   0.0000
    84 C18B    -3.9341   4.0345   9.2703   C.ar      1 RES1   0.0000
    85 H19B    -3.1234   4.1678   9.7478   H         1 RES1   0.0000
    86 N1B     -2.4750   7.4087   5.7017   N.ar      1 RES1   0.0000
    87 N2B     -3.4099   6.7034   6.4162   N.ar      1 RES1   0.0000
    88 N3B     -0.6425   5.2041   6.3708   N.ar      1 RES1   0.0000
    89 N4B     -1.8602   4.7420   6.8035   N.ar      1 RES1   0.0000
    90 N5B     -1.1440   7.2075   8.4094   N.ar      1 RES1   0.0000
    91 N6B     -2.2948   6.4918   8.6288   N.ar      1 RES1   0.0000
    92 C19      7.2482   7.4637   1.4887   C.3       2 RES2   0.0000
    93 H20      7.6368   7.2116   2.3632   H         2 RES2   0.0000
    94 H21      6.6692   6.7192   1.1873   H         2 RES2   0.0000
    95 Cl1      8.5319   7.6881   0.3382   Cl        2 RES2   0.0000
    96 Cl2      6.2714   8.9037   1.6894   Cl        2 RES2   0.0000
@<TRIPOS>BOND
     1     1    41    1
     2     2    36    1
     3     3    31    1
     4     4     5    1
     5     6     4   ar
     6     7     6    1
     7     8     6   ar
     8     9     8    1
     9    10     9    1
    10    11     9    1
    11    12     9    1
    12    13    14    1
    13    15    13   ar
    14    16    15    1
    15    17    15   ar
    16    18    17    1
    17    19    18    1
    18    20    18    1
    19    21    18    1
    20    22    23    1
    21    24    22   ar
    22    25    24    1
    23    26    24   ar
    24    27    26    1
    25    28    27    1
    26    29    27    1
    27    30    27    1
    28    31    32   ar
    29    32    33    1
    30    34    32   ar
    31    35    34    1
    32    36    34   ar
    33    37    36   ar
    34    38    37    1
    35    39    31   ar
    36    40    39    1
    37    41     8   ar
    38    42     3    1
    39    43     1    1
    40    44     3    1
    41    45     1    1
    42    46     3    1
    43    47    81    1
    44    48    76    1
    45    49    50    1
    46    51    49   ar
    47    52    51    1
    48    53    51   ar
    49    54    53    1
    50    55    54    1
    51    56    54    1
    52    57    54    1
    53    58    59    1
    54    60    58   ar
    55    61    60    1
    56    62    60   ar
    57    63    62    1
    58    64    63    1
    59    65    63    1
    60    66    63    1
    61    67    68    1
    62    69    67   ar
    63    70    69    1
    64    71    69   ar
    65    72    71    1
    66    73    72    1
    67    74    72    1
    68    75    72    1
    69    76    77   ar
    70    77    78    1
    71    79    77   ar
    72    80    79    1
    73    81    79   ar
    74    82    81   ar
    75    83    82    1
    76    84    76   ar
    77    85    84    1
    78    86     1    1
    79    87    48    1
    80    88     1    1
    81    89    48    1
    82    90     1    1
    83    91    48    1
    84     4    42   ar
    85    13    44   ar
    86    17    43   ar
    87    22    46   ar
    88    26    45   ar
    89    37    39   ar
    90    41    42   ar
    91    43    44   ar
    92    45    46   ar
    93    49    87   ar
    94    53    86   ar
    95    58    89   ar
    96    62    88   ar
    97    67    91   ar
    98    71    90   ar
    99    82    84   ar
   100    86    87   ar
   101    88    89   ar
   102    90    91   ar
   103    92    93    1
   104    94    92    1
   105    95    92    1
   106    96    92    1
@<TRIPOS>SUBSTRUCTURE
     1 RES1        1 GROUP             0 ****  ****    0  
     2 RES2       92 GROUP             0 ****  ****    0  
@<TRIPOS>CRYSIN
   12.0760   14.6548   12.7920   90.0000   93.5690   90.0000    14     1
