@<TRIPOS>MOLECULE
MALJIT03
    91   102     1     0     0
SMALL
NO_CHARGES
****
Generated from the CSD

@<TRIPOS>ATOM
     1 Fe1      4.1218   0.0000   5.6715   Fe        1 RES1   0.0000
     2 I1      -2.6632   6.7367   6.6519   I         1 RES1   0.0000
     3 B1       1.7688   1.9900   6.0322   B         1 RES1   0.0000
     4 C1       0.6704   3.1570   6.1698   C.ar      1 RES1   0.0000
     5 C2      -0.2376   3.4755   5.1463   C.ar      1 RES1   0.0000
     6 H1      -0.2372   2.9503   4.3557   H         1 RES1   0.0000
     7 C3      -1.1348   4.5276   5.2462   C.ar      1 RES1   0.0000
     8 H2      -1.7363   4.7106   4.5338   H         1 RES1   0.0000
     9 C4      -1.1511   5.3057   6.3839   C.ar      1 RES1   0.0000
    10 C5      -0.2090   5.0989   7.3775   C.ar      1 RES1   0.0000
    11 H3      -0.1729   5.6746   8.1318   H         1 RES1   0.0000
    12 C6       0.6826   4.0384   7.2584   C.ar      1 RES1   0.0000
    13 H4       1.3272   3.9063   7.9435   H         1 RES1   0.0000
    14 C7       3.2797   3.9292   5.0964   C.ar      1 RES1   0.0000
    15 H5       2.6568   4.6411   5.1804   H         1 RES1   0.0000
    16 C8       4.5519   4.0387   4.6076   C.ar      1 RES1   0.0000
    17 H6       4.9799   4.8260   4.2899   H         1 RES1   0.0000
    18 C9       5.0922   2.7504   4.6722   C.ar      1 RES1   0.0000
    19 C10      6.4682   2.3381   4.2468   C.3       1 RES1   0.0000
    20 H7       6.5557   1.3653   4.3240   H         1 RES1   0.0000
    21 H8       7.1321   2.7717   4.8231   H         1 RES1   0.0000
    22 H9       6.6175   2.6074   3.3167   H         1 RES1   0.0000
    23 C11      1.5777   1.3416   8.5980   C.ar      1 RES1   0.0000
    24 H10      0.7874   1.8173   8.8249   H         1 RES1   0.0000
    25 C12      2.3105   0.5517   9.4522   C.ar      1 RES1   0.0000
    26 H11      2.1422   0.3872  10.3721   H         1 RES1   0.0000
    27 C13      3.3572   0.0417   8.6774   C.ar      1 RES1   0.0000
    28 C14      4.4353  -0.8800   9.1493   C.3       1 RES1   0.0000
    29 H12      4.8890  -1.2752   8.3757   H         1 RES1   0.0000
    30 H13      4.0411  -1.5929   9.6949   H         1 RES1   0.0000
    31 H14      5.0829  -0.3777   9.6858   H         1 RES1   0.0000
    32 C15      0.1709   0.3902   4.6348   C.ar      1 RES1   0.0000
    33 H15     -0.6539   0.8517   4.7335   H         1 RES1   0.0000
    34 C16      0.3446  -0.7939   3.9803   C.ar      1 RES1   0.0000
    35 H16     -0.3202  -1.3037   3.5311   H         1 RES1   0.0000
    36 C17      1.7021  -1.1035   4.1073   C.ar      1 RES1   0.0000
    37 C18      2.3839  -2.3019   3.5209   C.3       1 RES1   0.0000
    38 H17      2.3991  -2.2234   2.5431   H         1 RES1   0.0000
    39 H18      1.8970  -3.1130   3.7761   H         1 RES1   0.0000
    40 H19      3.3032  -2.3529   3.8578   H         1 RES1   0.0000
    41 N1       4.1818   1.9045   5.1834   N.ar      1 RES1   0.0000
    42 N2       3.0562   2.6442   5.4406   N.ar      1 RES1   0.0000
    43 N3       3.2528   0.4959   7.4137   N.ar      1 RES1   0.0000
    44 N4       2.1667   1.3309   7.3866   N.ar      1 RES1   0.0000
    45 N5       2.3208  -0.1468   4.8154   N.ar      1 RES1   0.0000
    46 N6       1.3632   0.7961   5.1164   N.ar      1 RES1   0.0000
    47 I1B     10.9069  -6.7367   4.6911   I         1 RES1   0.0000
    48 B1B      6.4748  -1.9900   5.3108   B         1 RES1   0.0000
    49 C1B      7.5733  -3.1570   5.1732   C.ar      1 RES1   0.0000
    50 C2B      8.4812  -3.4755   6.1967   C.ar      1 RES1   0.0000
    51 H1B      8.4808  -2.9503   6.9873   H         1 RES1   0.0000
    52 C3B      9.3785  -4.5276   6.0969   C.ar      1 RES1   0.0000
    53 H2B      9.9800  -4.7106   6.8092   H         1 RES1   0.0000
    54 C4B      9.3948  -5.3057   4.9592   C.ar      1 RES1   0.0000
    55 C5B      8.4527  -5.0989   3.9655   C.ar      1 RES1   0.0000
    56 H3B      8.4166  -5.6746   3.2112   H         1 RES1   0.0000
    57 C6B      7.5610  -4.0384   4.0846   C.ar      1 RES1   0.0000
    58 H4B      6.9165  -3.9063   3.3995   H         1 RES1   0.0000
    59 C7B      4.9640  -3.9292   6.2466   C.ar      1 RES1   0.0000
    60 H5B      5.5868  -4.6411   6.1627   H         1 RES1   0.0000
    61 C8B      3.6917  -4.0387   6.7355   C.ar      1 RES1   0.0000
    62 H6B      3.2638  -4.8260   7.0531   H         1 RES1   0.0000
    63 C9B      3.1514  -2.7504   6.6709   C.ar      1 RES1   0.0000
    64 C10B     1.7754  -2.3381   7.0962   C.3       1 RES1   0.0000
    65 H7B      1.6880  -1.3653   7.0191   H         1 RES1   0.0000
    66 H8B      1.1116  -2.7717   6.5200   H         1 RES1   0.0000
    67 H9B      1.6261  -2.6074   8.0264   H         1 RES1   0.0000
    68 C11B     6.6660  -1.3416   2.7450   C.ar      1 RES1   0.0000
    69 H10B     7.4563  -1.8173   2.5182   H         1 RES1   0.0000
    70 C12B     5.9332  -0.5517   1.8909   C.ar      1 RES1   0.0000
    71 H11B     6.1015  -0.3872   0.9710   H         1 RES1   0.0000
    72 C13B     4.8865  -0.0417   2.6656   C.ar      1 RES1   0.0000
    73 C14B     3.8084   0.8800   2.1937   C.3       1 RES1   0.0000
    74 H12B     3.3547   1.2752   2.9673   H         1 RES1   0.0000
    75 H13B     4.2026   1.5929   1.6481   H         1 RES1   0.0000
    76 H14B     3.1608   0.3777   1.6572   H         1 RES1   0.0000
    77 C15B     8.0728  -0.3902   6.7083   C.ar      1 RES1   0.0000
    78 H15B     8.8976  -0.8517   6.6096   H         1 RES1   0.0000
    79 C16B     7.8991   0.7939   7.3628   C.ar      1 RES1   0.0000
    80 H16B     8.5638   1.3037   7.8120   H         1 RES1   0.0000
    81 C17B     6.5416   1.1035   7.2357   C.ar      1 RES1   0.0000
    82 C18B     5.8597   2.3019   7.8222   C.3       1 RES1   0.0000
    83 H17B     5.8445   2.2234   8.7999   H         1 RES1   0.0000
    84 H18B     6.3466   3.1130   7.5670   H         1 RES1   0.0000
    85 H19B     4.9404   2.3529   7.4853   H         1 RES1   0.0000
    86 N1B      4.0618  -1.9045   6.1596   N.ar      1 RES1   0.0000
    87 N2B      5.1874  -2.6442   5.9025   N.ar      1 RES1   0.0000
    88 N3B      4.9909  -0.4959   3.9294   N.ar      1 RES1   0.0000
    89 N4B      6.0769  -1.3309   3.9565   N.ar      1 RES1   0.0000
    90 N5B      5.9228   0.1468   6.5277   N.ar      1 RES1   0.0000
    91 N6B      6.8805  -0.7961   6.2267   N.ar      1 RES1   0.0000
@<TRIPOS>BOND
     1     1    41    1
     2     2     9    1
     3     3     4    1
     4     4     5   ar
     5     5     6    1
     6     7     5   ar
     7     8     7    1
     8     9     7   ar
     9    10     9   ar
    10    11    10    1
    11    12     4   ar
    12    13    12    1
    13    14    15    1
    14    16    14   ar
    15    17    16    1
    16    18    16   ar
    17    19    18    1
    18    20    19    1
    19    21    19    1
    20    22    19    1
    21    23    24    1
    22    25    23   ar
    23    26    25    1
    24    27    25   ar
    25    28    27    1
    26    29    28    1
    27    30    28    1
    28    31    28    1
    29    32    33    1
    30    34    32   ar
    31    35    34    1
    32    36    34   ar
    33    37    36    1
    34    38    37    1
    35    39    37    1
    36    40    37    1
    37    41    18   ar
    38    42     3    1
    39    43     1    1
    40    44     3    1
    41    45     1    1
    42    46     3    1
    43    47    54    1
    44    48    49    1
    45    49    50   ar
    46    50    51    1
    47    52    50   ar
    48    53    52    1
    49    54    52   ar
    50    55    54   ar
    51    56    55    1
    52    57    49   ar
    53    58    57    1
    54    59    60    1
    55    61    59   ar
    56    62    61    1
    57    63    61   ar
    58    64    63    1
    59    65    64    1
    60    66    64    1
    61    67    64    1
    62    68    69    1
    63    70    68   ar
    64    71    70    1
    65    72    70   ar
    66    73    72    1
    67    74    73    1
    68    75    73    1
    69    76    73    1
    70    77    78    1
    71    79    77   ar
    72    80    79    1
    73    81    79   ar
    74    82    81    1
    75    83    82    1
    76    84    82    1
    77    85    82    1
    78    86     1    1
    79    87    48    1
    80    88     1    1
    81    89    48    1
    82    90     1    1
    83    91    48    1
    84    10    12   ar
    85    14    42   ar
    86    23    44   ar
    87    27    43   ar
    88    32    46   ar
    89    36    45   ar
    90    41    42   ar
    91    43    44   ar
    92    45    46   ar
    93    55    57   ar
    94    59    87   ar
    95    63    86   ar
    96    68    89   ar
    97    72    88   ar
    98    77    91   ar
    99    81    90   ar
   100    86    87   ar
   101    88    89   ar
   102    90    91   ar
@<TRIPOS>SUBSTRUCTURE
     1 RES1        1 GROUP             0 ****  ****    0  
@<TRIPOS>CRYSIN
   10.4732   15.8022   11.5601   90.0000  101.1200   90.0000    14     1
