@<TRIPOS>MOLECULE
MALJOZ01
    96   106     2     0     0
SMALL
NO_CHARGES
****
Generated from the CSD

@<TRIPOS>ATOM
     1 Fe1     -0.3678   7.2769   6.3456   Fe        1 RES1   0.0000
     2 I1       6.7568  12.6993   2.8061   I         1 RES1   0.0000
     3 B1       2.0953   8.8385   5.2808   B         1 RES1   0.0000
     4 C1       3.7128   7.3640   6.7868   C.ar      1 RES1   0.0000
     5 H1       4.5547   7.6829   6.4864   H         1 RES1   0.0000
     6 C2       3.5216   6.3914   7.7340   C.ar      1 RES1   0.0000
     7 H2       4.1890   5.9204   8.2175   H         1 RES1   0.0000
     8 C3       2.1308   6.2377   7.8360   C.ar      1 RES1   0.0000
     9 C4       1.4279   5.2804   8.7429   C.3       1 RES1   0.0000
    10 H3       1.3745   5.6628   9.6440   H         1 RES1   0.0000
    11 H4       1.9259   4.4360   8.7759   H         1 RES1   0.0000
    12 H5       0.5235   5.1142   8.4040   H         1 RES1   0.0000
    13 C5       1.0747  11.0850   6.1906   C.ar      1 RES1   0.0000
    14 H6       1.7944  11.6677   5.9750   H         1 RES1   0.0000
    15 C6      -0.0985  11.4463   6.8098   C.ar      1 RES1   0.0000
    16 H7      -0.3487  12.3153   7.1007   H         1 RES1   0.0000
    17 C7      -0.8455  10.2751   6.9236   C.ar      1 RES1   0.0000
    18 C8      -2.2079  10.1419   7.5360   C.3       1 RES1   0.0000
    19 H8      -2.5791   9.2605   7.3190   H         1 RES1   0.0000
    20 H9      -2.7961  10.8411   7.1794   H         1 RES1   0.0000
    21 H10     -2.1398  10.2371   8.5081   H         1 RES1   0.0000
    22 C9       1.8058   7.7138   2.8961   C.ar      1 RES1   0.0000
    23 H11      2.5832   8.0482   2.4633   H         1 RES1   0.0000
    24 C10      0.8933   6.8567   2.3491   C.ar      1 RES1   0.0000
    25 H12      0.9017   6.4968   1.4696   H         1 RES1   0.0000
    26 C11     -0.0578   6.6163   3.3475   C.ar      1 RES1   0.0000
    27 C12     -1.2558   5.7374   3.2299   C.3       1 RES1   0.0000
    28 H13     -1.7065   5.6818   4.0980   H         1 RES1   0.0000
    29 H14     -0.9777   4.8406   2.9494   H         1 RES1   0.0000
    30 H15     -1.8713   6.1111   2.5661   H         1 RES1   0.0000
    31 C13      3.2755   9.7881   4.7087   C.ar      1 RES1   0.0000
    32 C14      4.4342  10.1353   5.4181   C.ar      1 RES1   0.0000
    33 H16      4.5577   9.7801   6.2910   H         1 RES1   0.0000
    34 C15      5.4098  10.9780   4.8970   C.ar      1 RES1   0.0000
    35 H17      6.1922  11.1729   5.3988   H         1 RES1   0.0000
    36 C16      5.2301  11.5290   3.6436   C.ar      1 RES1   0.0000
    37 C17      4.0529  11.2928   2.9417   C.ar      1 RES1   0.0000
    38 H18      3.9025  11.7128   2.1029   H         1 RES1   0.0000
    39 C18      3.1038  10.4389   3.4767   C.ar      1 RES1   0.0000
    40 H19      2.3015  10.2880   2.9900   H         1 RES1   0.0000
    41 N1       1.5193   7.0783   6.9826   N.ar      1 RES1   0.0000
    42 N2       2.5135   7.7928   6.3532   N.ar      1 RES1   0.0000
    43 N3      -0.1547   9.2448   6.4103   N.ar      1 RES1   0.0000
    44 N4       1.0267   9.7548   5.9411   N.ar      1 RES1   0.0000
    45 N5       0.2737   7.2950   4.4562   N.ar      1 RES1   0.0000
    46 N6       1.4151   8.0045   4.1603   N.ar      1 RES1   0.0000
    47 I1B     -7.4923   1.8544   9.8850   I         1 RES1   0.0000
    48 B1B     -2.8308   5.7152   7.4103   B         1 RES1   0.0000
    49 C1B     -4.4483   7.1897   5.9043   C.ar      1 RES1   0.0000
    50 H1B     -5.2902   6.8708   6.2047   H         1 RES1   0.0000
    51 C2B     -4.2572   8.1623   4.9571   C.ar      1 RES1   0.0000
    52 H2B     -4.9245   8.6333   4.4736   H         1 RES1   0.0000
    53 C3B     -2.8664   8.3160   4.8551   C.ar      1 RES1   0.0000
    54 C4B     -2.1634   9.2733   3.9482   C.3       1 RES1   0.0000
    55 H3B     -2.1100   8.8909   3.0471   H         1 RES1   0.0000
    56 H4B     -2.6614  10.1177   3.9152   H         1 RES1   0.0000
    57 H5B     -1.2590   9.4395   4.2871   H         1 RES1   0.0000
    58 C5B     -1.8102   3.4687   6.5005   C.ar      1 RES1   0.0000
    59 H6B     -2.5300   2.8860   6.7161   H         1 RES1   0.0000
    60 C6B     -0.6370   3.1074   5.8813   C.ar      1 RES1   0.0000
    61 H7B     -0.3868   2.2384   5.5904   H         1 RES1   0.0000
    62 C7B      0.1100   4.2786   5.7675   C.ar      1 RES1   0.0000
    63 C8B      1.4723   4.4118   5.1551   C.3       1 RES1   0.0000
    64 H8B      1.8436   5.2932   5.3721   H         1 RES1   0.0000
    65 H9B      2.0606   3.7126   5.5117   H         1 RES1   0.0000
    66 H10B     1.4043   4.3166   4.1830   H         1 RES1   0.0000
    67 C9B     -2.5414   6.8399   9.7950   C.ar      1 RES1   0.0000
    68 H11B    -3.3187   6.5055  10.2278   H         1 RES1   0.0000
    69 C10B    -1.6289   7.6970  10.3420   C.ar      1 RES1   0.0000
    70 H12B    -1.6372   8.0569  11.2215   H         1 RES1   0.0000
    71 C11B    -0.6778   7.9374   9.3436   C.ar      1 RES1   0.0000
    72 C12B     0.5202   8.8163   9.4612   C.3       1 RES1   0.0000
    73 H13B     0.9710   8.8719   8.5931   H         1 RES1   0.0000
    74 H14B     0.2422   9.7131   9.7417   H         1 RES1   0.0000
    75 H15B     1.1357   8.4426  10.1250   H         1 RES1   0.0000
    76 C13B    -4.0110   4.7656   7.9824   C.ar      1 RES1   0.0000
    77 C14B    -5.1697   4.4184   7.2730   C.ar      1 RES1   0.0000
    78 H16B    -5.2933   4.7736   6.4001   H         1 RES1   0.0000
    79 C15B    -6.1453   3.5757   7.7941   C.ar      1 RES1   0.0000
    80 H17B    -6.9277   3.3808   7.2923   H         1 RES1   0.0000
    81 C16B    -5.9656   3.0247   9.0475   C.ar      1 RES1   0.0000
    82 C17B    -4.7884   3.2609   9.7494   C.ar      1 RES1   0.0000
    83 H18B    -4.6380   2.8409  10.5882   H         1 RES1   0.0000
    84 C18B    -3.8393   4.1148   9.2144   C.ar      1 RES1   0.0000
    85 H19B    -3.0370   4.2657   9.7011   H         1 RES1   0.0000
    86 N1B     -2.2549   7.4754   5.7085   N.ar      1 RES1   0.0000
    87 N2B     -3.2491   6.7609   6.3379   N.ar      1 RES1   0.0000
    88 N3B     -0.5808   5.3089   6.2808   N.ar      1 RES1   0.0000
    89 N4B     -1.7622   4.7989   6.7500   N.ar      1 RES1   0.0000
    90 N5B     -1.0092   7.2587   8.2349   N.ar      1 RES1   0.0000
    91 N6B     -2.1506   6.5492   8.5308   N.ar      1 RES1   0.0000
    92 C19      7.2205   7.3933   1.4328   C.3       2 RES2   0.0000
    93 H20      7.5776   7.1531   2.3237   H         2 RES2   0.0000
    94 H21      6.6816   6.6307   1.1041   H         2 RES2   0.0000
    95 Cl1      8.5616   7.6761   0.3267   Cl        2 RES2   0.0000
    96 Cl2      6.1854   8.8155   1.5854   Cl        2 RES2   0.0000
@<TRIPOS>BOND
     1     1    41    1
     2     2    36    1
     3     3    31    1
     4     4     5    1
     5     6     4   ar
     6     7     6    1
     7     8     6   ar
     8     9     8    1
     9    10     9    1
    10    11     9    1
    11    12     9    1
    12    13    14    1
    13    15    13   ar
    14    16    15    1
    15    17    15   ar
    16    18    17    1
    17    19    18    1
    18    20    18    1
    19    21    18    1
    20    22    23    1
    21    24    22   ar
    22    25    24    1
    23    26    24   ar
    24    27    26    1
    25    28    27    1
    26    29    27    1
    27    30    27    1
    28    31    32   ar
    29    32    33    1
    30    34    32   ar
    31    35    34    1
    32    36    34   ar
    33    37    36   ar
    34    38    37    1
    35    39    31   ar
    36    40    39    1
    37    41     8   ar
    38    42     3    1
    39    43     1    1
    40    44     3    1
    41    45     1    1
    42    46     3    1
    43    47    81    1
    44    48    76    1
    45    49    50    1
    46    51    49   ar
    47    52    51    1
    48    53    51   ar
    49    54    53    1
    50    55    54    1
    51    56    54    1
    52    57    54    1
    53    58    59    1
    54    60    58   ar
    55    61    60    1
    56    62    60   ar
    57    63    62    1
    58    64    63    1
    59    65    63    1
    60    66    63    1
    61    67    68    1
    62    69    67   ar
    63    70    69    1
    64    71    69   ar
    65    72    71    1
    66    73    72    1
    67    74    72    1
    68    75    72    1
    69    76    77   ar
    70    77    78    1
    71    79    77   ar
    72    80    79    1
    73    81    79   ar
    74    82    81   ar
    75    83    82    1
    76    84    76   ar
    77    85    84    1
    78    86     1    1
    79    87    48    1
    80    88     1    1
    81    89    48    1
    82    90     1    1
    83    91    48    1
    84     4    42   ar
    85    13    44   ar
    86    17    43   ar
    87    22    46   ar
    88    26    45   ar
    89    37    39   ar
    90    41    42   ar
    91    43    44   ar
    92    45    46   ar
    93    49    87   ar
    94    53    86   ar
    95    58    89   ar
    96    62    88   ar
    97    67    91   ar
    98    71    90   ar
    99    82    84   ar
   100    86    87   ar
   101    88    89   ar
   102    90    91   ar
   103    92    93    1
   104    94    92    1
   105    95    92    1
   106    96    92    1
@<TRIPOS>SUBSTRUCTURE
     1 RES1        1 GROUP             0 ****  ****    0  
     2 RES2       92 GROUP             0 ****  ****    0  
@<TRIPOS>CRYSIN
   11.8468   14.5537   12.7124   90.0000   93.3170   90.0000    14     1
