@<TRIPOS>MOLECULE
MAPPID
    78    82     4     0     0
SMALL
USER_CHARGES
****
Generated from the CSD

@<TRIPOS>ATOM
     1 Fe1      1.4223   0.4930   7.7217   Fe        1 RES1   2.0000
     2 N1       2.4660  -0.9181   9.0584   N.2       1 RES1   0.0000
     3 N2       4.3244  -1.4346  10.1215   N.pl3     1 RES1   0.0000
     4 N3       3.3609   1.4133   8.1543   N.2       1 RES1   0.0000
     5 N4       2.1026  -0.8291   6.0521   N.2       1 RES1   0.0000
     6 N5       1.8616  -1.3038   3.9080   N.pl3     1 RES1   0.0000
     7 N6       0.7044   1.4551   5.8797   N.2       1 RES1   0.0000
     8 N7      -0.2500  -0.9327   7.9073   N.2       1 RES1   0.0000
     9 N8      -2.0096  -1.5816   9.0530   N.pl3     1 RES1   0.0000
    10 N9       0.0943   1.3151   9.2888   N.2       1 RES1   0.0000
    11 N10      1.3678   3.3235   7.8425   N.3       1 RES1   0.0000
    12 C1       2.3131  -2.1593   9.6217   C.2       1 RES1   0.0000
    13 H1       1.5553  -2.6953   9.5661   H         1 RES1   0.0000
    14 C2       3.4796  -2.4724  10.2856   C.2       1 RES1   0.0000
    15 H2       3.6516  -3.2545  10.7585   H         1 RES1   0.0000
    16 C3       3.6794  -0.5218   9.3727   C.2       1 RES1   0.0000
    17 C4       4.1612   0.7653   8.8957   C.2       1 RES1   0.0000
    18 H3       5.0018   1.0932   9.1201   H         1 RES1   0.0000
    19 C5       2.6589  -2.0504   5.7858   C.2       1 RES1   0.0000
    20 H4       3.0742  -2.5962   6.4147   H         1 RES1   0.0000
    21 C6       2.5183  -2.3443   4.4849   C.2       1 RES1   0.0000
    22 H5       2.8144  -3.1151   4.0568   H         1 RES1   0.0000
    23 C7       1.6281  -0.4180   4.8841   C.2       1 RES1   0.0000
    24 C8       0.9348   0.8474   4.7891   C.2       1 RES1   0.0000
    25 H6       0.6718   1.1990   3.9694   H         1 RES1   0.0000
    26 C9      -0.6337  -2.1680   7.4612   C.2       1 RES1   0.0000
    27 H7      -0.2234  -2.6500   6.7801   H         1 RES1   0.0000
    28 C10     -1.7026  -2.5727   8.1699   C.2       1 RES1   0.0000
    29 H8      -2.1509  -3.3821   8.0756   H         1 RES1   0.0000
    30 C11     -1.0864  -0.6188   8.8717   C.2       1 RES1   0.0000
    31 C12     -0.9249   0.6274   9.5869   C.2       1 RES1   0.0000
    32 H9      -1.5354   0.9068  10.2295   H         1 RES1   0.0000
    33 C13      3.7360   2.7557   7.7087   C.3       1 RES1   0.0000
    34 H10      3.7509   2.7944   6.7397   H         1 RES1   0.0000
    35 H11      4.6196   2.9825   8.0375   H         1 RES1   0.0000
    36 C14      2.7135   3.7252   8.2531   C.3       1 RES1   0.0000
    37 H12      2.7664   3.7449   9.2209   H         1 RES1   0.0000
    38 H13      2.9021   4.6181   7.9232   H         1 RES1   0.0000
    39 C15      0.0827   2.7769   5.8365   C.3       1 RES1   0.0000
    40 H14     -0.7628   2.7625   6.3116   H         1 RES1   0.0000
    41 H15     -0.0860   3.0362   4.9175   H         1 RES1   0.0000
    42 C16      1.0291   3.7615   6.4880   C.3       1 RES1   0.0000
    43 H16      1.8382   3.8339   5.9575   H         1 RES1   0.0000
    44 H17      0.6122   4.6366   6.5246   H         1 RES1   0.0000
    45 C17      0.2713   2.6303   9.9171   C.3       1 RES1   0.0000
    46 H18      1.0904   2.6416  10.4357   H         1 RES1   0.0000
    47 H19     -0.4699   2.8162  10.5142   H         1 RES1   0.0000
    48 C18      0.3359   3.6816   8.8222   C.3       1 RES1   0.0000
    49 H20     -0.5262   3.7449   8.3804   H         1 RES1   0.0000
    50 H21      0.5394   4.5459   9.2119   H         1 RES1   0.0000
    51 C19      5.7000  -1.3334  10.6480   C.3       1 RES1   0.0000
    52 H22      5.7778  -1.8691  11.4421   H         1 RES1   0.0000
    53 H23      5.8952  -0.4181  10.8593   H         1 RES1   0.0000
    54 H24      6.3188  -1.6491   9.9852   H         1 RES1   0.0000
    55 C20      1.4593  -1.1839   2.5005   C.3       1 RES1   0.0000
    56 H25      0.5096  -1.0512   2.4498   H         1 RES1   0.0000
    57 H26      1.6959  -1.9883   2.0307   H         1 RES1   0.0000
    58 H27      1.9094  -0.4366   2.1024   H         1 RES1   0.0000
    59 C21     -3.1172  -1.5634  10.0031   C.3       1 RES1   0.0000
    60 H28     -2.7846  -1.3367  10.8750   H         1 RES1   0.0000
    61 H29     -3.5275  -2.4300  10.0323   H         1 RES1   0.0000
    62 H30     -3.7641  -0.9119   9.7275   H         1 RES1   0.0000
    63 Cl1      7.4457   2.6281   9.9563   Cl        2 RES2   0.0000
    64 O1       6.2443   2.8699  10.6630   O.3       2 RES2  -1.0000
    65 O2       7.1775   2.8028   8.6258   O.2       2 RES2   0.0000
    66 O3       7.8840   1.3770  10.1309   O.2       2 RES2   0.0000
    67 O4       8.4400   3.5316  10.3147   O.2       2 RES2   0.0000
    68 Cl2     12.4619   2.5929   8.1733   Cl        3 RES3   0.0000
    69 O5      11.6598   2.8296   7.1365   O.3       3 RES3  -1.0000
    70 O6      12.4027   1.2964   8.6225   O.2       3 RES3   0.0000
    71 O7      13.7065   2.7339   7.6901   O.2       3 RES3   0.0000
    72 O8      12.2901   3.5803   9.1409   O.2       3 RES3   0.0000
    73 N11      6.5207  -1.3149   7.3113   N.1       4 RES4   0.0000
    74 C22      6.0623  -0.6600   6.5223   C.1       4 RES4   0.0000
    75 C23      5.4948   0.1562   5.5003   C.3       4 RES4   0.0000
    76 H31      5.9945   0.9723   5.4285   H         4 RES4   0.0000
    77 H32      4.5832   0.3577   5.7199   H         4 RES4   0.0000
    78 H33      5.5263  -0.3124   4.6620   H         4 RES4   0.0000
@<TRIPOS>BOND
     1     1     2    1
     2     2    12    1
     3     3    14    1
     4     4     1    1
     5     5     1    1
     6     6    21    1
     7     7     1    1
     8     8     1    1
     9     9    28    1
    10    10     1    1
    11    11    36    1
    12    12    13    1
    13    14    12    2
    14    15    14    1
    15    16     2    2
    16    17     4    2
    17    18    17    1
    18    19     5    1
    19    20    19    1
    20    21    19    2
    21    22    21    1
    22    23     5    2
    23    24     7    2
    24    25    24    1
    25    26     8    1
    26    27    26    1
    27    28    26    2
    28    29    28    1
    29    30     8    2
    30    31    10    2
    31    32    31    1
    32    33     4    1
    33    34    33    1
    34    35    33    1
    35    36    33    1
    36    37    36    1
    37    38    36    1
    38    39     7    1
    39    40    39    1
    40    41    39    1
    41    42    11    1
    42    43    42    1
    43    44    42    1
    44    45    10    1
    45    46    45    1
    46    47    45    1
    47    48    11    1
    48    49    48    1
    49    50    48    1
    50    51     3    1
    51    52    51    1
    52    53    51    1
    53    54    51    1
    54    55     6    1
    55    56    55    1
    56    57    55    1
    57    58    55    1
    58    59     9    1
    59    60    59    1
    60    61    59    1
    61    62    59    1
    62     3    16    1
    63     6    23    1
    64     9    30    1
    65    16    17    1
    66    23    24    1
    67    30    31    1
    68    39    42    1
    69    45    48    1
    70    63    64    1
    71    65    63    2
    72    66    63    2
    73    67    63    2
    74    68    69    1
    75    70    68    2
    76    71    68    2
    77    72    68    2
    78    73    74    3
    79    74    75    1
    80    75    76    1
    81    77    75    1
    82    78    75    1
@<TRIPOS>SUBSTRUCTURE
     1 RES1        1 GROUP             0 ****  ****    0  
     2 RES2       63 GROUP             0 ****  ****    0  
     3 RES3       68 GROUP             0 ****  ****    0  
     4 RES4       73 GROUP             0 ****  ****    0  
@<TRIPOS>CRYSIN
   16.5457   16.7931   22.4135   90.0000   90.0000   90.0000    61     1
