@<TRIPOS>MOLECULE
MAPSEC
   186   202     2     0     0
SMALL
NO_CHARGES
****
Generated from the CSD

@<TRIPOS>ATOM
     1 Fe1      0.3498   5.8467   2.6009   Fe        1 RES1   0.0000
     2 N1      -0.3826   6.6790   4.2628   N.2       1 RES1   0.0000
     3 N2      -0.0219   7.5210   1.6297   N.2       1 RES1   0.0000
     4 N3       0.8481   4.9477   0.9063   N.2       1 RES1   0.0000
     5 N4       1.0091   4.2920   3.6430   N.2       1 RES1   0.0000
     6 N5      -1.4778   5.0434   2.2576   N.ar      1 RES1   0.0000
     7 N6       2.1921   6.5929   2.8597   N.ar      1 RES1   0.0000
     8 C1      -0.6156   5.9841   5.4442   C.2       1 RES1   0.0000
     9 C2      -1.5801   6.7355   6.2550   C.2       1 RES1   0.0000
    10 C3      -1.7958   7.9554   5.6077   C.2       1 RES1   0.0000
    11 C4      -1.0165   7.9096   4.3729   C.2       1 RES1   0.0000
    12 C5      -0.8299   8.9308   3.4569   C.2       1 RES1   0.0000
    13 C6      -0.2249   8.7708   2.2204   C.2       1 RES1   0.0000
    14 C7       0.1001   9.8003   1.2478   C.2       1 RES1   0.0000
    15 C8       0.3731   9.1583   0.0307   C.2       1 RES1   0.0000
    16 C9       0.2349   7.7211   0.2832   C.2       1 RES1   0.0000
    17 C10      0.2309   6.7075  -0.6554   C.2       1 RES1   0.0000
    18 C11      0.4348   5.3671  -0.3463   C.2       1 RES1   0.0000
    19 C12      0.4774   4.2548  -1.2688   C.2       1 RES1   0.0000
    20 C13      1.0922   3.1927  -0.5875   C.2       1 RES1   0.0000
    21 C14      1.3344   3.6602   0.7768   C.2       1 RES1   0.0000
    22 C15      1.9496   2.9521   1.8029   C.2       1 RES1   0.0000
    23 C16      1.8851   3.3298   3.1494   C.2       1 RES1   0.0000
    24 C17      2.5422   2.6673   4.2628   C.2       1 RES1   0.0000
    25 C18      1.9575   3.1551   5.4329   C.2       1 RES1   0.0000
    26 C19      0.9719   4.1600   5.0170   C.2       1 RES1   0.0000
    27 C20      0.0986   4.8670   5.8456   C.2       1 RES1   0.0000
    28 C21     -2.2644   6.4229   7.4316   C.2       1 RES1   0.0000
    29 H1      -2.1198   5.6108   7.8588   H         1 RES1   0.0000
    30 C22     -3.1710   7.3493   7.9576   C.2       1 RES1   0.0000
    31 C23     -3.3736   8.5822   7.3102   C.2       1 RES1   0.0000
    32 C24     -2.7035   8.8873   6.1401   C.2       1 RES1   0.0000
    33 H2      -2.8515   9.6991   5.7096   H         1 RES1   0.0000
    34 C25     -1.3305  10.3215   3.7433   C.ar      1 RES1   0.0000
    35 C26     -0.7112  11.1253   4.6804   C.ar      1 RES1   0.0000
    36 H3      -0.0184  10.7915   5.2015   H         1 RES1   0.0000
    37 C27     -1.1410  12.4574   4.8357   C.ar      1 RES1   0.0000
    38 H4      -0.7246  13.0051   5.4620   H         1 RES1   0.0000
    39 C28     -2.1566  12.9435   4.0783   C.ar      1 RES1   0.0000
    40 H5      -2.4172  13.8299   4.1754   H         1 RES1   0.0000
    41 C29     -2.7983  12.1470   3.1753   C.ar      1 RES1   0.0000
    42 H6      -3.5107  12.4826   2.6817   H         1 RES1   0.0000
    43 C30     -2.3933  10.8528   3.0021   C.ar      1 RES1   0.0000
    44 H7      -2.8305  10.3168   2.3790   H         1 RES1   0.0000
    45 C31      0.2944  11.1840   1.3756   C.2       1 RES1   0.0000
    46 H8       0.1339  11.6078   2.1880   H         1 RES1   0.0000
    47 C32      0.7272  11.9131   0.2816   C.2       1 RES1   0.0000
    48 C33      0.9678  11.2679  -0.9597   C.2       1 RES1   0.0000
    49 C34      0.7997   9.8913  -1.0730   C.2       1 RES1   0.0000
    50 H9       0.9722   9.4639  -1.8806   H         1 RES1   0.0000
    51 C35     -0.0591   7.1164  -2.0699   C.ar      1 RES1   0.0000
    52 C36     -1.2872   7.7200  -2.3418   C.ar      1 RES1   0.0000
    53 H10     -1.9173   7.8136  -1.6653   H         1 RES1   0.0000
    54 C37     -1.5678   8.1796  -3.6138   C.ar      1 RES1   0.0000
    55 H11     -2.3844   8.5869  -3.7886   H         1 RES1   0.0000
    56 C38     -0.6350   8.0338  -4.6334   C.ar      1 RES1   0.0000
    57 H12     -0.8294   8.3498  -5.4863   H         1 RES1   0.0000
    58 C39      0.5710   7.4268  -4.3890   C.ar      1 RES1   0.0000
    59 H13      1.1849   7.3190  -5.0785   H         1 RES1   0.0000
    60 C40      0.8749   6.9687  -3.1008   C.ar      1 RES1   0.0000
    61 H14      1.6966   6.5689  -2.9325   H         1 RES1   0.0000
    62 C41      0.0250   4.0891  -2.5910   C.2       1 RES1   0.0000
    63 H15     -0.3992   4.7854  -3.0361   H         1 RES1   0.0000
    64 C42      0.2246   2.8582  -3.2206   C.2       1 RES1   0.0000
    65 C43      0.9024   1.8308  -2.5570   C.2       1 RES1   0.0000
    66 C44      1.3035   1.9664  -1.2364   C.2       1 RES1   0.0000
    67 H16      1.7062   1.2581  -0.7898   H         1 RES1   0.0000
    68 C45      2.6264   1.6612   1.4857   C.ar      1 RES1   0.0000
    69 C46      3.8595   1.6316   0.8351   C.ar      1 RES1   0.0000
    70 H17      4.2932   2.4265   0.6263   H         1 RES1   0.0000
    71 C47      4.4359   0.4184   0.5017   C.ar      1 RES1   0.0000
    72 H18      5.2527   0.3988   0.0583   H         1 RES1   0.0000
    73 C48      3.7987  -0.7722   0.8286   C.ar      1 RES1   0.0000
    74 H19      4.2002  -1.5849   0.6215   H         1 RES1   0.0000
    75 C49      2.5578  -0.7525   1.4679   C.ar      1 RES1   0.0000
    76 H20      2.1151  -1.5438   1.6718   H         1 RES1   0.0000
    77 C50      1.9990   0.4801   1.7932   C.ar      1 RES1   0.0000
    78 H21      1.1778   0.5040   2.2301   H         1 RES1   0.0000
    79 C51      3.6385   1.7873   4.3259   C.2       1 RES1   0.0000
    80 H22      4.0563   1.4947   3.5491   H         1 RES1   0.0000
    81 C52      4.0830   1.3633   5.5818   C.2       1 RES1   0.0000
    82 C53      3.4271   1.7958   6.7486   C.2       1 RES1   0.0000
    83 C54      2.3951   2.7029   6.6985   C.2       1 RES1   0.0000
    84 H23      1.9931   3.0104   7.4785   H         1 RES1   0.0000
    85 C55     -0.0380   4.4315   7.2698   C.ar      1 RES1   0.0000
    86 C56     -0.7951   3.3098   7.6064   C.ar      1 RES1   0.0000
    87 H24     -1.2066   2.8138   6.9364   H         1 RES1   0.0000
    88 C57     -0.9387   2.9289   8.9318   C.ar      1 RES1   0.0000
    89 H25     -1.4406   2.1773   9.1536   H         1 RES1   0.0000
    90 C58     -0.3310   3.6755   9.9223   C.ar      1 RES1   0.0000
    91 H26     -0.4408   3.4345  10.8140   H         1 RES1   0.0000
    92 C59      0.4398   4.7810   9.6018   C.ar      1 RES1   0.0000
    93 H27      0.8647   5.2650  10.2735   H         1 RES1   0.0000
    94 C60      0.5768   5.1606   8.2796   C.ar      1 RES1   0.0000
    95 H28      1.0854   5.9095   8.0644   H         1 RES1   0.0000
    96 C61     -3.8016   7.0817   9.2830   C.2       1 RES1   0.0000
    97 C62     -4.4736   5.4333  10.8334   C.3       1 RES1   0.0000
    98 H29     -3.8450   5.7131  11.5018   H         1 RES1   0.0000
    99 H30     -4.5985   4.4837  10.8885   H         1 RES1   0.0000
   100 H31     -5.3147   5.8737  10.9807   H         1 RES1   0.0000
   101 C63     -4.4110   9.5364   7.7957   C.2       1 RES1   0.0000
   102 C64     -4.8866  11.6876   8.4382   C.3       1 RES1   0.0000
   103 H32     -5.5732  11.7445   7.7698   H         1 RES1   0.0000
   104 H33     -4.4706  12.5465   8.5434   H         1 RES1   0.0000
   105 H34     -5.2748  11.4145   9.2733   H         1 RES1   0.0000
   106 C65      1.0604  13.3599   0.4693   C.2       1 RES1   0.0000
   107 C66      1.0427  15.1655   1.9663   C.3       1 RES1   0.0000
   108 H35      1.9948  15.1723   2.0974   H         1 RES1   0.0000
   109 H36      0.6058  15.4229   2.7820   H         1 RES1   0.0000
   110 H37      0.8102  15.7826   1.2688   H         1 RES1   0.0000
   111 C67      1.4366  12.0196  -2.1816   C.2       1 RES1   0.0000
   112 C68      0.9577  13.7420  -3.6948   C.3       1 RES1   0.0000
   113 H38      1.7296  14.2433  -3.4180   H         1 RES1   0.0000
   114 H39      0.2473  14.3469  -3.9181   H         1 RES1   0.0000
   115 H40      1.1792  13.2115  -4.4635   H         1 RES1   0.0000
   116 C69     -0.3782   2.7198  -4.5784   C.2       1 RES1   0.0000
   117 C70     -1.6530   1.3546  -5.9718   C.3       1 RES1   0.0000
   118 H41     -2.2207   2.0808  -6.2389   H         1 RES1   0.0000
   119 H42     -2.1667   0.5446  -5.9297   H         1 RES1   0.0000
   120 H43     -0.9436   1.2507  -6.6111   H         1 RES1   0.0000
   121 C71      1.2496   0.5360  -3.2287   C.2       1 RES1   0.0000
   122 C72      1.6852  -0.5126  -5.2727   C.3       1 RES1   0.0000
   123 H44      2.5006  -0.9388  -4.9992   H         1 RES1   0.0000
   124 H45      1.7295  -0.3050  -6.2097   H         1 RES1   0.0000
   125 H46      0.9458  -1.1024  -5.1108   H         1 RES1   0.0000
   126 C73      5.3054   0.5222   5.6287   C.2       1 RES1   0.0000
   127 C74      7.2069  -0.0874   6.8555   C.3       1 RES1   0.0000
   128 H47      6.9485  -1.0082   6.7875   H         1 RES1   0.0000
   129 H48      7.6015   0.0724   7.7164   H         1 RES1   0.0000
   130 H49      7.8445   0.1181   6.1676   H         1 RES1   0.0000
   131 C75      3.7431   1.2171   8.0951   C.2       1 RES1   0.0000
   132 C76      4.0857  -0.7418   9.3170   C.3       1 RES1   0.0000
   133 H50      4.8309  -0.2877   9.7184   H         1 RES1   0.0000
   134 H51      4.3214  -1.6560   9.1487   H         1 RES1   0.0000
   135 H52      3.3335  -0.7109   9.9126   H         1 RES1   0.0000
   136 C77     -2.5103   5.7897   1.8450   C.ar      1 RES1   0.0000
   137 H53     -2.4067   6.7123   1.8207   H         1 RES1   0.0000
   138 C78     -3.7139   5.2552   1.4582   C.ar      1 RES1   0.0000
   139 H54     -4.4044   5.8142   1.1847   H         1 RES1   0.0000
   140 C79     -3.8958   3.8997   1.4727   C.ar      1 RES1   0.0000
   141 H55     -4.6988   3.5236   1.1944   H         1 RES1   0.0000
   142 C80     -2.8518   3.1034   1.9129   C.ar      1 RES1   0.0000
   143 H56     -2.9490   2.1808   1.9615   H         1 RES1   0.0000
   144 C81     -1.6669   3.7047   2.2787   C.ar      1 RES1   0.0000
   145 H57     -0.9622   3.1636   2.5522   H         1 RES1   0.0000
   146 C82      3.0483   6.7401   1.8239   C.ar      1 RES1   0.0000
   147 H58      2.7402   6.5602   0.9646   H         1 RES1   0.0000
   148 C83      4.3202   7.1333   1.9760   C.ar      1 RES1   0.0000
   149 H59      4.8714   7.2315   1.2332   H         1 RES1   0.0000
   150 C84      4.8142   7.3960   3.2546   C.ar      1 RES1   0.0000
   151 H60      5.7008   7.6475   3.3808   H         1 RES1   0.0000
   152 C85      3.9682   7.2733   4.3097   C.ar      1 RES1   0.0000
   153 H61      4.2626   7.4671   5.1707   H         1 RES1   0.0000
   154 C86      2.6564   6.8516   4.0961   C.ar      1 RES1   0.0000
   155 H62      2.0869   6.7495   4.8244   H         1 RES1   0.0000
   156 O1      -3.9710   5.7798   9.5209   O.3       1 RES1   0.0000
   157 O2      -4.0604   7.9574  10.0825   O.2       1 RES1   0.0000
   158 O3      -3.9042  10.7273   8.0320   O.3       1 RES1   0.0000
   159 O4      -5.5878   9.2605   7.8815   O.2       1 RES1   0.0000
   160 O5       0.6222  13.8386   1.5941   O.3       1 RES1   0.0000
   161 O6       1.7466  13.9861  -0.2945   O.2       1 RES1   0.0000
   162 O7       0.5344  12.8754  -2.6169   O.3       1 RES1   0.0000
   163 O8       2.4695  11.8160  -2.7302   O.2       1 RES1   0.0000
   164 O9      -1.0968   1.6328  -4.6836   O.3       1 RES1   0.0000
   165 O10     -0.2780   3.5187  -5.4491   O.2       1 RES1   0.0000
   166 O11      6.0419   0.7520   6.6969   O.3       1 RES1   0.0000
   167 O12      5.6183  -0.2508   4.7516   O.2       1 RES1   0.0000
   168 O13      3.8953   1.8914   9.1001   O.2       1 RES1   0.0000
   169 O14      1.5026   0.7048  -4.5218   O.3       1 RES1   0.0000
   170 O15      1.3063  -0.5181  -2.6752   O.2       1 RES1   0.0000
   171 O16      3.7447  -0.1014   8.0822   O.3       1 RES1   0.0000
   172 C87      5.9680  11.3668   5.6676   C.3       2 RES2   0.0000
   173 H63      5.7435  10.4399   5.7906   H         2 RES2   0.0000
   174 H64      5.9164  11.8218   6.5107   H         2 RES2   0.0000
   175 H65      6.8601  11.4363   5.3196   H         2 RES2   0.0000
   176 C88      5.0225  11.9780   4.7208   C.3       2 RES2   0.0000
   177 H66      4.1364  11.9555   5.1125   H         2 RES2   0.0000
   178 H67      5.2661  12.9091   4.5994   H         2 RES2   0.0000
   179 O17      4.9748  11.3893   3.5200   O.3       2 RES2   0.0000
   180 C89      4.1537  11.9092   2.5829   C.3       2 RES2   0.0000
   181 H68      4.4404  12.8004   2.3321   H         2 RES2   0.0000
   182 H69      3.2417  11.9517   2.9098   H         2 RES2   0.0000
   183 C90      4.2597  10.9747   1.4290   C.3       2 RES2   0.0000
   184 H70      5.1732  10.9268   1.1393   H         2 RES2   0.0000
   185 H71      3.7120  11.2958   0.7072   H         2 RES2   0.0000
   186 H72      3.9614  10.1018   1.6944   H         2 RES2   0.0000
@<TRIPOS>BOND
     1     1     2    1
     2     2     8    1
     3     3     1    1
     4     4     1    1
     5     5     1    1
     6     6     1    1
     7     7     1    1
     8     8     9    1
     9     9    10    2
    10    10    11    1
    11    11     2    1
    12    12    11    2
    13    13     3    2
    14    14    13    1
    15    15    14    2
    16    16     3    1
    17    17    16    2
    18    18     4    1
    19    19    18    2
    20    20    19    1
    21    21     4    1
    22    22    21    1
    23    23     5    1
    24    24    23    1
    25    25    24    2
    26    26     5    2
    27    27     8    2
    28    28     9    1
    29    29    28    1
    30    30    28    2
    31    31    30    1
    32    32    10    1
    33    33    32    1
    34    34    12    1
    35    35    34   ar
    36    36    35    1
    37    37    35   ar
    38    38    37    1
    39    39    37   ar
    40    40    39    1
    41    41    39   ar
    42    42    41    1
    43    43    34   ar
    44    44    43    1
    45    45    14    1
    46    46    45    1
    47    47    45    2
    48    48    47    1
    49    49    15    1
    50    50    49    1
    51    51    17    1
    52    52    51   ar
    53    53    52    1
    54    54    52   ar
    55    55    54    1
    56    56    54   ar
    57    57    56    1
    58    58    56   ar
    59    59    58    1
    60    60    51   ar
    61    61    60    1
    62    62    19    1
    63    63    62    1
    64    64    62    2
    65    65    64    1
    66    66    20    1
    67    67    66    1
    68    68    22    1
    69    69    68   ar
    70    70    69    1
    71    71    69   ar
    72    72    71    1
    73    73    71   ar
    74    74    73    1
    75    75    73   ar
    76    76    75    1
    77    77    68   ar
    78    78    77    1
    79    79    24    1
    80    80    79    1
    81    81    79    2
    82    82    81    1
    83    83    25    1
    84    84    83    1
    85    85    27    1
    86    86    85   ar
    87    87    86    1
    88    88    86   ar
    89    89    88    1
    90    90    88   ar
    91    91    90    1
    92    92    90   ar
    93    93    92    1
    94    94    85   ar
    95    95    94    1
    96    96    30    1
    97    97    98    1
    98    99    97    1
    99   100    97    1
   100   101    31    1
   101   102   103    1
   102   104   102    1
   103   105   102    1
   104   106    47    1
   105   107   108    1
   106   109   107    1
   107   110   107    1
   108   111    48    1
   109   112   113    1
   110   114   112    1
   111   115   112    1
   112   116    64    1
   113   117   118    1
   114   119   117    1
   115   120   117    1
   116   121    65    1
   117   122   123    1
   118   124   122    1
   119   125   122    1
   120   126    81    1
   121   127   128    1
   122   129   127    1
   123   130   127    1
   124   131    82    1
   125   132   133    1
   126   134   132    1
   127   135   132    1
   128   136     6   ar
   129   137   136    1
   130   138   136   ar
   131   139   138    1
   132   140   138   ar
   133   141   140    1
   134   142   140   ar
   135   143   142    1
   136   144     6   ar
   137   145   144    1
   138   146     7   ar
   139   147   146    1
   140   148   146   ar
   141   149   148    1
   142   150   148   ar
   143   151   150    1
   144   152   150   ar
   145   153   152    1
   146   154     7   ar
   147   155   154    1
   148   156    96    1
   149   157    96    2
   150   158   101    1
   151   159   101    2
   152   160   106    1
   153   161   106    2
   154   162   111    1
   155   163   111    2
   156   164   116    1
   157   165   116    2
   158   166   126    1
   159   167   126    2
   160   168   131    2
   161   169   121    1
   162   170   121    2
   163   171   131    1
   164    12    13    1
   165    15    16    1
   166    17    18    1
   167    20    21    2
   168    22    23    2
   169    25    26    1
   170    26    27    1
   171    31    32    2
   172    41    43   ar
   173    48    49    2
   174    58    60   ar
   175    65    66    2
   176    75    77   ar
   177    82    83    2
   178    92    94   ar
   179    97   156    1
   180   102   158    1
   181   107   160    1
   182   112   162    1
   183   117   164    1
   184   122   169    1
   185   127   166    1
   186   132   171    1
   187   142   144   ar
   188   152   154   ar
   189   172   173    1
   190   174   172    1
   191   175   172    1
   192   176   172    1
   193   177   176    1
   194   178   176    1
   195   179   176    1
   196   180   179    1
   197   181   180    1
   198   182   180    1
   199   183   180    1
   200   184   183    1
   201   185   183    1
   202   186   183    1
@<TRIPOS>SUBSTRUCTURE
     1 RES1        1 GROUP             0 ****  ****    0  
     2 RES2      172 GROUP             0 ****  ****    0  
@<TRIPOS>CRYSIN
   15.1863   17.4163   17.6110  107.2710   97.5520  111.6940     2     1
