@<TRIPOS>MOLECULE
MASXEL
   125   132     2     0     0
SMALL
NO_CHARGES
****
Generated from the CSD

@<TRIPOS>ATOM
     1 C1       8.2113   4.5275   3.2712   C.3       1 RES1   0.0000
     2 C2       9.1145   4.1561   2.2488   C.1       1 RES1   0.0000
     3 C3       9.0113   8.4222   3.4638   C.3       1 RES1   0.0000
     4 H1       8.4497   8.7729   4.1698   H         1 RES1   0.0000
     5 H2       8.9953   9.0526   2.7279   H         1 RES1   0.0000
     6 C4      10.3891   7.3517   5.1189   C.3       1 RES1   0.0000
     7 H3      11.2877   7.2325   5.4673   H         1 RES1   0.0000
     8 H4       9.8412   7.7276   5.8226   H         1 RES1   0.0000
     9 C5      10.4303   8.2915   3.9750   C.3       1 RES1   0.0000
    10 C6      10.8544   9.6784   4.5114   C.3       1 RES1   0.0000
    11 H5      10.8957  10.3042   3.7847   H         1 RES1   0.0000
    12 H6      11.7186   9.6097   4.9217   H         1 RES1   0.0000
    13 H7      10.2148   9.9787   5.1579   H         1 RES1   0.0000
    14 C7       6.8359   0.8734   3.9727   C.3       1 RES1   0.0000
    15 H8       6.2261   0.8986   4.7269   H         1 RES1   0.0000
    16 H9       7.4090   0.0986   4.0827   H         1 RES1   0.0000
    17 C8       5.2885   1.9760   2.3955   C.3       1 RES1   0.0000
    18 H10      4.8851   1.8912   1.5176   H         1 RES1   0.0000
    19 H11      4.5710   2.0769   3.0397   H         1 RES1   0.0000
    20 C9       6.0335   0.7129   2.7027   C.3       1 RES1   0.0000
    21 C10      6.9757   0.4218   1.5726   C.3       1 RES1   0.0000
    22 H12      6.4783   0.3324   0.7565   H         1 RES1   0.0000
    23 H13      7.4457  -0.3966   1.7514   H         1 RES1   0.0000
    24 H14      7.6038   1.1416   1.4855   H         1 RES1   0.0000
    25 C11      5.0547  -0.4447   2.8907   C.3       1 RES1   0.0000
    26 H15      4.5435  -0.5639   2.0861   H         1 RES1   0.0000
    27 H16      4.4610  -0.2453   3.6197   H         1 RES1   0.0000
    28 H17      5.5407  -1.2493   3.0833   H         1 RES1   0.0000
    29 C12     11.3725   7.8124   2.8701   C.3       1 RES1   0.0000
    30 H18     11.3587   8.4405   2.1434   H         1 RES1   0.0000
    31 H19     11.0859   6.9528   2.5537   H         1 RES1   0.0000
    32 H20     12.2642   7.7437   3.2162   H         1 RES1   0.0000
    33 Fe1      5.6124   5.6124   5.6124   Fe        1 RES1   0.0000
    34 N1       9.8412   3.8260   1.4327   N.1       1 RES1   0.0000
    35 O1       7.3943   6.2889   5.1070   O.2       1 RES1   0.0000
    36 O2       8.4761   7.1419   3.0126   O.3       1 RES1   0.0000
    37 O3       9.8428   6.0363   4.7257   O.3       1 RES1   0.0000
    38 O4       6.1475   3.8620   4.8390   O.2       1 RES1   0.0000
    39 O5       6.0888   3.1612   2.4162   O.3       1 RES1   0.0000
    40 O6       7.6419   2.0473   3.9968   O.3       1 RES1   0.0000
    41 P1       8.4211   6.0044   4.0832   P.3       1 RES1   0.0000
    42 P2       6.9794   3.4207   3.6841   P.3       1 RES1   0.0000
    43 C1D      4.5275   3.2712   8.2113   C.3       1 RES1   0.0000
    44 C1H      3.2712   8.2113   4.5275   C.3       1 RES1   0.0000
    45 C2D      4.1561   2.2488   9.1145   C.1       1 RES1   0.0000
    46 C2H      2.2488   9.1145   4.1561   C.1       1 RES1   0.0000
    47 C3D      8.4222   3.4638   9.0113   C.3       1 RES1   0.0000
    48 C3H      3.4638   9.0113   8.4222   C.3       1 RES1   0.0000
    49 H1D      8.7729   4.1698   8.4497   H         1 RES1   0.0000
    50 H1H      4.1698   8.4497   8.7729   H         1 RES1   0.0000
    51 H2D      9.0526   2.7279   8.9953   H         1 RES1   0.0000
    52 H2H      2.7279   8.9953   9.0526   H         1 RES1   0.0000
    53 C4D      7.3517   5.1189  10.3891   C.3       1 RES1   0.0000
    54 C4H      5.1189  10.3891   7.3517   C.3       1 RES1   0.0000
    55 H3D      7.2325   5.4673  11.2877   H         1 RES1   0.0000
    56 H3H      5.4673  11.2877   7.2325   H         1 RES1   0.0000
    57 H4D      7.7276   5.8226   9.8412   H         1 RES1   0.0000
    58 H4H      5.8226   9.8412   7.7276   H         1 RES1   0.0000
    59 C5D      8.2915   3.9750  10.4303   C.3       1 RES1   0.0000
    60 C5H      3.9750  10.4303   8.2915   C.3       1 RES1   0.0000
    61 C6D      9.6784   4.5114  10.8544   C.3       1 RES1   0.0000
    62 C6H      4.5114  10.8544   9.6784   C.3       1 RES1   0.0000
    63 H5D     10.3042   3.7847  10.8957   H         1 RES1   0.0000
    64 H5H      3.7847  10.8957  10.3042   H         1 RES1   0.0000
    65 H6D      9.6097   4.9217  11.7186   H         1 RES1   0.0000
    66 H6H      4.9217  11.7186   9.6097   H         1 RES1   0.0000
    67 H7D      9.9787   5.1579  10.2148   H         1 RES1   0.0000
    68 H7H      5.1579  10.2148   9.9787   H         1 RES1   0.0000
    69 C7D      0.8734   3.9727   6.8359   C.3       1 RES1   0.0000
    70 C7H      3.9727   6.8359   0.8734   C.3       1 RES1   0.0000
    71 H8D      0.8986   4.7269   6.2261   H         1 RES1   0.0000
    72 H8H      4.7269   6.2261   0.8986   H         1 RES1   0.0000
    73 H9D      0.0986   4.0827   7.4090   H         1 RES1   0.0000
    74 H9H      4.0827   7.4090   0.0986   H         1 RES1   0.0000
    75 C8D      1.9760   2.3955   5.2885   C.3       1 RES1   0.0000
    76 C8H      2.3955   5.2885   1.9760   C.3       1 RES1   0.0000
    77 H10D     1.8912   1.5176   4.8851   H         1 RES1   0.0000
    78 H10H     1.5176   4.8851   1.8912   H         1 RES1   0.0000
    79 H11D     2.0769   3.0397   4.5710   H         1 RES1   0.0000
    80 H11H     3.0397   4.5710   2.0769   H         1 RES1   0.0000
    81 C9D      0.7129   2.7027   6.0335   C.3       1 RES1   0.0000
    82 C9H      2.7027   6.0335   0.7129   C.3       1 RES1   0.0000
    83 C10D     0.4218   1.5726   6.9757   C.3       1 RES1   0.0000
    84 C10H     1.5726   6.9757   0.4218   C.3       1 RES1   0.0000
    85 H12D     0.3324   0.7565   6.4783   H         1 RES1   0.0000
    86 H12H     0.7565   6.4783   0.3324   H         1 RES1   0.0000
    87 H13D    -0.3966   1.7514   7.4457   H         1 RES1   0.0000
    88 H13H     1.7514   7.4457  -0.3966   H         1 RES1   0.0000
    89 H14D     1.1416   1.4855   7.6038   H         1 RES1   0.0000
    90 H14H     1.4855   7.6038   1.1416   H         1 RES1   0.0000
    91 C11D    -0.4447   2.8907   5.0547   C.3       1 RES1   0.0000
    92 C11H     2.8907   5.0547  -0.4447   C.3       1 RES1   0.0000
    93 H15D    -0.5639   2.0861   4.5435   H         1 RES1   0.0000
    94 H15H     2.0861   4.5435  -0.5639   H         1 RES1   0.0000
    95 H16D    -0.2453   3.6197   4.4610   H         1 RES1   0.0000
    96 H16H     3.6197   4.4610  -0.2453   H         1 RES1   0.0000
    97 H17D    -1.2493   3.0833   5.5407   H         1 RES1   0.0000
    98 H17H     3.0833   5.5407  -1.2493   H         1 RES1   0.0000
    99 C12D     7.8124   2.8701  11.3725   C.3       1 RES1   0.0000
   100 C12H     2.8701  11.3725   7.8124   C.3       1 RES1   0.0000
   101 H18D     8.4405   2.1434  11.3587   H         1 RES1   0.0000
   102 H18H     2.1434  11.3587   8.4405   H         1 RES1   0.0000
   103 H19D     6.9528   2.5537  11.0859   H         1 RES1   0.0000
   104 H19H     2.5537  11.0859   6.9528   H         1 RES1   0.0000
   105 H20D     7.7437   3.2162  12.2642   H         1 RES1   0.0000
   106 H20H     3.2162  12.2642   7.7437   H         1 RES1   0.0000
   107 N1D      3.8260   1.4327   9.8412   N.1       1 RES1   0.0000
   108 N1H      1.4327   9.8412   3.8260   N.1       1 RES1   0.0000
   109 O1D      6.2889   5.1070   7.3943   O.2       1 RES1   0.0000
   110 O1H      5.1070   7.3943   6.2889   O.2       1 RES1   0.0000
   111 O2D      7.1419   3.0126   8.4761   O.3       1 RES1   0.0000
   112 O2H      3.0126   8.4761   7.1419   O.3       1 RES1   0.0000
   113 O3D      6.0363   4.7257   9.8428   O.3       1 RES1   0.0000
   114 O3H      4.7257   9.8428   6.0363   O.3       1 RES1   0.0000
   115 O4D      3.8620   4.8390   6.1475   O.2       1 RES1   0.0000
   116 O4H      4.8390   6.1475   3.8620   O.2       1 RES1   0.0000
   117 O5D      3.1612   2.4162   6.0888   O.3       1 RES1   0.0000
   118 O5H      2.4162   6.0888   3.1612   O.3       1 RES1   0.0000
   119 O6D      2.0473   3.9968   7.6419   O.3       1 RES1   0.0000
   120 O6H      3.9968   7.6419   2.0473   O.3       1 RES1   0.0000
   121 P1D      6.0044   4.0832   8.4211   P.3       1 RES1   0.0000
   122 P1H      4.0832   8.4211   6.0044   P.3       1 RES1   0.0000
   123 P2D      3.4207   3.6841   6.9794   P.3       1 RES1   0.0000
   124 P2H      3.6841   6.9794   3.4207   P.3       1 RES1   0.0000
   125 O7       0.9811   0.9811   0.9811   O.3       2 RES2   0.0000
@<TRIPOS>BOND
     1     1     2    1
     2     2    34    3
     3     3     4    1
     4     5     3    1
     5     6     7    1
     6     8     6    1
     7     9     3    1
     8    10     9    1
     9    11    10    1
    10    12    10    1
    11    13    10    1
    12    14    15    1
    13    16    14    1
    14    17    18    1
    15    19    17    1
    16    20    14    1
    17    21    20    1
    18    22    21    1
    19    23    21    1
    20    24    21    1
    21    25    20    1
    22    26    25    1
    23    27    25    1
    24    28    25    1
    25    29     9    1
    26    30    29    1
    27    31    29    1
    28    32    29    1
    29    33    35    1
    30    35    41   un
    31    36     3    1
    32    37     6    1
    33    38    33    1
    34    39    17    1
    35    40    14    1
    36    41     1   un
    37    42     1   un
    38    43    45    1
    39    44    46    1
    40    45   107    3
    41    46   108    3
    42    47    49    1
    43    48    50    1
    44    51    47    1
    45    52    48    1
    46    53    55    1
    47    54    56    1
    48    57    53    1
    49    58    54    1
    50    59    47    1
    51    60    48    1
    52    61    59    1
    53    62    60    1
    54    63    61    1
    55    64    62    1
    56    65    61    1
    57    66    62    1
    58    67    61    1
    59    68    62    1
    60    69    71    1
    61    70    72    1
    62    73    69    1
    63    74    70    1
    64    75    77    1
    65    76    78    1
    66    79    75    1
    67    80    76    1
    68    81    69    1
    69    82    70    1
    70    83    81    1
    71    84    82    1
    72    85    83    1
    73    86    84    1
    74    87    83    1
    75    88    84    1
    76    89    83    1
    77    90    84    1
    78    91    81    1
    79    92    82    1
    80    93    91    1
    81    94    92    1
    82    95    91    1
    83    96    92    1
    84    97    91    1
    85    98    92    1
    86    99    59    1
    87   100    60    1
    88   101    99    1
    89   102   100    1
    90   103    99    1
    91   104   100    1
    92   105    99    1
    93   106   100    1
    94   109    33    1
    95   110    33    1
    96   111    47    1
    97   112    48    1
    98   113    53    1
    99   114    54    1
   100   115    33    1
   101   116    33    1
   102   117    75    1
   103   118    76    1
   104   119    69    1
   105   120    70    1
   106   121    43   un
   107   122    44   un
   108   123    43   un
   109   124    44   un
   110     6     9    1
   111    17    20    1
   112    36    41    1
   113    37    41    1
   114    38    42   un
   115    39    42    1
   116    40    42    1
   117    53    59    1
   118    54    60    1
   119    75    81    1
   120    76    82    1
   121   109   121   un
   122   110   122   un
   123   111   121    1
   124   112   122    1
   125   113   121    1
   126   114   122    1
   127   115   123   un
   128   116   124   un
   129   117   123    1
   130   118   124    1
   131   119   123    1
   132   120   124    1
@<TRIPOS>SUBSTRUCTURE
     1 RES1        1 GROUP             0 ****  ****    0  
     2 RES2      125 GROUP             0 ****  ****    0  
@<TRIPOS>CRYSIN
   22.9238   22.9238   22.9238   90.0000   90.0000   90.0000   205     1
