@<TRIPOS>MOLECULE
MATKIE
    83    91     2     0     0
SMALL
NO_CHARGES
****
Generated from the CSD

@<TRIPOS>ATOM
     1 Fe1      6.1579   4.9055   0.6663   Fe        1 RES1   0.0000
     2 S1       8.9845   7.6204   2.6661   S.3       1 RES1   0.0000
     3 Cl1      1.1276   0.1792  -1.7704   Cl        1 RES1   0.0000
     4 N1       4.2536   4.5676   0.6511   N.2       1 RES1   0.0000
     5 C1       3.5369   3.4656   0.0875   C.ar      1 RES1   0.0000
     6 S2       6.7456   6.1541  -3.5219   S.3       1 RES1   0.0000
     7 Cl2      4.5562   1.9437   7.1963   Cl        1 RES1   0.0000
     8 N2       3.5152   5.2942   1.4581   N.2       1 RES1   0.0000
     9 C2       3.7812   3.0766  -1.2030   C.ar      1 RES1   0.0000
    10 H1       4.4410   3.5061  -1.6977   H         1 RES1   0.0000
    11 N3       5.5298   6.1839   1.8821   N.2       1 RES1   0.0000
    12 C3       3.0559   2.0523  -1.7722   C.ar      1 RES1   0.0000
    13 H2       3.2228   1.7879  -2.6469   H         1 RES1   0.0000
    14 N4       6.3562   7.0842   2.4857   N.2       1 RES1   0.0000
    15 C4       2.0872   1.4308  -1.0344   C.ar      1 RES1   0.0000
    16 N5       7.8644   5.7421   1.2658   N.2       1 RES1   0.0000
    17 C5       1.8535   1.7886   0.2632   C.ar      1 RES1   0.0000
    18 H3       1.2071   1.3404   0.7606   H         1 RES1   0.0000
    19 N6       6.3626   3.2768   1.7347   N.2       1 RES1   0.0000
    20 C6       2.5784   2.8178   0.8362   C.ar      1 RES1   0.0000
    21 H4       2.4199   3.0709   1.7175   H         1 RES1   0.0000
    22 C7       4.2266   6.2426   2.1036   C.2       1 RES1   0.0000
    23 N7       6.7376   2.1968   1.0837   N.2       1 RES1   0.0000
    24 C8       3.5321   7.2566   2.9634   C.3       1 RES1   0.0000
    25 H5       4.1828   7.9133   3.2554   H         1 RES1   0.0000
    26 H6       2.8699   7.7183   2.4248   H         1 RES1   0.0000
    27 N8       6.7984   3.6890  -0.6015   N.2       1 RES1   0.0000
    28 C9       2.9104   6.7268   4.0708   C.3       1 RES1   0.0000
    29 H7       2.4775   7.4309   4.5606   H         1 RES1   0.0000
    30 H8       3.5631   6.3019   4.6306   H         1 RES1   0.0000
    31 H9       2.2568   6.0823   3.7924   H         1 RES1   0.0000
    32 N9       7.0311   4.0289  -1.8913   N.2       1 RES1   0.0000
    33 C10      7.5928   6.7550   2.0829   C.2       1 RES1   0.0000
    34 C11      9.2336   5.5789   1.0827   C.ar      1 RES1   0.0000
    35 N10      6.1827   6.0361  -0.9882   N.2       1 RES1   0.0000
    36 C12      9.8648   4.5924   0.3575   C.ar      1 RES1   0.0000
    37 H10      9.3687   3.9741  -0.1293   H         1 RES1   0.0000
    38 C13     11.2396   4.5318   0.3621   C.ar      1 RES1   0.0000
    39 H11     11.6708   3.8612  -0.1171   H         1 RES1   0.0000
    40 C14     11.9896   5.4500   1.0633   C.ar      1 RES1   0.0000
    41 H12     12.9167   5.3905   1.0496   H         1 RES1   0.0000
    42 C15     11.3891   6.4540   1.7844   C.ar      1 RES1   0.0000
    43 H13     11.8995   7.0737   2.2529   H         1 RES1   0.0000
    44 C16      9.9998   6.5230   1.7952   C.ar      1 RES1   0.0000
    45 C17      5.8824   2.9787   3.0412   C.ar      1 RES1   0.0000
    46 C18      5.9988   3.9140   4.0551   C.ar      1 RES1   0.0000
    47 H14      6.3626   4.7521   3.8761   H         1 RES1   0.0000
    48 C19      5.5766   3.6034   5.3273   C.ar      1 RES1   0.0000
    49 H15      5.6514   4.2327   6.0073   H         1 RES1   0.0000
    50 C20      5.0476   2.3699   5.5951   C.ar      1 RES1   0.0000
    51 C21      4.8747   1.4675   4.5865   C.ar      1 RES1   0.0000
    52 H16      4.4714   0.6487   4.7614   H         1 RES1   0.0000
    53 C22      5.2961   1.7670   3.3041   C.ar      1 RES1   0.0000
    54 H17      5.1813   1.1475   2.6211   H         1 RES1   0.0000
    55 C23      7.0182   2.4378  -0.2069   C.2       1 RES1   0.0000
    56 C24      7.4795   1.3271  -1.1075   C.3       1 RES1   0.0000
    57 H18      7.3657   0.4844  -0.6420   H         1 RES1   0.0000
    58 H19      6.9079   1.3076  -1.8909   H         1 RES1   0.0000
    59 C25      8.9082   1.4338  -1.5608   C.3       1 RES1   0.0000
    60 H20      9.1179   0.6938  -2.1358   H         1 RES1   0.0000
    61 H21      9.4881   1.4184  -0.7956   H         1 RES1   0.0000
    62 H22      9.0316   2.2560  -2.0384   H         1 RES1   0.0000
    63 C26      6.6610   5.3271  -2.0085   C.2       1 RES1   0.0000
    64 C27      5.8602   7.3289  -1.3849   C.ar      1 RES1   0.0000
    65 C28      5.3360   8.3508  -0.6176   C.ar      1 RES1   0.0000
    66 H23      5.1749   8.2212   0.2890   H         1 RES1   0.0000
    67 C29      5.0527   9.5639  -1.2063   C.ar      1 RES1   0.0000
    68 H24      4.6876  10.2514  -0.6982   H         1 RES1   0.0000
    69 C30      5.3091   9.7655  -2.5496   C.ar      1 RES1   0.0000
    70 H25      5.1283  10.5962  -2.9268   H         1 RES1   0.0000
    71 C31      5.8190   8.7798  -3.3330   C.ar      1 RES1   0.0000
    72 H26      5.9783   8.9233  -4.2381   H         1 RES1   0.0000
    73 C32      6.0917   7.5697  -2.7513   C.ar      1 RES1   0.0000
    74 O1       1.0717   1.4595   3.7544   O.2       2 RES2   0.0000
    75 C33      0.4819   1.1926   5.9495   C.3       2 RES2   0.0000
    76 H27      0.2659   0.2915   5.7000   H         2 RES2   0.0000
    77 H28     -0.3111   1.6360   6.2614   H         2 RES2   0.0000
    78 H29      1.1381   1.1824   6.6493   H         2 RES2   0.0000
    79 C34      1.0209   1.9132   4.7782   C.2       2 RES2   0.0000
    80 C35      1.4084   3.3070   4.9881   C.3       2 RES2   0.0000
    81 H30      1.7717   3.6641   4.1742   H         2 RES2   0.0000
    82 H31      2.0694   3.3562   5.6818   H         2 RES2   0.0000
    83 H32      0.6374   3.8181   5.2437   H         2 RES2   0.0000
@<TRIPOS>BOND
     1     1     4    1
     2     2    33    1
     3     3    15    1
     4     4     5    1
     5     5     9   ar
     6     6    63    1
     7     7    50    1
     8     8     4    2
     9     9    10    1
    10    11     1    1
    11    12     9   ar
    12    13    12    1
    13    14    11    1
    14    15    12   ar
    15    16     1    1
    16    17    15   ar
    17    18    17    1
    18    19     1    1
    19    20     5   ar
    20    21    20    1
    21    22     8    1
    22    23    19    2
    23    24    22    1
    24    25    24    1
    25    26    24    1
    26    27     1    1
    27    28    24    1
    28    29    28    1
    29    30    28    1
    30    31    28    1
    31    32    27    1
    32    33    14    2
    33    34    16    1
    34    35     1    1
    35    36    34   ar
    36    37    36    1
    37    38    36   ar
    38    39    38    1
    39    40    38   ar
    40    41    40    1
    41    42    40   ar
    42    43    42    1
    43    44     2    1
    44    45    19    1
    45    46    45   ar
    46    47    46    1
    47    48    46   ar
    48    49    48    1
    49    50    48   ar
    50    51    50   ar
    51    52    51    1
    52    53    45   ar
    53    54    53    1
    54    55    23    1
    55    56    55    1
    56    57    56    1
    57    58    56    1
    58    59    56    1
    59    60    59    1
    60    61    59    1
    61    62    59    1
    62    63    32    2
    63    64    35    1
    64    65    64   ar
    65    66    65    1
    66    67    65   ar
    67    68    67    1
    68    69    67   ar
    69    70    69    1
    70    71    69   ar
    71    72    71    1
    72    73     6    1
    73    11    22    2
    74    16    33    1
    75    17    20   ar
    76    27    55    2
    77    34    44   ar
    78    35    63    1
    79    42    44   ar
    80    51    53   ar
    81    64    73   ar
    82    71    73   ar
    83    74    79    2
    84    75    76    1
    85    77    75    1
    86    78    75    1
    87    79    75    1
    88    80    79    1
    89    81    80    1
    90    82    80    1
    91    83    80    1
@<TRIPOS>SUBSTRUCTURE
     1 RES1        1 GROUP             0 ****  ****    0  
     2 RES2       74 GROUP             0 ****  ****    0  
@<TRIPOS>CRYSIN
   12.0969   20.5274   16.3277   90.0000  111.3010   90.0000   231     1
