@<TRIPOS>MOLECULE
MAVHOH
   100   103     3     0     0
SMALL
NO_CHARGES
****
Generated from the CSD

@<TRIPOS>ATOM
     1 Fe1      6.6413  10.6542   4.0783   Fe        1 RES1   0.0000
     2 O1       5.6013  11.8185   5.3823   O.2       1 RES1   0.0000
     3 O2       4.8625  10.5409   3.2157   O.3       1 RES1   0.0000
     4 O3       2.0100  11.4518   1.1561   O.2       1 RES1   0.0000
     5 O4       8.2868  10.7315   5.2955   O.2       1 RES1   0.0000
     6 O5       6.4407   8.9045   5.0410   O.3       1 RES1   0.0000
     7 O6       5.5817   6.6400   8.2806   O.2       1 RES1   0.0000
     8 O7       7.6036   9.9031   2.4479   O.2       1 RES1   0.0000
     9 O8       7.2942  12.3591   3.2324   O.3       1 RES1   0.0000
    10 O9      10.0611  15.2022   2.3512   O.2       1 RES1   0.0000
    11 N1       1.7200  12.0880   4.1691   N.pl3     1 RES1   0.0000
    12 N2       2.0256   9.4202   2.1543   N.am      1 RES1   0.0000
    13 H1       2.1690   8.9829   2.9047   H         1 RES1   0.0000
    14 N3       8.2038   7.6609   7.9787   N.pl3     1 RES1   0.0000
    15 N4       5.4236   6.4285   6.0470   N.am      1 RES1   0.0000
    16 H2       5.7780   6.5957   5.2597   H         1 RES1   0.0000
    17 N5       9.7859  12.8512   0.6321   N.pl3     1 RES1   0.0000
    18 N6       7.9664  14.8800   3.0543   N.am      1 RES1   0.0000
    19 H3       7.2426  14.3808   3.0160   H         1 RES1   0.0000
    20 C1       4.3581  11.9412   5.0397   C.2       1 RES1   0.0000
    21 C2       3.9419  11.2374   3.8590   C.2       1 RES1   0.0000
    22 C3       2.6301  11.3380   3.4443   C.2       1 RES1   0.0000
    23 C4       2.0988  12.7736   5.2853   C.2       1 RES1   0.0000
    24 C5       3.4098  12.7052   5.7123   C.2       1 RES1   0.0000
    25 H4       3.6706  13.1922   6.4858   H         1 RES1   0.0000
    26 C6       2.1857  10.7364   2.1388   C.2       1 RES1   0.0000
    27 C7       1.6233   8.6755   0.9742   C.3       1 RES1   0.0000
    28 H5       1.5441   7.7245   1.1992   H         1 RES1   0.0000
    29 H6       2.2951   8.7902   0.2698   H         1 RES1   0.0000
    30 H7       0.7577   9.0097   0.6571   H         1 RES1   0.0000
    31 C8       0.3096  12.1339   3.7319   C.3       1 RES1   0.0000
    32 H8      -0.2737  11.9041   4.4862   H         1 RES1   0.0000
    33 H9       0.1717  11.4909   3.0045   H         1 RES1   0.0000
    34 H10      0.0945  13.0366   3.4161   H         1 RES1   0.0000
    35 C9       1.0808  13.5864   6.0256   C.3       1 RES1   0.0000
    36 H11      1.5276  14.1180   6.7172   H         1 RES1   0.0000
    37 H12      0.4269  12.9890   6.4449   H         1 RES1   0.0000
    38 H13      0.6221  14.1852   5.3991   H         1 RES1   0.0000
    39 C10      8.3071   9.7818   6.1686   C.2       1 RES1   0.0000
    40 C11      7.2824   8.7587   6.0422   C.2       1 RES1   0.0000
    41 C12      7.2233   7.7543   6.9944   C.2       1 RES1   0.0000
    42 C13      9.1654   8.5978   8.1027   C.2       1 RES1   0.0000
    43 C14      9.2130   9.6641   7.2160   C.2       1 RES1   0.0000
    44 H14      9.8806  10.3310   7.3271   H         1 RES1   0.0000
    45 C15      6.0156   6.8792   7.1501   C.2       1 RES1   0.0000
    46 C16      4.1885   5.6580   6.1393   C.3       1 RES1   0.0000
    47 H15      3.6554   5.7968   5.3288   H         1 RES1   0.0000
    48 H16      3.6776   5.9530   6.9218   H         1 RES1   0.0000
    49 H17      4.4038   4.7053   6.2288   H         1 RES1   0.0000
    50 C17      8.2711   6.4732   8.8600   C.3       1 RES1   0.0000
    51 H18      9.2096   6.2399   9.0224   H         1 RES1   0.0000
    52 H19      7.8170   5.7203   8.4279   H         1 RES1   0.0000
    53 H20      7.8322   6.6738   9.7127   H         1 RES1   0.0000
    54 C18     10.1584   8.4843   9.2218   C.3       1 RES1   0.0000
    55 H21      9.6818   8.3596  10.0694   H         1 RES1   0.0000
    56 H22     10.6958   9.3026   9.2665   H         1 RES1   0.0000
    57 H23     10.7443   7.7156   9.0607   H         1 RES1   0.0000
    58 C19      8.2897  10.8050   1.8147   C.2       1 RES1   0.0000
    59 C20      8.1623  12.1641   2.2640   C.2       1 RES1   0.0000
    60 C21      8.9570  13.1652   1.7073   C.2       1 RES1   0.0000
    61 C22      9.8613  11.5911   0.1456   C.2       1 RES1   0.0000
    62 C23      9.1429  10.5667   0.7371   C.2       1 RES1   0.0000
    63 H24      9.2325   9.6819   0.4014   H         1 RES1   0.0000
    64 C24      9.0362  14.5090   2.3639   C.2       1 RES1   0.0000
    65 C25      7.9495  16.0734   3.8662   C.3       1 RES1   0.0000
    66 H25      7.1925  16.0360   4.4875   H         1 RES1   0.0000
    67 H26      7.8591  16.8611   3.2896   H         1 RES1   0.0000
    68 H27      8.7849  16.1360   4.3737   H         1 RES1   0.0000
    69 C26     10.5542  13.9073  -0.0703   C.3       1 RES1   0.0000
    70 H28     10.4118  13.8259  -1.0369   H         1 RES1   0.0000
    71 H29     11.5071  13.8050   0.1304   H         1 RES1   0.0000
    72 H30     10.2492  14.7888   0.2314   H         1 RES1   0.0000
    73 C27     10.7373  11.3266  -1.0445   C.3       1 RES1   0.0000
    74 H31     11.6583  11.5857  -0.8374   H         1 RES1   0.0000
    75 H32     10.4153  11.8488  -1.8091   H         1 RES1   0.0000
    76 H33     10.7085  10.3727  -1.2657   H         1 RES1   0.0000
    77 N7       6.5409  10.7380   9.6238   N.am      2 RES2   0.0000
    78 O10      7.2222   8.9852  10.8960   O.2       2 RES2   0.0000
    79 C28      5.6523  11.2418   8.5992   C.3       2 RES2   0.0000
    80 H34      4.9647  10.5712   8.4048   H         2 RES2   0.0000
    81 H35      6.1649  11.4300   7.7848   H         2 RES2   0.0000
    82 H36      5.2250  12.0660   8.9137   H         2 RES2   0.0000
    83 C29      7.6489  11.5923  10.0068   C.3       2 RES2   0.0000
    84 H37      8.1204  11.1942  10.7688   H         2 RES2   0.0000
    85 H38      7.3070  12.4747  10.2587   H         2 RES2   0.0000
    86 H39      8.2665  11.6833   9.2512   H         2 RES2   0.0000
    87 C30      6.4459   9.4933  10.0937   C.2       2 RES2   0.0000
    88 H40      5.7217   8.9613   9.7856   H         2 RES2   0.0000
    89 O11      4.7996   6.3397   3.1690   O.2       3 RES3   0.0000
    90 N8       4.9183   7.0835   1.0471   N.am      3 RES3   0.0000
    91 C31      5.2824   8.1647   0.1521   C.3       3 RES3   0.0000
    92 H41      5.7164   8.8797   0.6635   H         3 RES3   0.0000
    93 H42      4.4773   8.5164  -0.2813   H         3 RES3   0.0000
    94 H43      5.9019   7.8296  -0.5293   H         3 RES3   0.0000
    95 C32      4.4244   5.8684   0.4385   C.3       3 RES3   0.0000
    96 H44      4.2162   5.2141   1.1379   H         3 RES3   0.0000
    97 H45      5.1091   5.5010  -0.1585   H         3 RES3   0.0000
    98 H46      3.6139   6.0654  -0.0754   H         3 RES3   0.0000
    99 C33      5.0375   7.2094   2.3652   C.2       3 RES3   0.0000
   100 H47      5.3327   8.0480   2.7002   H         3 RES3   0.0000
@<TRIPOS>BOND
     1     1     2    1
     2     2    20    2
     3     3     1    1
     4     4    26    2
     5     5     1    1
     6     6     1    1
     7     7    45    2
     8     8     1    1
     9     9     1    1
    10    10    64    2
    11    11    22    1
    12    12    13    1
    13    14    41    1
    14    15    16    1
    15    17    60    1
    16    18    19    1
    17    20    21    1
    18    21     3    1
    19    22    21    2
    20    23    11    1
    21    24    20    1
    22    25    24    1
    23    26    12   am
    24    27    12    1
    25    28    27    1
    26    29    27    1
    27    30    27    1
    28    31    11    1
    29    32    31    1
    30    33    31    1
    31    34    31    1
    32    35    23    1
    33    36    35    1
    34    37    35    1
    35    38    35    1
    36    39     5    2
    37    40     6    1
    38    41    40    2
    39    42    14    1
    40    43    39    1
    41    44    43    1
    42    45    15   am
    43    46    15    1
    44    47    46    1
    45    48    46    1
    46    49    46    1
    47    50    14    1
    48    51    50    1
    49    52    50    1
    50    53    50    1
    51    54    42    1
    52    55    54    1
    53    56    54    1
    54    57    54    1
    55    58     8    2
    56    59     9    1
    57    60    59    2
    58    61    17    1
    59    62    58    1
    60    63    62    1
    61    64    18   am
    62    65    18    1
    63    66    65    1
    64    67    65    1
    65    68    65    1
    66    69    17    1
    67    70    69    1
    68    71    69    1
    69    72    69    1
    70    73    61    1
    71    74    73    1
    72    75    73    1
    73    76    73    1
    74    22    26    1
    75    23    24    2
    76    39    40    1
    77    41    45    1
    78    42    43    2
    79    58    59    1
    80    60    64    1
    81    61    62    2
    82    77    79    1
    83    78    87    2
    84    79    80    1
    85    81    79    1
    86    82    79    1
    87    83    77    1
    88    84    83    1
    89    85    83    1
    90    86    83    1
    91    87    77   am
    92    88    87    1
    93    89    99    2
    94    90    91    1
    95    91    92    1
    96    93    91    1
    97    94    91    1
    98    95    90    1
    99    96    95    1
   100    97    95    1
   101    98    95    1
   102    99    90   am
   103   100    99    1
@<TRIPOS>SUBSTRUCTURE
     1 RES1        1 GROUP             0 ****  ****    0  
     2 RES2       77 GROUP             0 ****  ****    0  
     3 RES3       89 GROUP             0 ****  ****    0  
@<TRIPOS>CRYSIN
   11.1137   13.0414   13.8382   79.1515   68.8106   79.7017     2     1
