@<TRIPOS>MOLECULE
MAVVUD01
    85    92     5     0     0
SMALL
USER_CHARGES
****
Generated from the CSD

@<TRIPOS>ATOM
     1 C1       2.5899   4.2247  11.3280   C.ar      1 RES1   0.0000
     2 H1       3.3111   4.4139  10.7715   H         1 RES1   0.0000
     3 C2       1.8781   5.2817  11.8877   C.ar      1 RES1   0.0000
     4 H2       2.1265   6.1578  11.6973   H         1 RES1   0.0000
     5 C3       0.8223   5.0436  12.7140   C.ar      1 RES1   0.0000
     6 H3       0.3412   5.7540  13.0731   H         1 RES1   0.0000
     7 C4       0.4610   3.7177  13.0212   C.ar      1 RES1   0.0000
     8 C5       1.2424   2.7178  12.4357   C.ar      1 RES1   0.0000
     9 C6      -0.5903   3.3014  13.8952   C.ar      1 RES1   0.0000
    10 H4      -1.1227   3.9497  14.2946   H         1 RES1   0.0000
    11 C7      -0.8384   1.9919  14.1649   C.ar      1 RES1   0.0000
    12 H5      -1.5323   1.7657  14.7417   H         1 RES1   0.0000
    13 C8      -0.0521   0.9601  13.5750   C.ar      1 RES1   0.0000
    14 C9       0.9760   1.3638  12.7166   C.ar      1 RES1   0.0000
    15 C10     -0.1956  -0.4299  13.7524   C.ar      1 RES1   0.0000
    16 H6      -0.8455  -0.7579  14.3321   H         1 RES1   0.0000
    17 C11      0.6169  -1.3003  13.0760   C.ar      1 RES1   0.0000
    18 H7       0.5049  -2.2166  13.1885   H         1 RES1   0.0000
    19 C12      1.6164  -0.8208  12.2151   C.ar      1 RES1   0.0000
    20 C13      2.5650  -1.5585  11.4046   C.ar      1 RES1   0.0000
    21 C14      2.6390  -2.9356  11.4046   C.ar      1 RES1   0.0000
    22 H8       2.0276  -3.4389  11.8920   H         1 RES1   0.0000
    23 C15      3.6304  -3.5610  10.6734   C.ar      1 RES1   0.0000
    24 H9       3.7087  -4.4877  10.6763   H         1 RES1   0.0000
    25 C16      4.4952  -2.7893   9.9465   C.ar      1 RES1   0.0000
    26 H10      5.1756  -3.1856   9.4519   H         1 RES1   0.0000
    27 C17      4.3469  -1.4111   9.9552   C.ar      1 RES1   0.0000
    28 C18      0.4733   0.5564   9.3106   C.ar      1 RES1   0.0000
    29 H11      0.1538   0.0996  10.0547   H         1 RES1   0.0000
    30 C19     -0.3278   0.6094   8.1597   C.ar      1 RES1   0.0000
    31 H12     -1.1615   0.1969   8.1554   H         1 RES1   0.0000
    32 C20      0.1139   1.2697   7.0435   C.ar      1 RES1   0.0000
    33 H13     -0.4110   1.2990   6.2763   H         1 RES1   0.0000
    34 C21      1.3679   1.8994   7.0709   C.ar      1 RES1   0.0000
    35 C22      2.1010   1.7837   8.2582   C.ar      1 RES1   0.0000
    36 C23      1.9504   2.6670   6.0037   C.ar      1 RES1   0.0000
    37 H14      1.4820   2.7582   5.2062   H         1 RES1   0.0000
    38 C24      3.1602   3.2604   6.1263   C.ar      1 RES1   0.0000
    39 H15      3.4928   3.7635   5.4182   H         1 RES1   0.0000
    40 C25      3.9378   3.1319   7.3218   C.ar      1 RES1   0.0000
    41 C26      3.3805   2.3723   8.3494   C.ar      1 RES1   0.0000
    42 C27      5.2112   3.6790   7.5684   C.ar      1 RES1   0.0000
    43 H16      5.6327   4.1855   6.9123   H         1 RES1   0.0000
    44 C28      5.8304   3.4694   8.7741   C.ar      1 RES1   0.0000
    45 H17      6.6746   3.8255   8.9327   H         1 RES1   0.0000
    46 C29      5.1896   2.7149   9.7692   C.ar      1 RES1   0.0000
    47 C30      5.6677   2.3983  11.1104   C.ar      1 RES1   0.0000
    48 C31      6.8675   2.8704  11.6108   C.ar      1 RES1   0.0000
    49 H18      7.3962   3.4429  11.1046   H         1 RES1   0.0000
    50 C32      7.2702   2.4795  12.8712   C.ar      1 RES1   0.0000
    51 H19      8.0670   2.7986  13.2289   H         1 RES1   0.0000
    52 C33      6.4836   1.6181  13.5909   C.ar      1 RES1   0.0000
    53 H20      6.7436   1.3221  14.4331   H         1 RES1   0.0000
    54 C34      5.2815   1.1973  13.0227   C.ar      1 RES1   0.0000
    55 N1       2.2704   2.9410  11.5626   N.ar      1 RES1   0.0000
    56 N2       1.7998   0.5007  12.0870   N.ar      1 RES1   0.0000
    57 N3       3.4178  -0.7703  10.6575   N.ar      1 RES1   0.0000
    58 N4       1.6696   1.1291   9.3809   N.ar      1 RES1   0.0000
    59 N5       3.9975   2.1589   9.5329   N.ar      1 RES1   0.0000
    60 N6       4.8271   1.5826  11.8353   N.ar      1 RES1   0.0000
    61 Fe1      3.0292   1.2299  10.8568   Fe        1 RES1   2.0000
    62 Br1      5.5789  -0.4647   8.8998   Br        1 RES1   0.0000
    63 Br2      4.2569  -0.0171  14.0421   Br        1 RES1   0.0000
    64 C35      7.6109  -1.3266  11.6627   C.1       2 RES2   0.0000
    65 C36      8.7094  -0.7336  10.9243   C.3       2 RES2   0.0000
    66 H21      9.5194  -1.2101  11.1190   H         2 RES2   0.0000
    67 H22      8.8081   0.1862  11.1839   H         2 RES2   0.0000
    68 H23      8.5259  -0.7826   9.9840   H         2 RES2   0.0000
    69 N7       6.7463  -1.8149  12.2136   N.1       2 RES2   0.0000
    70 F1      -1.6447   2.1110  10.7630   F         3 RES3   0.0000
    71 F2      -2.1505   4.2420  11.2647   F         3 RES3   0.0000
    72 F3      -2.5921   3.4478   9.1930   F         3 RES3   0.0000
    73 F4      -0.4489   3.7918   9.8277   F         3 RES3   0.0000
    74 B1      -1.7045   3.3919  10.2609   B         3 RES3  -1.0000
    75 F5      10.3882   1.2577   3.7251   F         4 RES4   0.0000
    76 F6      12.0074   1.7753   2.2518   F         4 RES4   0.0000
    77 F7      11.3406   3.3027   3.7568   F         4 RES4   0.0000
    78 F8       9.9938   2.7442   2.0470   F         4 RES4   0.0000
    79 B2      10.9361   2.2669   2.9391   B         4 RES4  -1.0000
    80 C37      8.2197   1.2850   6.6051   C.1       5 RES5   0.0000
    81 C38      8.6015   2.6078   6.1811   C.3       5 RES5   0.0000
    82 N8       7.9336   0.2314   6.9440   N.1       5 RES5   0.0000
    83 H24      8.9722   3.0586   6.8935   H         5 RES5   0.0000
    84 H25      9.1409   2.5736   5.4658   H         5 RES5   0.0000
    85 H26      7.8070   3.0678   5.9273   H         5 RES5   0.0000
@<TRIPOS>BOND
     1     1     2    1
     2     3     1   ar
     3     4     3    1
     4     5     3   ar
     5     6     5    1
     6     7     5   ar
     7     8     7   ar
     8     9     7   ar
     9    10     9    1
    10    11     9   ar
    11    12    11    1
    12    13    11   ar
    13    14     8   ar
    14    15    13   ar
    15    16    15    1
    16    17    15   ar
    17    18    17    1
    18    19    17   ar
    19    20    19    1
    20    21    20   ar
    21    22    21    1
    22    23    21   ar
    23    24    23    1
    24    25    23   ar
    25    26    25    1
    26    27    25   ar
    27    28    29    1
    28    30    28   ar
    29    31    30    1
    30    32    30   ar
    31    33    32    1
    32    34    32   ar
    33    35    34   ar
    34    36    34   ar
    35    37    36    1
    36    38    36   ar
    37    39    38    1
    38    40    38   ar
    39    41    35   ar
    40    42    40   ar
    41    43    42    1
    42    44    42   ar
    43    45    44    1
    44    46    44   ar
    45    47    46    1
    46    48    47   ar
    47    49    48    1
    48    50    48   ar
    49    51    50    1
    50    52    50   ar
    51    53    52    1
    52    54    52   ar
    53    55     1   ar
    54    56    14   ar
    55    57    20   ar
    56    58    28   ar
    57    59    41   ar
    58    60    47   ar
    59    61    55    1
    60    62    27    1
    61    63    54    1
    62     8    55   ar
    63    13    14   ar
    64    19    56   ar
    65    27    57   ar
    66    35    58   ar
    67    40    41   ar
    68    46    59   ar
    69    54    60   ar
    70    56    61    1
    71    57    61    1
    72    58    61    1
    73    59    61    1
    74    60    61    1
    75    64    65    1
    76    65    66    1
    77    67    65    1
    78    68    65    1
    79    69    64    3
    80    70    74    1
    81    71    74    1
    82    72    74    1
    83    73    74    1
    84    75    79    1
    85    76    79    1
    86    77    79    1
    87    78    79    1
    88    80    81    1
    89    81    83    1
    90    82    80    3
    91    84    81    1
    92    85    81    1
@<TRIPOS>SUBSTRUCTURE
     1 RES1        1 GROUP             0 ****  ****    0  
     2 RES2       64 GROUP             0 ****  ****    0  
     3 RES3       70 GROUP             0 ****  ****    0  
     4 RES4       75 GROUP             0 ****  ****    0  
     5 RES5       80 GROUP             0 ****  ****    0  
@<TRIPOS>CRYSIN
   11.8218   11.8771   14.6612   92.9530   97.7630  114.7720     2     1
