@<TRIPOS>MOLECULE
MAXBUK
    95   101     3     0     0
SMALL
NO_CHARGES
****
Generated from the CSD

@<TRIPOS>ATOM
     1 Fe1      7.1182   3.5775   2.8052   Fe        1 RES1   0.0000
     2 S1       5.3826   6.5284  -0.4590   S.3       1 RES1   0.0000
     3 S2       6.1373   3.6094  -0.6484   S.3       1 RES1   0.0000
     4 S3       6.8728   2.4735   6.2488   S.3       1 RES1   0.0000
     5 S4       9.8164   1.7937   6.3275   S.3       1 RES1   0.0000
     6 S5       9.2305   1.8777   0.0539   S.3       1 RES1   0.0000
     7 S6       7.6934  -0.6857   0.4495   S.3       1 RES1   0.0000
     8 O1       3.9874   8.0475   2.8554   O.3       1 RES1   0.0000
     9 H1       4.3070   7.4238   2.3920   H         1 RES1   0.0000
    10 O2       6.7451   5.0824   4.0437   O.3       1 RES1   0.0000
    11 O3      12.4259   3.0626   3.9983   O.3       1 RES1   0.0000
    12 H2      11.6415   2.8500   4.2134   H         1 RES1   0.0000
    13 O4       8.8428   4.1253   2.0615   O.3       1 RES1   0.0000
    14 O5       5.4813  -1.6011   3.1743   O.3       1 RES1   0.0000
    15 H3       5.9419  -1.0561   2.7299   H         1 RES1   0.0000
    16 O6       5.5287   2.5972   3.3726   O.3       1 RES1   0.0000
    17 N1       5.5951   6.0708   2.3124   N.2       1 RES1   0.0000
    18 N2       6.0495   4.9544   1.5917   N.2       1 RES1   0.0000
    19 N3       9.8486   2.9677   3.7800   N.2       1 RES1   0.0000
    20 N4       8.5323   2.8744   4.2586   N.2       1 RES1   0.0000
    21 N5       6.3953   0.6859   2.4603   N.2       1 RES1   0.0000
    22 N6       7.2701   1.5737   1.8100   N.2       1 RES1   0.0000
    23 C1       4.5656   8.0418   4.0800   C.ar      1 RES1   0.0000
    24 C2       4.1506   9.0138   4.9885   C.ar      1 RES1   0.0000
    25 H4       3.4856   9.6436   4.7365   H         1 RES1   0.0000
    26 C3       4.6993   9.0660   6.2497   C.ar      1 RES1   0.0000
    27 H5       4.3915   9.7196   6.8662   H         1 RES1   0.0000
    28 C4       5.6909   8.1817   6.6306   C.ar      1 RES1   0.0000
    29 H6       6.0881   8.2475   7.4916   H         1 RES1   0.0000
    30 C5       6.0999   7.2010   5.7488   C.ar      1 RES1   0.0000
    31 H7       6.7707   6.5819   6.0140   H         1 RES1   0.0000
    32 C6       5.5393   7.1073   4.4683   C.ar      1 RES1   0.0000
    33 C7       5.9863   6.0154   3.5702   C.2       1 RES1   0.0000
    34 C8       5.8728   5.0367   0.3053   C.2       1 RES1   0.0000
    35 C9       4.6603   5.8769  -1.9948   C.3       1 RES1   0.0000
    36 H8       3.9261   5.2563  -1.7577   H         1 RES1   0.0000
    37 H9       4.2627   6.6301  -2.4987   H         1 RES1   0.0000
    38 C10      5.6388   5.1436  -2.9092   C.3       1 RES1   0.0000
    39 H10      5.1375   4.4857  -3.4531   H         1 RES1   0.0000
    40 H11      6.0483   5.7979  -3.5302   H         1 RES1   0.0000
    41 C11      6.7433   4.4219  -2.1578   C.3       1 RES1   0.0000
    42 H12      7.4495   5.0724  -1.9148   H         1 RES1   0.0000
    43 H13      7.1492   3.7415  -2.7521   H         1 RES1   0.0000
    44 C12     12.4078   3.7101   2.8099   C.ar      1 RES1   0.0000
    45 C13     13.6312   4.1406   2.2853   C.ar      1 RES1   0.0000
    46 H14     14.4366   3.9774   2.7625   H         1 RES1   0.0000
    47 C14     13.6690   4.7978   1.0834   C.ar      1 RES1   0.0000
    48 H15     14.5016   5.1034   0.7440   H         1 RES1   0.0000
    49 C15     12.5107   5.0245   0.3542   C.ar      1 RES1   0.0000
    50 H16     12.5513   5.4565  -0.4905   H         1 RES1   0.0000
    51 C16     11.3017   4.6169   0.8714   C.ar      1 RES1   0.0000
    52 H17     10.5061   4.7784   0.3794   H         1 RES1   0.0000
    53 C17     11.2253   3.9727   2.1030   C.ar      1 RES1   0.0000
    54 C18      9.8989   3.6572   2.6676   C.2       1 RES1   0.0000
    55 C19      8.4274   2.4109   5.4716   C.2       1 RES1   0.0000
    56 C20      6.9294   0.8885   7.1241   C.3       1 RES1   0.0000
    57 H18      6.0395   0.7130   7.5213   H         1 RES1   0.0000
    58 H19      7.1107   0.1702   6.4675   H         1 RES1   0.0000
    59 C21      7.9706   0.8137   8.2208   C.3       1 RES1   0.0000
    60 H20      8.2834  -0.1220   8.2964   H         1 RES1   0.0000
    61 H21      7.5425   1.0573   9.0804   H         1 RES1   0.0000
    62 C22      9.1730   1.7110   8.0089   C.3       1 RES1   0.0000
    63 H22      9.9009   1.3995   8.6046   H         1 RES1   0.0000
    64 H23      8.9303   2.6269   8.2934   H         1 RES1   0.0000
    65 C23      4.6614  -0.9167   4.0192   C.ar      1 RES1   0.0000
    66 C24      3.8187  -1.6539   4.8388   C.ar      1 RES1   0.0000
    67 H24      3.8544  -2.6033   4.8269   H         1 RES1   0.0000
    68 C25      2.9293  -1.0096   5.6717   C.ar      1 RES1   0.0000
    69 H25      2.3454  -1.5175   6.2215   H         1 RES1   0.0000
    70 C26      2.8832   0.3729   5.7117   C.ar      1 RES1   0.0000
    71 H26      2.2690   0.8129   6.2867   H         1 RES1   0.0000
    72 C27      3.7325   1.1060   4.9129   C.ar      1 RES1   0.0000
    73 H27      3.6994   2.0546   4.9470   H         1 RES1   0.0000
    74 C28      4.6392   0.4818   4.0548   C.ar      1 RES1   0.0000
    75 C29      5.5555   1.3112   3.2516   C.2       1 RES1   0.0000
    76 C30      7.9777   0.9872   0.8848   C.2       1 RES1   0.0000
    77 C31      9.1503   1.0634  -1.5695   C.3       1 RES1   0.0000
    78 H28      8.2170   1.1055  -1.8970   H         1 RES1   0.0000
    79 H29      9.7130   1.5730  -2.2052   H         1 RES1   0.0000
    80 C32      9.6026  -0.3892  -1.5798   C.3       1 RES1   0.0000
    81 H30      9.1497  -0.8633  -2.3223   H         1 RES1   0.0000
    82 H31     10.5768  -0.4226  -1.7488   H         1 RES1   0.0000
    83 C33      9.3028  -1.1051  -0.2845   C.3       1 RES1   0.0000
    84 H32     10.0158  -0.8890   0.3690   H         1 RES1   0.0000
    85 H33      9.3328  -2.0810  -0.4476   H         1 RES1   0.0000
    86 Cl1     12.3888  10.3183   2.7619   Cl        2 RES2   0.0000
    87 Cl2     12.7476  12.9728   3.7193   Cl        2 RES2   0.0000
    88 Cl3     11.2793  11.0966   5.3019   Cl        2 RES2   0.0000
    89 C34     11.7085  11.6156   3.6873   C.3       2 RES2   0.0000
    90 H34     10.8651  11.8967   3.2293   H         2 RES2   0.0000
    91 Cl4     12.3542   6.9030   4.2527   Cl        3 RES3   0.0000
    92 Cl5      9.8867   6.0452   5.4530   Cl        3 RES3   0.0000
    93 Cl6     11.8063   7.5438   7.0162   Cl        3 RES3   0.0000
    94 C35     11.1117   7.3050   5.4123   C.3       3 RES3   0.0000
    95 H35     10.6767   8.1583   5.1263   H         3 RES3   0.0000
@<TRIPOS>BOND
     1     1    10    1
     2     2    34    1
     3     3    34    1
     4     4    55    1
     5     5    55    1
     6     6    76    1
     7     7    76    1
     8     8     9    1
     9    10    33    1
    10    11    12    1
    11    13     1    1
    12    14    15    1
    13    16     1    1
    14    17    18    1
    15    18     1    1
    16    19    20    1
    17    20     1    1
    18    21    22    1
    19    22     1    1
    20    23     8    1
    21    24    23   ar
    22    25    24    1
    23    26    24   ar
    24    27    26    1
    25    28    26   ar
    26    29    28    1
    27    30    28   ar
    28    31    30    1
    29    32    23   ar
    30    33    17    2
    31    34    18    2
    32    35     2    1
    33    36    35    1
    34    37    35    1
    35    38    35    1
    36    39    38    1
    37    40    38    1
    38    41     3    1
    39    42    41    1
    40    43    41    1
    41    44    11    1
    42    45    44   ar
    43    46    45    1
    44    47    45   ar
    45    48    47    1
    46    49    47   ar
    47    50    49    1
    48    51    49   ar
    49    52    51    1
    50    53    44   ar
    51    54    13    1
    52    55    20    2
    53    56     4    1
    54    57    56    1
    55    58    56    1
    56    59    56    1
    57    60    59    1
    58    61    59    1
    59    62     5    1
    60    63    62    1
    61    64    62    1
    62    65    14    1
    63    66    65   ar
    64    67    66    1
    65    68    66   ar
    66    69    68    1
    67    70    68   ar
    68    71    70    1
    69    72    70   ar
    70    73    72    1
    71    74    65   ar
    72    75    16    1
    73    76    22    2
    74    77     6    1
    75    78    77    1
    76    79    77    1
    77    80    77    1
    78    81    80    1
    79    82    80    1
    80    83     7    1
    81    84    83    1
    82    85    83    1
    83    19    54    2
    84    21    75    2
    85    30    32   ar
    86    32    33    1
    87    38    41    1
    88    51    53   ar
    89    53    54    1
    90    59    62    1
    91    72    74   ar
    92    74    75    1
    93    80    83    1
    94    86    89    1
    95    87    89    1
    96    88    89    1
    97    89    90    1
    98    91    94    1
    99    92    94    1
   100    93    94    1
   101    94    95    1
@<TRIPOS>SUBSTRUCTURE
     1 RES1        1 GROUP             0 ****  ****    0  
     2 RES2       86 GROUP             0 ****  ****    0  
     3 RES3       91 GROUP             0 ****  ****    0  
@<TRIPOS>CRYSIN
   11.2270   13.9220   15.9140   69.0210   89.4880   77.9200     2     1
