@<TRIPOS>MOLECULE
MAYWAM
    82    87     3     0     0
SMALL
USER_CHARGES
****
Generated from the CSD

@<TRIPOS>ATOM
     1 C1      -0.9741   2.9820   4.2090   C.ar      1 RES1   0.0000
     2 H1      -0.1957   2.5871   4.5275   H         1 RES1   0.0000
     3 C2      -2.1395  -0.1372   1.8165   C.ar      1 RES1   0.0000
     4 H2      -2.6691   0.3022   1.1919   H         1 RES1   0.0000
     5 C3      -1.7985   3.5539   5.1247   C.ar      1 RES1   0.0000
     6 H3      -1.6050   3.5298   6.0342   H         1 RES1   0.0000
     7 C4      -2.5864  -1.3303   2.3825   C.ar      1 RES1   0.0000
     8 H4      -3.4007  -1.6830   2.1039   H         1 RES1   0.0000
     9 C5      -2.9538   4.1823   4.6400   C.ar      1 RES1   0.0000
    10 H5      -3.5345   4.6121   5.2247   H         1 RES1   0.0000
    11 C6      -1.8851  -1.9780   3.3094   C.ar      1 RES1   0.0000
    12 H6      -2.2104  -2.7557   3.7030   H         1 RES1   0.0000
    13 C7      -3.2177   4.1594   3.3032   C.ar      1 RES1   0.0000
    14 H7      -3.9914   4.5519   2.9696   H         1 RES1   0.0000
    15 C8      -0.6386  -1.4459   3.6730   C.ar      1 RES1   0.0000
    16 H8      -0.1142  -1.8648   4.3164   H         1 RES1   0.0000
    17 C9      -2.3100   3.5370   2.4374   C.ar      1 RES1   0.0000
    18 C10     -0.2136  -0.3082   3.0658   C.ar      1 RES1   0.0000
    19 C11     -2.4712   3.4202   1.0194   C.2       1 RES1   0.0000
    20 C12      1.1126   0.3226   3.3045   C.2       1 RES1   0.0000
    21 C13     -3.6112   4.1088   0.2786   C.ar      1 RES1   0.0000
    22 C14      2.0717  -0.2275   4.3052   C.ar      1 RES1   0.0000
    23 C15     -4.4696   3.4034  -0.5522   C.ar      1 RES1   0.0000
    24 H9      -4.3583   2.4872  -0.6671   H         1 RES1   0.0000
    25 C16      1.7810  -0.1746   5.6207   C.ar      1 RES1   0.0000
    26 H10      0.9829   0.2155   5.8968   H         1 RES1   0.0000
    27 C17     -5.4999   4.0703  -1.2143   C.ar      1 RES1   0.0000
    28 H11     -6.0772   3.6116  -1.7815   H         1 RES1   0.0000
    29 C18      2.6347  -0.6814   6.5514   C.ar      1 RES1   0.0000
    30 H12      2.4172  -0.6633   7.4547   H         1 RES1   0.0000
    31 C19     -5.6367   5.3825  -1.0119   C.ar      1 RES1   0.0000
    32 C20      3.8138  -1.2159   6.1317   C.ar      1 RES1   0.0000
    33 C21     -4.7931   6.1494  -0.1986   C.ar      1 RES1   0.0000
    34 H13     -4.9064   7.0656  -0.0924   H         1 RES1   0.0000
    35 C22      4.1119  -1.3399   4.8236   C.ar      1 RES1   0.0000
    36 H14      4.8888  -1.7709   4.5488   H         1 RES1   0.0000
    37 C23     -3.7734   5.4512   0.4423   C.ar      1 RES1   0.0000
    38 H15     -3.1866   5.9135   0.9970   H         1 RES1   0.0000
    39 C24      3.2328  -0.8078   3.9004   C.ar      1 RES1   0.0000
    40 H16      3.4363  -0.8475   2.9934   H         1 RES1   0.0000
    41 C25     -0.6593   1.7167  -1.3992   C.2       1 RES1   0.0000
    42 C26      2.5397   3.1794   2.1201   C.2       1 RES1   0.0000
    43 C27     -1.7778   1.8191  -3.5568   C.3       1 RES1   0.0000
    44 H17     -2.3870   1.0859  -3.6730   H         1 RES1   0.0000
    45 H18     -1.4315   2.0863  -4.4113   H         1 RES1   0.0000
    46 H19     -2.2408   2.5582  -3.1545   H         1 RES1   0.0000
    47 C28      4.8649   3.3384   2.8709   C.3       1 RES1   0.0000
    48 H20      4.5834   2.6714   3.5006   H         1 RES1   0.0000
    49 H21      5.3321   4.0390   3.3344   H         1 RES1   0.0000
    50 H22      5.4477   2.9399   2.2225   H         1 RES1   0.0000
    51 C29      0.3528   0.5562  -3.3119   C.3       1 RES1   0.0000
    52 H23      0.9709   0.2456  -2.6461   H         1 RES1   0.0000
    53 H24      0.8244   1.0642  -3.9741   H         1 RES1   0.0000
    54 H25     -0.0731  -0.1974  -3.7292   H         1 RES1   0.0000
    55 C30      3.8198   5.1755   1.5379   C.3       1 RES1   0.0000
    56 H26      4.0315   5.0382   0.6109   H         1 RES1   0.0000
    57 H27      4.5207   5.6835   1.9539   H         1 RES1   0.0000
    58 H28      2.9915   5.6546   1.6104   H         1 RES1   0.0000
    59 N1      -1.1836   2.9375   2.8959   N.ar      1 RES1   0.0000
    60 N2      -0.9717   0.3732   2.1538   N.ar      1 RES1   0.0000
    61 N3      -1.5596   2.7027   0.3873   N.2       1 RES1   0.0000
    62 N4       1.3300   1.3881   2.6123   N.2       1 RES1   0.0000
    63 N5      -1.6306   2.4944  -0.9158   N.2       1 RES1   0.0000
    64 N6       2.5417   2.0346   2.7435   N.2       1 RES1   0.0000
    65 N7      -0.6619   1.4001  -2.6798   N.pl3     1 RES1   0.0000
    66 N8       3.6954   3.8970   2.1976   N.pl3     1 RES1   0.0000
    67 F1      -6.6472   6.0615  -1.6491   F         1 RES1   0.0000
    68 F2       4.6422  -1.7348   7.0724   F         1 RES1   0.0000
    69 S1       0.5797   1.0279  -0.3496   S.3       1 RES1   0.0000
    70 S2       1.1767   3.8453   1.2439   S.3       1 RES1   0.0000
    71 Fe1     -0.1116   2.0408   1.4989   Fe        1 RES1   1.0000
    72 O1       6.1498   6.8453   3.5955   O.3       2 RES2  -1.0000
    73 O2       7.6043   7.0704   5.1210   O.2       2 RES2   0.0000
    74 O3       7.9880   7.4869   2.9396   O.2       2 RES2   0.0000
    75 O4       6.9613   8.9244   4.2015   O.2       2 RES2   0.0000
    76 Cl1      7.1262   7.5881   4.0066   Cl        2 RES2   0.0000
    77 N9       6.5178   2.4198   6.0080   N.1       3 RES3   0.0000
    78 C31      7.0895   1.5903   5.5195   C.1       3 RES3   0.0000
    79 C32      7.9333   0.5851   4.8998   C.3       3 RES3   0.0000
    80 H29      8.5847   1.0137   4.3401   H         3 RES3   0.0000
    81 H30      7.3923  -0.0036   4.3689   H         3 RES3   0.0000
    82 H31      8.3822   0.0795   5.5820   H         3 RES3   0.0000
@<TRIPOS>BOND
     1     1     2    1
     2     3     4    1
     3     5     1   ar
     4     6     5    1
     5     7     3   ar
     6     8     7    1
     7     9     5   ar
     8    10     9    1
     9    11     7   ar
    10    12    11    1
    11    13     9   ar
    12    14    13    1
    13    15    11   ar
    14    16    15    1
    15    17    13   ar
    16    18    15   ar
    17    19    17    1
    18    20    18    1
    19    21    19    1
    20    22    20    1
    21    23    21   ar
    22    24    23    1
    23    25    22   ar
    24    26    25    1
    25    27    23   ar
    26    28    27    1
    27    29    25   ar
    28    30    29    1
    29    31    27   ar
    30    32    29   ar
    31    33    31   ar
    32    34    33    1
    33    35    32   ar
    34    36    35    1
    35    37    21   ar
    36    38    37    1
    37    39    22   ar
    38    40    39    1
    39    41    63    2
    40    42    64    2
    41    43    44    1
    42    45    43    1
    43    46    43    1
    44    47    48    1
    45    49    47    1
    46    50    47    1
    47    51    52    1
    48    53    51    1
    49    54    51    1
    50    55    56    1
    51    57    55    1
    52    58    55    1
    53    59     1   ar
    54    60     3   ar
    55    61    19    2
    56    62    20    2
    57    63    61    1
    58    64    62    1
    59    65    41    1
    60    66    42    1
    61    67    31    1
    62    68    32    1
    63    69    41    1
    64    70    42    1
    65    71    59    1
    66    17    59   ar
    67    18    60   ar
    68    33    37   ar
    69    35    39   ar
    70    43    65    1
    71    47    66    1
    72    51    65    1
    73    55    66    1
    74    60    71    1
    75    61    71    1
    76    62    71    1
    77    69    71    1
    78    70    71    1
    79    72    76    1
    80    73    76    2
    81    74    76    2
    82    75    76    2
    83    77    78    3
    84    78    79    1
    85    79    80    1
    86    81    79    1
    87    82    79    1
@<TRIPOS>SUBSTRUCTURE
     1 RES1        1 GROUP             0 ****  ****    0  
     2 RES2       72 GROUP             0 ****  ****    0  
     3 RES3       77 GROUP             0 ****  ****    0  
@<TRIPOS>CRYSIN
   12.1413   12.0388   13.8150   90.0000  115.2680   90.0000     4     1
