@<TRIPOS>MOLECULE
MEGGUE
    96   103     4     0     0
SMALL
USER_CHARGES
****
Generated from the CSD

@<TRIPOS>ATOM
     1 Fe1      1.5990  14.9792   5.1369   Fe        1 RES1   2.0000
     2 N1       0.6362  16.3600   2.7306   N.3       1 RES1   0.0000
     3 N2       2.8675  14.7863   3.3874   N.2       1 RES1   0.0000
     4 N3       1.2582  17.1264   5.3470   N.2       1 RES1   0.0000
     5 N4      -0.3300  14.3044   4.3796   N.2       1 RES1   0.0000
     6 N5       2.4787  12.9204   5.3226   N.2       1 RES1   0.0000
     7 N6       3.2215  15.6689   6.4626   N.2       1 RES1   0.0000
     8 N7       0.4348  14.4540   6.9765   N.2       1 RES1   0.0000
     9 N8       3.4097  10.9331   5.5930   N.pl3     1 RES1   0.0000
    10 N9       4.8143  16.2500   7.8806   N.pl3     1 RES1   0.0000
    11 N10     -0.5892  13.7285   8.8010   N.pl3     1 RES1   0.0000
    12 N11      4.4032   7.2317   7.3345   N.ar      1 RES1   0.0000
    13 N12      7.9213  15.8813  10.7067   N.ar      1 RES1   0.0000
    14 N13     -1.2124  12.5117  12.7873   N.ar      1 RES1   0.0000
    15 C1       1.6504  16.0685   1.7163   C.3       1 RES1   0.0000
    16 H1       1.7144  16.8278   1.0843   H         1 RES1   0.0000
    17 H2       1.3848  15.2639   1.2043   H         1 RES1   0.0000
    18 C2       0.5637  17.7674   3.1193   C.3       1 RES1   0.0000
    19 H3      -0.1389  18.2239   2.5921   H         1 RES1   0.0000
    20 H4       1.4287  18.2109   2.9314   H         1 RES1   0.0000
    21 C3      -0.6636  15.7532   2.4558   C.3       1 RES1   0.0000
    22 H5      -0.8352  15.7645   1.4809   H         1 RES1   0.0000
    23 H6      -1.3753  16.2792   2.8996   H         1 RES1   0.0000
    24 C4       3.0081  15.8325   2.3688   C.3       1 RES1   0.0000
    25 H7       3.6667  15.5514   1.6851   H         1 RES1   0.0000
    26 H8       3.3316  16.6694   2.7870   H         1 RES1   0.0000
    27 C5       0.2428  17.8749   4.6069   C.3       1 RES1   0.0000
    28 H9       0.2482  18.8241   4.8880   H         1 RES1   0.0000
    29 H10     -0.6554  17.5001   4.7886   H         1 RES1   0.0000
    30 C6      -0.6993  14.3170   2.9634   C.3       1 RES1   0.0000
    31 H11     -1.6082  13.9416   2.8487   H         1 RES1   0.0000
    32 H12     -0.0655  13.7606   2.4449   H         1 RES1   0.0000
    33 C7       3.4997  13.6875   3.2420   C.2       1 RES1   0.0000
    34 H13      4.0620  13.5427   2.4901   H         1 RES1   0.0000
    35 C8       2.0919  17.7815   6.0568   C.2       1 RES1   0.0000
    36 H14      2.0316  18.7256   6.1448   H         1 RES1   0.0000
    37 C9      -1.1988  13.9339   5.2395   C.2       1 RES1   0.0000
    38 H15     -2.0657  13.6521   4.9716   H         1 RES1   0.0000
    39 C10      3.3345  12.6664   4.2582   C.2       1 RES1   0.0000
    40 C11      3.1339  17.0277   6.7233   C.2       1 RES1   0.0000
    41 C12     -0.8180  13.9575   6.6380   C.2       1 RES1   0.0000
    42 C13      3.9093  11.4429   4.4139   C.2       1 RES1   0.0000
    43 H16      4.5295  11.0246   3.8283   H         1 RES1   0.0000
    44 C14      4.1048  17.4056   7.5969   C.2       1 RES1   0.0000
    45 H17      4.2631  18.2773   7.9399   H         1 RES1   0.0000
    46 C15     -1.4618  13.5120   7.7535   C.2       1 RES1   0.0000
    47 H18     -2.3308  13.1312   7.8004   H         1 RES1   0.0000
    48 C16      2.5588  11.8742   6.1053   C.2       1 RES1   0.0000
    49 H19      2.0865  11.7804   6.9243   H         1 RES1   0.0000
    50 C17      4.2303  15.2308   7.1701   C.2       1 RES1   0.0000
    51 H20      4.5209  14.3265   7.1897   H         1 RES1   0.0000
    52 C18      0.5425  14.3042   8.2744   C.2       1 RES1   0.0000
    53 H21      1.3026  14.5600   8.7838   H         1 RES1   0.0000
    54 C19      3.7433   9.6811   6.1836   C.ar      1 RES1   0.0000
    55 C20      5.8878  16.1265   8.8014   C.ar      1 RES1   0.0000
    56 C21     -0.7997  13.3306  10.1513   C.ar      1 RES1   0.0000
    57 C22      4.0622   8.5954   5.3832   C.ar      1 RES1   0.0000
    58 H22      4.0499   8.6655   4.4359   H         1 RES1   0.0000
    59 C23      6.4462  17.2575   9.3866   C.ar      1 RES1   0.0000
    60 H23      6.1509  18.1286   9.1493   H         1 RES1   0.0000
    61 C24     -1.7398  12.3477  10.4445   C.ar      1 RES1   0.0000
    62 H24     -2.2483  11.9338   9.7571   H         1 RES1   0.0000
    63 C25      4.4007   7.4006   6.0084   C.ar      1 RES1   0.0000
    64 H25      4.6440   6.6623   5.4622   H         1 RES1   0.0000
    65 C26      7.4498  17.0732  10.3298   C.ar      1 RES1   0.0000
    66 H26      7.8259  17.8464  10.7336   H         1 RES1   0.0000
    67 C27     -1.9086  11.9946  11.7681   C.ar      1 RES1   0.0000
    68 H27     -2.5653  11.3384  11.9698   H         1 RES1   0.0000
    69 C28      4.0751   8.2972   8.0806   C.ar      1 RES1   0.0000
    70 H28      4.0633   8.1938   9.0248   H         1 RES1   0.0000
    71 C29      7.3837  14.8154  10.1005   C.ar      1 RES1   0.0000
    72 H29      7.7127  13.9572  10.3408   H         1 RES1   0.0000
    73 C30     -0.3145  13.4510  12.4714   C.ar      1 RES1   0.0000
    74 H30      0.1945  13.8319  13.1773   H         1 RES1   0.0000
    75 C31      3.7523   9.5396   7.5584   C.ar      1 RES1   0.0000
    76 H31      3.5436  10.2709   8.1277   H         1 RES1   0.0000
    77 C32      6.3810  14.8779   9.1469   C.ar      1 RES1   0.0000
    78 H32      6.0412  14.0885   8.7420   H         1 RES1   0.0000
    79 C33     -0.0761  13.9071  11.1840   C.ar      1 RES1   0.0000
    80 H33      0.5612  14.5912  11.0152   H         1 RES1   0.0000
    81 F1       7.6362  12.5184   6.1139   F         2 RES2   0.0000
    82 F2       7.4337  11.6390   8.1916   F         2 RES2   0.0000
    83 F3       6.6325  10.5132   6.3765   F         2 RES2   0.0000
    84 F4       5.5781  12.3816   7.0993   F         2 RES2   0.0000
    85 B1       6.8063  11.7582   6.9427   B         2 RES2  -1.0000
    86 F5       1.8187  11.4860   9.4002   F         3 RES3   0.0000
    87 F6       2.0040  11.4066  11.6776   F         3 RES3   0.0000
    88 F7       2.6734   9.6318  10.4344   F         3 RES3   0.0000
    89 F8       0.4622  10.1167  10.6180   F         3 RES3   0.0000
    90 B2       1.7361  10.6589  10.5454   B         3 RES3  -1.0000
    91 O1       6.1786  10.7907  12.4338   O.3       4 RES4   0.0000
    92 H34      6.2739  10.1081  12.9141   H         4 RES4   0.0000
    93 C34      6.1586  10.4060  11.0591   C.3       4 RES4   0.0000
    94 H35      6.1399  11.2078  10.4958   H         4 RES4   0.0000
    95 H36      5.3610   9.8645  10.8829   H         4 RES4   0.0000
    96 H37      6.9610   9.8819  10.8548   H         4 RES4   0.0000
@<TRIPOS>BOND
     1     1     3    1
     2     2    15    1
     3     3    24    1
     4     4     1    1
     5     5     1    1
     6     6     1    1
     7     7     1    1
     8     8     1    1
     9     9    42    1
    10    10    44    1
    11    11    46    1
    12    12    63   ar
    13    13    65   ar
    14    14    67   ar
    15    15    16    1
    16    17    15    1
    17    18     2    1
    18    19    18    1
    19    20    18    1
    20    21     2    1
    21    22    21    1
    22    23    21    1
    23    24    15    1
    24    25    24    1
    25    26    24    1
    26    27     4    1
    27    28    27    1
    28    29    27    1
    29    30     5    1
    30    31    30    1
    31    32    30    1
    32    33     3    2
    33    34    33    1
    34    35     4    2
    35    36    35    1
    36    37     5    2
    37    38    37    1
    38    39     6    1
    39    40     7    1
    40    41     8    1
    41    42    39    2
    42    43    42    1
    43    44    40    2
    44    45    44    1
    45    46    41    2
    46    47    46    1
    47    48     6    2
    48    49    48    1
    49    50     7    2
    50    51    50    1
    51    52     8    2
    52    53    52    1
    53    54     9    1
    54    55    10    1
    55    56    11    1
    56    57    54   ar
    57    58    57    1
    58    59    55   ar
    59    60    59    1
    60    61    56   ar
    61    62    61    1
    62    63    57   ar
    63    64    63    1
    64    65    59   ar
    65    66    65    1
    66    67    61   ar
    67    68    67    1
    68    69    12   ar
    69    70    69    1
    70    71    13   ar
    71    72    71    1
    72    73    14   ar
    73    74    73    1
    74    75    54   ar
    75    76    75    1
    76    77    55   ar
    77    78    77    1
    78    79    56   ar
    79    80    79    1
    80     9    48    1
    81    10    50    1
    82    11    52    1
    83    18    27    1
    84    21    30    1
    85    33    39    1
    86    35    40    1
    87    37    41    1
    88    69    75   ar
    89    71    77   ar
    90    73    79   ar
    91    81    85    1
    92    82    85    1
    93    83    85    1
    94    84    85    1
    95    86    90    1
    96    87    90    1
    97    88    90    1
    98    89    90    1
    99    91    92    1
   100    93    91    1
   101    94    93    1
   102    95    93    1
   103    96    93    1
@<TRIPOS>SUBSTRUCTURE
     1 RES1        1 GROUP             0 ****  ****    0  
     2 RES2       81 GROUP             0 ****  ****    0  
     3 RES3       86 GROUP             0 ****  ****    0  
     4 RES4       91 GROUP             0 ****  ****    0  
@<TRIPOS>CRYSIN
   11.5650   15.5550   21.1690   90.0000   91.8700   90.0000    14     1
