@<TRIPOS>MOLECULE
MEJWOP
    94    97     3     0     0
SMALL
USER_CHARGES
****
Generated from the CSD

@<TRIPOS>ATOM
     1 C1       6.8020  12.4392  10.9801   C.3       1 RES1   0.0000
     2 H1       6.0782  12.4491  10.3488   H         1 RES1   0.0000
     3 H2       7.0961  13.3391  11.1438   H         1 RES1   0.0000
     4 H3       6.5035  12.0461  11.8024   H         1 RES1   0.0000
     5 C2       7.9470  11.6292  10.4207   C.3       1 RES1   0.0000
     6 H4       8.7150  11.7536  10.9987   H         1 RES1   0.0000
     7 H5       8.1783  11.9940   9.5513   H         1 RES1   0.0000
     8 C3       7.7149  10.1223  10.2558   C.3       1 RES1   0.0000
     9 H6       8.3562   9.6291  10.7916   H         1 RES1   0.0000
    10 H7       6.8237   9.8910  10.5621   H         1 RES1   0.0000
    11 C4       7.8680   9.7549   8.8183   C.3       1 RES1   0.0000
    12 H8       7.2496  10.2811   8.2875   H         1 RES1   0.0000
    13 H9       8.7677   9.9684   8.5281   H         1 RES1   0.0000
    14 C5       6.4580   7.7112   8.1076   C.3       1 RES1   0.0000
    15 C6       8.0695   6.2584   8.6682   C.2       1 RES1   0.0000
    16 H10      8.4997   5.4424   8.7910   H         1 RES1   0.0000
    17 C7       4.7486   5.4360   7.7628   C.2       1 RES1   0.0000
    18 H11      4.2311   4.6689   7.6797   H         1 RES1   0.0000
    19 C8       2.1809   7.6651   6.9889   C.2       1 RES1   0.0000
    20 H12      1.2760   7.7023   6.7781   H         1 RES1   0.0000
    21 C9       1.8024   5.3668   7.7579   C.3       1 RES1   0.0000
    22 H13      2.1591   4.5860   7.3064   H         1 RES1   0.0000
    23 H14      0.9129   5.5338   7.4094   H         1 RES1   0.0000
    24 C10      1.7138   5.0871   9.2673   C.3       1 RES1   0.0000
    25 H15      1.2305   4.2570   9.4062   H         1 RES1   0.0000
    26 H16      2.6104   4.9697   9.6183   H         1 RES1   0.0000
    27 C11      1.0219   6.1952  10.0462   C.3       1 RES1   0.0000
    28 H17      1.5991   6.4173  10.7928   H         1 RES1   0.0000
    29 H18      1.0022   6.9748   9.4682   H         1 RES1   0.0000
    30 C12     -0.3766   6.0272  10.6055   C.3       1 RES1   0.0000
    31 H19     -0.8721   5.4191  10.0524   H         1 RES1   0.0000
    32 H20     -0.8208   6.8786  10.6204   H         1 RES1   0.0000
    33 H21     -0.3247   5.6787  11.4973   H         1 RES1   0.0000
    34 C13      7.6202   5.6283  12.6309   C.3       1 RES1   0.0000
    35 H22      8.2847   5.9045  11.9946   H         1 RES1   0.0000
    36 H23      7.7988   4.7262  12.9062   H         1 RES1   0.0000
    37 H24      7.6489   6.2080  13.3949   H         1 RES1   0.0000
    38 C14      6.2276   5.7013  11.9822   C.3       1 RES1   0.0000
    39 H25      5.5784   5.3170  12.5912   H         1 RES1   0.0000
    40 H26      6.2288   5.1627  11.1748   H         1 RES1   0.0000
    41 C15      5.7857   7.1321  11.6238   C.3       1 RES1   0.0000
    42 H27      5.7436   7.6569  12.4386   H         1 RES1   0.0000
    43 H28      6.4620   7.5311  11.0533   H         1 RES1   0.0000
    44 C16      4.4451   7.2194  10.9206   C.3       1 RES1   0.0000
    45 H29      4.4438   6.6047  10.1702   H         1 RES1   0.0000
    46 H30      3.7504   6.9368  11.5357   H         1 RES1   0.0000
    47 C17      4.2844   9.0716   9.1693   C.3       1 RES1   0.0000
    48 C18      3.6314  10.6184  10.6948   C.2       1 RES1   0.0000
    49 H31      3.3790  11.4352  11.0595   H         1 RES1   0.0000
    50 C19      4.7150  11.2874   7.2903   C.2       1 RES1   0.0000
    51 H32      4.8159  12.0030   6.7061   H         1 RES1   0.0000
    52 C20      5.9777   8.9801   5.1136   C.2       1 RES1   0.0000
    53 H33      6.4311   8.8910   4.3062   H         1 RES1   0.0000
    54 C21      6.8191  11.3389   5.3344   C.3       1 RES1   0.0000
    55 H34      7.7410  11.0360   5.3270   H         1 RES1   0.0000
    56 H35      6.7466  11.9895   6.0500   H         1 RES1   0.0000
    57 C22      6.5968  12.0856   4.0458   C.3       1 RES1   0.0000
    58 H36      7.2027  12.8434   4.0296   H         1 RES1   0.0000
    59 H37      5.6936  12.4383   4.0557   H         1 RES1   0.0000
    60 C23      6.7841  11.3115   2.7546   C.3       1 RES1   0.0000
    61 H38      6.0038  10.7733   2.5475   H         1 RES1   0.0000
    62 H39      7.5667  10.7402   2.7931   H         1 RES1   0.0000
    63 C24      6.9675  12.4622   1.7327   C.3       1 RES1   0.0000
    64 H40      6.4693  13.2306   2.0216   H         1 RES1   0.0000
    65 H41      6.6499  12.1794   0.8719   H         1 RES1   0.0000
    66 H42      7.8986  12.6907   1.6706   H         1 RES1   0.0000
    67 Fe1      4.7688   8.3679   7.4859   Fe        1 RES1   1.0000
    68 N1       7.6080   8.3155   8.5876   N.pl3     1 RES1   0.0000
    69 N2       8.6040   7.4050   8.9274   N.2       1 RES1   0.0000
    70 N3       6.7895   6.3888   8.1895   N.pl3     1 RES1   0.0000
    71 N4       6.0098   5.2282   7.9390   N.2       1 RES1   0.0000
    72 N5       4.0594   6.6048   7.6785   N.2       1 RES1   0.0000
    73 N6       2.6716   6.5408   7.4739   N.am      1 RES1   0.0000
    74 N7       4.1336   8.5576  10.4369   N.pl3     1 RES1   0.0000
    75 N8       3.7201   9.5101  11.3720   N.2       1 RES1   0.0000
    76 N9       3.9645  10.4262   9.3541   N.pl3     1 RES1   0.0000
    77 N10      4.0166  11.4987   8.4607   N.2       1 RES1   0.0000
    78 N11      5.2489  10.1283   6.9505   N.2       1 RES1   0.0000
    79 N12      5.9840  10.1657   5.7313   N.am      1 RES1   0.0000
    80 O1       2.9119   8.7241   6.7948   O.2       1 RES1   0.0000
    81 O2       5.3876   7.9943   5.5803   O.2       1 RES1   0.0000
    82 C25      2.3804   8.1979   3.0684   C.3       2 RES2   0.0000
    83 H43      2.4802   7.4292   3.6340   H         2 RES2   0.0000
    84 H44      1.6768   8.0405   2.4346   H         2 RES2   0.0000
    85 H45      2.1608   8.9628   3.6055   H         2 RES2   0.0000
    86 C26      3.6392   8.4476   2.3528   C.1       2 RES2   0.0000
    87 N13      4.6401   8.6314   1.7810   N.1       2 RES2   0.0000
    88 F1      -1.1075   6.9500   4.2578   F         3 RES3   0.0000
    89 F2      -0.9635   7.4183   6.3587   F         3 RES3   0.0000
    90 F3      -0.1706   8.8296   4.8698   F         3 RES3   0.0000
    91 F4      -2.2069   8.7691   3.8732   F         3 RES3   0.0000
    92 F5      -3.0054   7.4434   5.4260   F         3 RES3   0.0000
    93 F6      -2.0469   9.2923   5.9962   F         3 RES3   0.0000
    94 P1      -1.5988   8.1301   5.1185   P.3       3 RES3  -1.0000
@<TRIPOS>BOND
     1     1     2    1
     2     3     1    1
     3     4     1    1
     4     5     1    1
     5     6     5    1
     6     7     5    1
     7     8     5    1
     8     9     8    1
     9    10     8    1
    10    11     8    1
    11    12    11    1
    12    13    11    1
    13    14    67    1
    14    15    16    1
    15    17    18    1
    16    19    20    1
    17    21    22    1
    18    23    21    1
    19    24    21    1
    20    25    24    1
    21    26    24    1
    22    27    24    1
    23    28    27    1
    24    29    27    1
    25    30    27    1
    26    31    30    1
    27    32    30    1
    28    33    30    1
    29    34    35    1
    30    36    34    1
    31    37    34    1
    32    38    34    1
    33    39    38    1
    34    40    38    1
    35    41    38    1
    36    42    41    1
    37    43    41    1
    38    44    41    1
    39    45    44    1
    40    46    44    1
    41    47    67    1
    42    48    49    1
    43    50    51    1
    44    52    53    1
    45    54    55    1
    46    56    54    1
    47    57    54    1
    48    58    57    1
    49    59    57    1
    50    60    57    1
    51    61    60    1
    52    62    60    1
    53    63    60    1
    54    64    63    1
    55    65    63    1
    56    66    63    1
    57    67    72    1
    58    68    11    1
    59    69    15    2
    60    70    14    1
    61    71    17    2
    62    72    17    1
    63    73    19   am
    64    74    44    1
    65    75    48    2
    66    76    47    1
    67    77    50    2
    68    78    50    1
    69    79    52   am
    70    80    19    2
    71    81    52    2
    72    14    68    1
    73    15    70    1
    74    21    73    1
    75    47    74    1
    76    48    76    1
    77    54    79    1
    78    67    78    1
    79    67    80    1
    80    67    81    1
    81    68    69    1
    82    70    71    1
    83    72    73    1
    84    74    75    1
    85    76    77    1
    86    78    79    1
    87    82    83    1
    88    84    82    1
    89    85    82    1
    90    86    82    1
    91    87    86    3
    92    88    94    1
    93    89    94    1
    94    90    94    1
    95    91    94    1
    96    92    94    1
    97    93    94    1
@<TRIPOS>SUBSTRUCTURE
     1 RES1        1 GROUP             0 ****  ****    0  
     2 RES2       82 GROUP             0 ****  ****    0  
     3 RES3       88 GROUP             0 ****  ****    0  
@<TRIPOS>CRYSIN
   11.6055   12.6303   12.6377   98.8230   95.4090   97.5500     2     1
