@<TRIPOS>MOLECULE
MEMBIQ
   125   138     3     0     0
SMALL
NO_CHARGES
****
Generated from the CSD

@<TRIPOS>ATOM
     1 Sr1     13.6179  -3.0061   1.8833   Sr        1 RES1   0.0000
     2 Sr2      9.4108   4.9196   7.8332   Sr        1 RES1   0.0000
     3 Fe1     11.4990   0.9273   4.8990   Fe        1 RES1   0.0000
     4 F1      14.9929  -7.3564   3.0636   F         1 RES1   0.0000
     5 F2      15.9299  -5.8444   1.8326   F         1 RES1   0.0000
     6 F3      17.0644  -6.8282   3.3992   F         1 RES1   0.0000
     7 N1      11.3030  -4.0816   2.6471   N.ar      1 RES1   0.0000
     8 N2      12.8894  -5.3483   0.8019   N.ar      1 RES1   0.0000
     9 N3      14.8988  -2.5656  -0.4616   N.ar      1 RES1   0.0000
    10 N4      16.1462  -2.1789   1.9467   N.ar      1 RES1   0.0000
    11 N5      11.5919   6.1642   7.0875   N.ar      1 RES1   0.0000
    12 N6      10.0061   7.1705   9.1053   N.ar      1 RES1   0.0000
    13 N7       8.0780   4.2537  10.0750   N.ar      1 RES1   0.0000
    14 N8       6.9255   4.0847   7.5883   N.ar      1 RES1   0.0000
    15 N9      13.3211  -1.3781   3.9333   N.1       1 RES1   0.0000
    16 N10      9.7509   3.3194   5.7918   N.1       1 RES1   0.0000
    17 N11      9.2089  -1.0368   5.6640   N.1       1 RES1   0.0000
    18 N12     10.6338   0.9034   1.9411   N.1       1 RES1   0.0000
    19 N13     13.7458   2.9376   4.2144   N.1       1 RES1   0.0000
    20 N14     12.4166   0.9210   7.8445   N.1       1 RES1   0.0000
    21 O1      14.5514  -4.4699   3.5677   O.co2     1 RES1   0.0000
    22 O2      15.8172  -5.2952   5.2086   O.co2     1 RES1   0.0000
    23 O3      12.0424  -1.4244   0.7802   O.3       1 RES1   0.0000
    24 H1      11.5088  -0.7696   1.2122   H         1 RES1   0.0000
    25 H2      11.9037  -1.3525  -0.1646   H         1 RES1   0.0000
    26 O4      11.1872   3.4761   8.8287   O.3       1 RES1   0.0000
    27 H3      11.6933   2.8090   8.3615   H         1 RES1   0.0000
    28 H4      11.4049   3.4343   9.7634   H         1 RES1   0.0000
    29 O5       8.3170   6.7603   6.5469   O.3       1 RES1   0.0000
    30 H5       7.6222   6.7656   5.9584   H         1 RES1   0.0000
    31 H6       8.5696   7.7140   6.6962   H         1 RES1   0.0000
    32 C1      15.3737  -5.2443   4.0580   C.2       1 RES1   0.0000
    33 C2      15.8530  -6.3260   3.0905   C.3       1 RES1   0.0000
    34 C3      10.4963  -3.4742   3.4985   C.ar      1 RES1   0.0000
    35 H11     10.6681  -2.5622   3.7044   H         1 RES1   0.0000
    36 C4       9.4008  -4.0961   4.1188   C.ar      1 RES1   0.0000
    37 H12      8.8517  -3.6115   4.7249   H         1 RES1   0.0000
    38 C5       9.1375  -5.3963   3.8399   C.ar      1 RES1   0.0000
    39 H13      8.4055  -5.8365   4.2563   H         1 RES1   0.0000
    40 C6       9.9536  -6.0847   2.9337   C.ar      1 RES1   0.0000
    41 C7       9.7382  -7.4616   2.6026   C.ar      1 RES1   0.0000
    42 H14      9.0383  -7.9433   3.0286   H         1 RES1   0.0000
    43 C8      10.5051  -8.0726   1.7041   C.ar      1 RES1   0.0000
    44 H15     10.3375  -8.9831   1.4930   H         1 RES1   0.0000
    45 C9      11.5844  -7.3818   1.0437   C.ar      1 RES1   0.0000
    46 C10     12.3806  -7.9947   0.0697   C.ar      1 RES1   0.0000
    47 H16     12.2072  -8.8933  -0.1859   H         1 RES1   0.0000
    48 C11     13.3873  -7.3190  -0.5073   C.ar      1 RES1   0.0000
    49 H17     13.9292  -7.7307  -1.1696   H         1 RES1   0.0000
    50 C12     13.6283  -5.9751  -0.1069   C.ar      1 RES1   0.0000
    51 H18     14.3501  -5.5055  -0.5073   H         1 RES1   0.0000
    52 C13     11.8646  -6.0438   1.3729   C.ar      1 RES1   0.0000
    53 C14     11.0348  -5.3791   2.3454   C.ar      1 RES1   0.0000
    54 C15     14.2986  -2.7219  -1.6219   C.ar      1 RES1   0.0000
    55 H19     13.4097  -3.0591  -1.6227   H         1 RES1   0.0000
    56 C16     14.8932  -2.4203  -2.8659   C.ar      1 RES1   0.0000
    57 H20     14.4188  -2.5485  -3.6792   H         1 RES1   0.0000
    58 C17     16.1659  -1.9414  -2.8659   C.ar      1 RES1   0.0000
    59 H21     16.5973  -1.7432  -3.6889   H         1 RES1   0.0000
    60 C18     16.8333  -1.7440  -1.6692   C.ar      1 RES1   0.0000
    61 C19     18.1747  -1.2147  -1.5995   C.ar      1 RES1   0.0000
    62 H22     18.6371  -1.0125  -2.4031   H         1 RES1   0.0000
    63 C20     18.7808  -1.0050  -0.4338   C.ar      1 RES1   0.0000
    64 H23     19.6553  -0.6332  -0.4221   H         1 RES1   0.0000
    65 C21     18.1373  -1.3258   0.8075   C.ar      1 RES1   0.0000
    66 C22     18.7387  -1.1455   2.0604   C.ar      1 RES1   0.0000
    67 H24     19.6140  -0.7794   2.1165   H         1 RES1   0.0000
    68 C23     18.0836  -1.4865   3.1854   C.ar      1 RES1   0.0000
    69 H25     18.5033  -1.3885   4.0336   H         1 RES1   0.0000
    70 C24     16.7608  -1.9925   3.0963   C.ar      1 RES1   0.0000
    71 H26     16.2995  -2.2051   3.8980   H         1 RES1   0.0000
    72 C25     16.8247  -1.8614   0.7978   C.ar      1 RES1   0.0000
    73 C26     16.1705  -2.0663  -0.4589   C.ar      1 RES1   0.0000
    74 C27     12.3983   5.6769   6.1495   C.ar      1 RES1   0.0000
    75 H27     12.2486   4.7900   5.8422   H         1 RES1   0.0000
    76 C28     13.4491   6.3967   5.5937   C.ar      1 RES1   0.0000
    77 H28     14.0040   6.0035   4.9301   H         1 RES1   0.0000
    78 C29     13.6724   7.6724   6.0128   C.ar      1 RES1   0.0000
    79 H29     14.3720   8.1857   5.6253   H         1 RES1   0.0000
    80 C30     12.8624   8.2293   7.0232   C.ar      1 RES1   0.0000
    81 C31     13.0709   9.5560   7.5385   C.ar      1 RES1   0.0000
    82 H30     13.7526  10.1015   7.1628   H         1 RES1   0.0000
    83 C32     12.3186  10.0335   8.5377   C.ar      1 RES1   0.0000
    84 H31     12.4848  10.9066   8.8746   H         1 RES1   0.0000
    85 C33     11.2626   9.2419   9.1074   C.ar      1 RES1   0.0000
    86 C34     10.4609   9.7035  10.1623   C.ar      1 RES1   0.0000
    87 H32     10.6208  10.5627  10.5341   H         1 RES1   0.0000
    88 C35      9.4543   8.9315  10.6581   C.ar      1 RES1   0.0000
    89 H33      8.9054   9.2375  11.3687   H         1 RES1   0.0000
    90 C36      9.2538   7.6668  10.0810   C.ar      1 RES1   0.0000
    91 H34      8.5384   7.1348  10.4083   H         1 RES1   0.0000
    92 C37     11.0026   7.9516   8.6113   C.ar      1 RES1   0.0000
    93 C38     11.8328   7.4292   7.5453   C.ar      1 RES1   0.0000
    94 C39      6.3545   4.0395   6.3999   C.ar      1 RES1   0.0000
    95 H35      6.8904   4.2488   5.6427   H         1 RES1   0.0000
    96 C40      5.0159   3.7033   6.1753   C.ar      1 RES1   0.0000
    97 H36      4.6499   3.7174   5.2981   H         1 RES1   0.0000
    98 C41      4.2553   3.3573   7.2403   C.ar      1 RES1   0.0000
    99 H37      3.3498   3.0987   7.1144   H         1 RES1   0.0000
   100 C42      4.8052   3.3802   8.5377   C.ar      1 RES1   0.0000
   101 C43      4.0611   3.0500   9.7034   C.ar      1 RES1   0.0000
   102 H38      3.1480   2.8027   9.6202   H         1 RES1   0.0000
   103 C44      4.6223   3.0807  10.9117   C.ar      1 RES1   0.0000
   104 H39      4.1001   2.8415  11.6689   H         1 RES1   0.0000
   105 C45      6.0090   3.4673  11.1035   C.ar      1 RES1   0.0000
   106 C46      6.6277   3.4878  12.3350   C.ar      1 RES1   0.0000
   107 H40      6.1446   3.2331  13.1135   H         1 RES1   0.0000
   108 C47      7.9352   3.8742  12.4415   C.ar      1 RES1   0.0000
   109 H41      8.3704   3.8782  13.2858   H         1 RES1   0.0000
   110 C48      8.6285   4.2657  11.2717   C.ar      1 RES1   0.0000
   111 H42      9.5319   4.5500  11.3532   H         1 RES1   0.0000
   112 C49      6.7717   3.8371   9.9670   C.ar      1 RES1   0.0000
   113 C50      6.1687   3.7739   8.6674   C.ar      1 RES1   0.0000
   114 C51     12.6558  -0.5311   4.3486   C.1       1 RES1   0.0000
   115 C52     10.3794   2.4237   5.4237   C.1       1 RES1   0.0000
   116 C53     10.0625  -0.3248   5.3596   C.1       1 RES1   0.0000
   117 C54     10.9178   0.9429   3.0539   C.1       1 RES1   0.0000
   118 C55     12.9189   2.1913   4.4671   C.1       1 RES1   0.0000
   119 C56     12.0976   0.8927   6.7378   C.1       1 RES1   0.0000
   120 O6       8.4905   9.5461   6.8646   O.3       2 RES2   0.0000
   121 H7       7.9490   9.7904   6.1501   H         2 RES2   0.0000
   122 H8       9.2706   9.0879   6.6032   H         2 RES2   0.0000
   123 O7       5.5626   9.7488   6.1114   O.3       3 RES3   0.0000
   124 H9       6.3302   9.0150   6.3708   H         3 RES3   0.0000
   125 H10      5.0414   9.0714   5.4994   H         3 RES3   0.0000
@<TRIPOS>BOND
     1     1     7    1
     2     2    11    1
     3     3   114    1
     4     4    33    1
     5     5    33    1
     6     6    33    1
     7     7    34   ar
     8     8     1    1
     9     9     1    1
    10    10     1    1
    11    11    74   ar
    12    12     2    1
    13    13     2    1
    14    14     2    1
    15    15     1    1
    16    16     2    1
    17    17   116    3
    18    18   117    3
    19    19   118    3
    20    20   119    3
    21    21     1    1
    22    22    32    2
    23    23     1    1
    24    24    23    1
    25    25    23    1
    26    26     2    1
    27    27    26    1
    28    28    26    1
    29    29     2    1
    30    30    29    1
    31    31    29    1
    32    32    21    1
    33    33    32    1
    34    34    35    1
    35    36    34   ar
    36    37    36    1
    37    38    36   ar
    38    39    38    1
    39    40    38   ar
    40    41    40   ar
    41    42    41    1
    42    43    41   ar
    43    44    43    1
    44    45    43   ar
    45    46    45   ar
    46    47    46    1
    47    48    46   ar
    48    49    48    1
    49    50     8   ar
    50    51    50    1
    51    52     8   ar
    52    53     7   ar
    53    54     9   ar
    54    55    54    1
    55    56    54   ar
    56    57    56    1
    57    58    56   ar
    58    59    58    1
    59    60    58   ar
    60    61    60   ar
    61    62    61    1
    62    63    61   ar
    63    64    63    1
    64    65    63   ar
    65    66    65   ar
    66    67    66    1
    67    68    66   ar
    68    69    68    1
    69    70    10   ar
    70    71    70    1
    71    72    10   ar
    72    73     9   ar
    73    74    75    1
    74    76    74   ar
    75    77    76    1
    76    78    76   ar
    77    79    78    1
    78    80    78   ar
    79    81    80   ar
    80    82    81    1
    81    83    81   ar
    82    84    83    1
    83    85    83   ar
    84    86    85   ar
    85    87    86    1
    86    88    86   ar
    87    89    88    1
    88    90    12   ar
    89    91    90    1
    90    92    12   ar
    91    93    11   ar
    92    94    14   ar
    93    95    94    1
    94    96    94   ar
    95    97    96    1
    96    98    96   ar
    97    99    98    1
    98   100    98   ar
    99   101   100   ar
   100   102   101    1
   101   103   101   ar
   102   104   103    1
   103   105   103   ar
   104   106   105   ar
   105   107   106    1
   106   108   106   ar
   107   109   108    1
   108   110    13   ar
   109   111   110    1
   110   112    13   ar
   111   113    14   ar
   112   114    15    3
   113   115     3    1
   114   116     3    1
   115   117     3    1
   116   118     3    1
   117   119     3    1
   118    16   115    3
   119    40    53   ar
   120    45    52   ar
   121    48    50   ar
   122    52    53   ar
   123    60    73   ar
   124    65    72   ar
   125    68    70   ar
   126    72    73   ar
   127    80    93   ar
   128    85    92   ar
   129    88    90   ar
   130    92    93   ar
   131   100   113   ar
   132   105   112   ar
   133   108   110   ar
   134   112   113   ar
   135   120   121    1
   136   122   120    1
   137   123   124    1
   138   125   123    1
@<TRIPOS>SUBSTRUCTURE
     1 RES1        1 GROUP             0 ****  ****    0  
     2 RES2      120 GROUP             0 ****  ****    0  
     3 RES3      123 GROUP             0 ****  ****    0  
@<TRIPOS>CRYSIN
   11.1220   12.5040   19.8730   77.8520   84.2460   84.1260     2     1
