@<TRIPOS>MOLECULE
MENMUR
    85    97     2     0     0
SMALL
NO_CHARGES
****
Generated from the CSD

@<TRIPOS>ATOM
     1 Fe1     13.8382   8.8115   9.5262   Fe        1 RES1   0.0000
     2 Cl1     14.6330   4.7474   8.0737   Cl        1 RES1   0.0000
     3 O1      15.3665   7.4694   7.4481   O.3       1 RES1   0.0000
     4 O2      13.9022   9.1286  12.4496   O.3       1 RES1   0.0000
     5 O3      15.8655   9.8596   7.7035   O.3       1 RES1   0.0000
     6 O4      16.3457  10.3074  12.3711   O.3       1 RES1   0.0000
     7 O5      17.5053  10.4935   9.7242   O.3       1 RES1   0.0000
     8 O6      20.1319   7.5698   3.3177   O.2       1 RES1   0.0000
     9 N1      14.6478   7.3413   8.6093   N.2       1 RES1   0.0000
    10 N2      14.5636   9.2525  11.2509   N.2       1 RES1   0.0000
    11 N3      15.3997   9.7903   9.0018   N.2       1 RES1   0.0000
    12 C1      14.2617   6.1509   8.9369   C.2       1 RES1   0.0000
    13 C2      15.7149   9.8710  11.2689   C.2       1 RES1   0.0000
    14 C3      16.2351  10.0836   9.9339   C.2       1 RES1   0.0000
    15 C4      17.6225  10.8442  12.1275   C.ar      1 RES1   0.0000
    16 C5      18.3182  11.2990  13.2186   C.ar      1 RES1   0.0000
    17 H1      17.9323  11.2467  14.0848   H         1 RES1   0.0000
    18 C6      19.5820  11.8345  13.0522   C.ar      1 RES1   0.0000
    19 H2      20.0602  12.1733  13.8003   H         1 RES1   0.0000
    20 C7      20.1518  11.8743  11.7833   C.ar      1 RES1   0.0000
    21 H3      21.0286  12.2222  11.6728   H         1 RES1   0.0000
    22 C8      19.4609  11.4195  10.6922   C.ar      1 RES1   0.0000
    23 H4      19.8550  11.4491   9.8285   H         1 RES1   0.0000
    24 C9      18.1810  10.9159  10.8650   C.ar      1 RES1   0.0000
    25 C10     16.0100   8.8455   5.4439   C.ar      1 RES1   0.0000
    26 C11     15.5330   9.4560   4.2944   C.ar      1 RES1   0.0000
    27 H5      14.6918   9.8949   4.3186   H         1 RES1   0.0000
    28 C12     16.2616   9.4435   3.0954   C.ar      1 RES1   0.0000
    29 H6      15.9052   9.8574   2.3180   H         1 RES1   0.0000
    30 C13     17.4934   8.8307   3.0497   C.ar      1 RES1   0.0000
    31 H7      17.9945   8.8284   2.2431   H         1 RES1   0.0000
    32 C14     18.0000   8.2156   4.1852   C.ar      1 RES1   0.0000
    33 C15     17.2590   8.2213   5.3664   C.ar      1 RES1   0.0000
    34 H8      17.6099   7.7915   6.1374   H         1 RES1   0.0000
    35 C16     19.3245   7.5653   4.1966   C.2       1 RES1   0.0000
    36 H9      19.5587   7.0923   4.9867   H         1 RES1   0.0000
    37 B1      15.2233   8.8386   6.8246   B         1 RES1   0.0000
    38 Cl1A    13.0434   4.7474  10.9788   Cl        1 RES1   0.0000
    39 O1A     12.3099   7.4694  11.6043   O.3       1 RES1   0.0000
    40 O2A     13.7742   9.1286   6.6028   O.3       1 RES1   0.0000
    41 O3A     11.8109   9.8596  11.3489   O.3       1 RES1   0.0000
    42 O4A     11.3307  10.3074   6.6813   O.3       1 RES1   0.0000
    43 O5A     10.1712  10.4935   9.3282   O.3       1 RES1   0.0000
    44 O6A      7.5445   7.5698  15.7348   O.2       1 RES1   0.0000
    45 N1A     13.0286   7.3413  10.4432   N.2       1 RES1   0.0000
    46 N2A     13.1128   9.2525   7.8016   N.2       1 RES1   0.0000
    47 N3A     12.2767   9.7903  10.0507   N.2       1 RES1   0.0000
    48 C1A     13.4147   6.1509  10.1156   C.2       1 RES1   0.0000
    49 C2A     11.9616   9.8710   7.7836   C.2       1 RES1   0.0000
    50 C3A     11.4414  10.0836   9.1185   C.2       1 RES1   0.0000
    51 C4A     10.0539  10.8442   6.9249   C.ar      1 RES1   0.0000
    52 C5A      9.3582  11.2990   5.8339   C.ar      1 RES1   0.0000
    53 H1A      9.7442  11.2467   4.9676   H         1 RES1   0.0000
    54 C6A      8.0944  11.8345   6.0003   C.ar      1 RES1   0.0000
    55 H2A      7.6162  12.1733   5.2521   H         1 RES1   0.0000
    56 C7A      7.5246  11.8743   7.2691   C.ar      1 RES1   0.0000
    57 H3A      6.6478  12.2222   7.3796   H         1 RES1   0.0000
    58 C8A      8.2155  11.4195   8.3602   C.ar      1 RES1   0.0000
    59 H4A      7.8214  11.4491   9.2239   H         1 RES1   0.0000
    60 C9A      9.4954  10.9159   8.1875   C.ar      1 RES1   0.0000
    61 C10A    11.6665   8.8455  13.6085   C.ar      1 RES1   0.0000
    62 C11A    12.1434   9.4560  14.7580   C.ar      1 RES1   0.0000
    63 H5A     12.9846   9.8949  14.7339   H         1 RES1   0.0000
    64 C12A    11.4148   9.4435  15.9571   C.ar      1 RES1   0.0000
    65 H6A     11.7712   9.8574  16.7344   H         1 RES1   0.0000
    66 C13A    10.1831   8.8307  16.0028   C.ar      1 RES1   0.0000
    67 H7A      9.6819   8.8284  16.8093   H         1 RES1   0.0000
    68 C14A     9.6764   8.2156  14.8673   C.ar      1 RES1   0.0000
    69 C15A    10.4174   8.2213  13.6860   C.ar      1 RES1   0.0000
    70 H8A     10.0665   7.7915  12.9150   H         1 RES1   0.0000
    71 C16A     8.3519   7.5653  14.8558   C.2       1 RES1   0.0000
    72 H9A      8.1177   7.0923  14.0658   H         1 RES1   0.0000
    73 B1A     12.4531   8.8386  12.2279   B         1 RES1   0.0000
    74 C17     17.6623   6.8558  12.4374   C.ar      2 RES2   0.0000
    75 H10     17.2108   6.6318  13.2427   H         2 RES2   0.0000
    76 C18     18.9157   7.3845  12.4857   C.ar      2 RES2   0.0000
    77 H11     19.3399   7.5187  13.3253   H         2 RES2   0.0000
    78 C19     19.5694   7.7256  11.3273   C.ar      2 RES2   0.0000
    79 H12     20.4440   8.0939  11.3705   H         2 RES2   0.0000
    80 C20     18.9762   7.5391  10.1143   C.ar      2 RES2   0.0000
    81 H13     19.4308   7.7881   9.3179   H         2 RES2   0.0000
    82 C21     17.7033   6.9820  10.0483   C.ar      2 RES2   0.0000
    83 H14     17.2856   6.8308   9.2087   H         2 RES2   0.0000
    84 C22     17.0521   6.6477  11.2308   C.ar      2 RES2   0.0000
    85 H15     16.1803   6.2726  11.2003   H         2 RES2   0.0000
@<TRIPOS>BOND
     1     1     9    1
     2     2    12    1
     3     3     9    1
     4     4    10    1
     5     5    11    1
     6     6    13    1
     7     7    14    1
     8     8    35    2
     9     9    12    2
    10    10     1    1
    11    11     1    1
    12    12    48    1
    13    13    10    2
    14    14    11    2
    15    15     6    1
    16    16    15   ar
    17    17    16    1
    18    18    16   ar
    19    19    18    1
    20    20    18   ar
    21    21    20    1
    22    22    20   ar
    23    23    22    1
    24    24     7    1
    25    25    26   ar
    26    26    27    1
    27    28    26   ar
    28    29    28    1
    29    30    28   ar
    30    31    30    1
    31    32    30   ar
    32    33    25   ar
    33    34    33    1
    34    35    32    1
    35    36    35    1
    36    37     3    1
    37    38    48    1
    38    39    45    1
    39    40    37    1
    40    41    47    1
    41    42    49    1
    42    43    50    1
    43    44    71    2
    44    45     1    1
    45    46     1    1
    46    47     1    1
    47    48    45    2
    48    49    46    2
    49    50    47    2
    50    51    42    1
    51    52    51   ar
    52    53    52    1
    53    54    52   ar
    54    55    54    1
    55    56    54   ar
    56    57    56    1
    57    58    56   ar
    58    59    58    1
    59    60    43    1
    60    61    62   ar
    61    62    63    1
    62    64    62   ar
    63    65    64    1
    64    66    64   ar
    65    67    66    1
    66    68    66   ar
    67    69    61   ar
    68    70    69    1
    69    71    68    1
    70    72    71    1
    71    73     4    1
    72     5    37    1
    73    13    14    1
    74    15    24   ar
    75    22    24   ar
    76    25    37    1
    77    32    33   ar
    78    39    73    1
    79    40    46    1
    80    41    73    1
    81    49    50    1
    82    51    60   ar
    83    58    60   ar
    84    61    73    1
    85    68    69   ar
    86    74    75    1
    87    76    74   ar
    88    77    76    1
    89    78    76   ar
    90    79    78    1
    91    80    78   ar
    92    81    80    1
    93    82    80   ar
    94    83    82    1
    95    84    74   ar
    96    85    84    1
    97    82    84   ar
@<TRIPOS>SUBSTRUCTURE
     1 RES1        1 GROUP             0 ****  ****    0  
     2 RES2       74 GROUP             0 ****  ****    0  
@<TRIPOS>CRYSIN
   28.3514   11.3695   12.7096   90.0000   92.0290   90.0000    15     1
