@<TRIPOS>MOLECULE
MENTEF
    77    80     3     0     0
SMALL
USER_CHARGES
****
Generated from the CSD

@<TRIPOS>ATOM
     1 C1       1.3194   2.4223   1.5986   C.2       1 RES1   0.0000
     2 H1       0.7940   3.0457   1.1110   H         1 RES1   0.0000
     3 C2       2.2005   0.5936   2.3020   C.2       1 RES1   0.0000
     4 H2       2.4089  -0.3282   2.3980   H         1 RES1   0.0000
     5 C3       2.7398   1.5926   3.0399   C.2       1 RES1   0.0000
     6 H3       3.3833   1.5042   3.7338   H         1 RES1   0.0000
     7 C4       2.4895   4.1260   3.0014   C.3       1 RES1   0.0000
     8 H4       3.3226   4.4117   2.5711   H         1 RES1   0.0000
     9 H5       2.5981   4.1553   3.9750   H         1 RES1   0.0000
    10 H6       1.7624   4.7267   2.7353   H         1 RES1   0.0000
    11 C5       1.2163  -2.9472   0.6929   C.2       1 RES1   0.0000
    12 H7       0.3972  -3.2291   1.0814   H         1 RES1   0.0000
    13 C6       2.7161  -1.7678  -0.2833   C.2       1 RES1   0.0000
    14 H8       3.1574  -1.0458  -0.7160   H         1 RES1   0.0000
    15 C7       3.2774  -2.9757  -0.0130   C.2       1 RES1   0.0000
    16 H9       4.1635  -3.2503  -0.2189   H         1 RES1   0.0000
    17 C8       2.4453  -5.1124   1.0665   C.3       1 RES1   0.0000
    18 H10      1.7276  -5.3207   1.6998   H         1 RES1   0.0000
    19 H11      3.3131  -5.2330   1.5045   H         1 RES1   0.0000
    20 H12      2.3833  -5.7127   0.2944   H         1 RES1   0.0000
    21 C9      -1.9385  -1.6618   1.8839   C.2       1 RES1   0.0000
    22 H13     -2.0185  -2.3481   1.2323   H         1 RES1   0.0000
    23 C10     -1.3453   0.1217   2.9131   C.2       1 RES1   0.0000
    24 H14     -0.9125   0.9421   3.1170   H         1 RES1   0.0000
    25 C11     -2.2351  -0.5075   3.7174   C.2       1 RES1   0.0000
    26 H15     -2.5413  -0.2179   4.5682   H         1 RES1   0.0000
    27 C12     -3.4953  -2.7090   3.5389   C.3       1 RES1   0.0000
    28 H16     -3.4389  -3.4842   2.9424   H         1 RES1   0.0000
    29 H17     -4.4171  -2.3773   3.5578   H         1 RES1   0.0000
    30 H18     -3.2251  -2.9726   4.4424   H         1 RES1   0.0000
    31 N1       1.3049   1.1122   1.3892   N.2       1 RES1   0.0000
    32 N2       2.1701   2.7591   2.5874   N.pl3     1 RES1   0.0000
    33 N3       1.4077  -1.7465   0.1646   N.2       1 RES1   0.0000
    34 N4       2.3121  -3.7196   0.6158   N.pl3     1 RES1   0.0000
    35 N5      -1.1591  -0.6029   1.7532   N.2       1 RES1   0.0000
    36 N6      -2.6027  -1.6499   3.0514   N.pl3     1 RES1   0.0000
    37 Fe1      0.0000   0.0000   0.0000   Fe        1 RES1   2.0000
    38 C1B     -1.3194  -2.4223  -1.5986   C.2       1 RES1   0.0000
    39 H1B     -0.7940  -3.0457  -1.1110   H         1 RES1   0.0000
    40 C2B     -2.2005  -0.5936  -2.3020   C.2       1 RES1   0.0000
    41 H2B     -2.4089   0.3282  -2.3980   H         1 RES1   0.0000
    42 C3B     -2.7398  -1.5926  -3.0399   C.2       1 RES1   0.0000
    43 H3B     -3.3833  -1.5042  -3.7338   H         1 RES1   0.0000
    44 C4B     -2.4895  -4.1260  -3.0014   C.3       1 RES1   0.0000
    45 H4B     -3.3226  -4.4117  -2.5711   H         1 RES1   0.0000
    46 H5B     -2.5981  -4.1553  -3.9750   H         1 RES1   0.0000
    47 H6B     -1.7624  -4.7267  -2.7353   H         1 RES1   0.0000
    48 C5B     -1.2163   2.9472  -0.6929   C.2       1 RES1   0.0000
    49 H7B     -0.3972   3.2291  -1.0814   H         1 RES1   0.0000
    50 C6B     -2.7161   1.7678   0.2833   C.2       1 RES1   0.0000
    51 H8B     -3.1574   1.0458   0.7160   H         1 RES1   0.0000
    52 C7B     -3.2774   2.9757   0.0130   C.2       1 RES1   0.0000
    53 H9B     -4.1635   3.2503   0.2189   H         1 RES1   0.0000
    54 C8B     -2.4453   5.1124  -1.0665   C.3       1 RES1   0.0000
    55 H10B    -1.7276   5.3207  -1.6998   H         1 RES1   0.0000
    56 H11B    -3.3131   5.2330  -1.5045   H         1 RES1   0.0000
    57 H12B    -2.3833   5.7127  -0.2944   H         1 RES1   0.0000
    58 C9B      1.9385   1.6618  -1.8839   C.2       1 RES1   0.0000
    59 H13B     2.0185   2.3481  -1.2323   H         1 RES1   0.0000
    60 C10B     1.3453  -0.1217  -2.9131   C.2       1 RES1   0.0000
    61 H14B     0.9125  -0.9421  -3.1170   H         1 RES1   0.0000
    62 C11B     2.2351   0.5075  -3.7174   C.2       1 RES1   0.0000
    63 H15B     2.5413   0.2179  -4.5682   H         1 RES1   0.0000
    64 C12B     3.4953   2.7090  -3.5389   C.3       1 RES1   0.0000
    65 H16B     3.4389   3.4842  -2.9424   H         1 RES1   0.0000
    66 H17B     4.4171   2.3773  -3.5578   H         1 RES1   0.0000
    67 H18B     3.2251   2.9726  -4.4424   H         1 RES1   0.0000
    68 N1B     -1.3049  -1.1122  -1.3892   N.2       1 RES1   0.0000
    69 N2B     -2.1701  -2.7591  -2.5874   N.pl3     1 RES1   0.0000
    70 N3B     -1.4077   1.7465  -0.1646   N.2       1 RES1   0.0000
    71 N4B     -2.3121   3.7196  -0.6158   N.pl3     1 RES1   0.0000
    72 N5B      1.1591   0.6029  -1.7532   N.2       1 RES1   0.0000
    73 N6B      2.6027   1.6499  -3.0514   N.pl3     1 RES1   0.0000
    74 O1       5.9744   7.6867  13.2877   O.3       2 RES2   0.0000
    75 H19      6.3462   6.9365  13.4471   H         2 RES2   0.0000
    76 H20      5.4102   7.8003  13.9353   H         2 RES2   0.0000
    77 Cl1      4.1506   8.2735  15.8142   Cl        3 RES3  -1.0000
@<TRIPOS>BOND
     1     1     2    1
     2     3     4    1
     3     5     3    2
     4     6     5    1
     5     7     8    1
     6     9     7    1
     7    10     7    1
     8    11    12    1
     9    13    14    1
    10    15    13    2
    11    16    15    1
    12    17    18    1
    13    19    17    1
    14    20    17    1
    15    21    22    1
    16    23    24    1
    17    25    23    2
    18    26    25    1
    19    27    28    1
    20    29    27    1
    21    30    27    1
    22    31     1    2
    23    32     1    1
    24    33    11    2
    25    34    11    1
    26    35    21    2
    27    36    21    1
    28    37    31    1
    29    38    39    1
    30    40    41    1
    31    42    40    2
    32    43    42    1
    33    44    45    1
    34    46    44    1
    35    47    44    1
    36    48    49    1
    37    50    51    1
    38    52    50    2
    39    53    52    1
    40    54    55    1
    41    56    54    1
    42    57    54    1
    43    58    59    1
    44    60    61    1
    45    62    60    2
    46    63    62    1
    47    64    65    1
    48    66    64    1
    49    67    64    1
    50    68    37    1
    51    69    38    1
    52    70    37    1
    53    71    48    1
    54    72    37    1
    55    73    58    1
    56     3    31    1
    57     5    32    1
    58     7    32    1
    59    13    33    1
    60    15    34    1
    61    17    34    1
    62    23    35    1
    63    25    36    1
    64    27    36    1
    65    33    37    1
    66    35    37    1
    67    38    68    2
    68    40    68    1
    69    42    69    1
    70    44    69    1
    71    48    70    2
    72    50    70    1
    73    52    71    1
    74    54    71    1
    75    58    72    2
    76    60    72    1
    77    62    73    1
    78    64    73    1
    79    74    75    1
    80    76    74    1
@<TRIPOS>SUBSTRUCTURE
     1 RES1        1 GROUP             0 ****  ****    0  
     2 RES2       74 GROUP             0 ****  ****    0  
     3 RES3       77 GROUP             0 ****  ****    0  
@<TRIPOS>CRYSIN
    8.0205   13.2884   14.9438   90.0000   98.1380   90.0000   231     1
