@<TRIPOS>MOLECULE
MEQVEM
    71    76     5     0     0
SMALL
USER_CHARGES
****
Generated from the CSD

@<TRIPOS>ATOM
     1 B1      15.1013   0.8898   6.8434   B         1 RES1  -1.0000
     2 F1      15.3242   1.7101   7.9433   F         1 RES1   0.0000
     3 F2      13.8188   1.1142   6.4022   F         1 RES1   0.0000
     4 F3      16.0196   1.2496   5.8798   F         1 RES1   0.0000
     5 F4      15.2837  -0.4293   7.1305   F         1 RES1   0.0000
     6 B2       5.7479   2.1501  11.5942   B         2 RES2  -1.0000
     7 F5       5.6138   3.4656  11.8814   F         2 RES2   0.0000
     8 F6       5.9438   2.0201  10.2617   F         2 RES2   0.0000
     9 F7       4.6322   1.4919  11.9570   F         2 RES2   0.0000
    10 F8       6.7897   1.6825  12.3183   F         2 RES2   0.0000
    11 C1       9.6522   9.5089  12.0808   C.3       3 RES3   0.0000
    12 H1       9.1151   9.5214  11.2624   H         3 RES3   0.0000
    13 H2       9.5765  10.3755  12.5330   H         3 RES3   0.0000
    14 H3       9.3274   8.8008  12.6758   H         3 RES3   0.0000
    15 C2      11.0765   9.2506  11.7345   C.2       3 RES3   0.0000
    16 C3      13.4831   9.4635  11.4412   C.2       3 RES3   0.0000
    17 H4      14.4002   9.7004  11.3931   H         3 RES3   0.0000
    18 C4      12.9526   8.2904  11.0010   C.2       3 RES3   0.0000
    19 C5      13.6245   7.1539  10.3913   C.ar      3 RES3   0.0000
    20 C6      14.9873   7.0114  10.1619   C.ar      3 RES3   0.0000
    21 H5      15.5944   7.7079  10.3889   H         3 RES3   0.0000
    22 C7      15.4403   5.8331   9.5997   C.ar      3 RES3   0.0000
    23 H6      16.3705   5.7137   9.4398   H         3 RES3   0.0000
    24 C8      14.5489   4.8239   9.2644   C.ar      3 RES3   0.0000
    25 H7      14.8566   4.0098   8.8844   H         3 RES3   0.0000
    26 C9      13.1940   5.0341   9.4984   C.ar      3 RES3   0.0000
    27 C10     12.1003   4.1132   9.2173   C.2       3 RES3   0.0000
    28 C11     12.1165   2.8947   8.6316   C.2       3 RES3   0.0000
    29 H8      12.8967   2.4503   8.3187   H         3 RES3   0.0000
    30 C12      9.9027   3.6901   9.2902   C.2       3 RES3   0.0000
    31 C13      8.4400   3.8219   9.5464   C.3       3 RES3   0.0000
    32 H9       8.2725   3.7667  10.5093   H         3 RES3   0.0000
    33 H10      7.9632   3.0996   9.0873   H         3 RES3   0.0000
    34 H11      8.1250   4.6868   9.2076   H         3 RES3   0.0000
    35 C14     12.1893   7.2795   7.1202   C.3       3 RES3   0.0000
    36 H12     12.8313   7.7462   7.6945   H         3 RES3   0.0000
    37 H13     12.3126   7.5645   6.1900   H         3 RES3   0.0000
    38 H14     12.3310   6.3131   7.1873   H         3 RES3   0.0000
    39 C15     10.8069   7.6073   7.5575   C.2       3 RES3   0.0000
    40 C16      8.5030   8.3599   7.6739   C.2       3 RES3   0.0000
    41 H15      7.6330   8.7233   7.5673   H         3 RES3   0.0000
    42 C17      8.9431   7.7213   8.7902   C.2       3 RES3   0.0000
    43 C18      8.2290   7.3615  10.0003   C.ar      3 RES3   0.0000
    44 C19      6.9106   7.6465  10.3322   C.ar      3 RES3   0.0000
    45 H16      6.3662   8.1551   9.7424   H         3 RES3   0.0000
    46 C20      6.3984   7.1869  11.5237   C.ar      3 RES3   0.0000
    47 H17      5.4957   7.3730  11.7576   H         3 RES3   0.0000
    48 C21      7.1965   6.4530  12.3800   C.ar      3 RES3   0.0000
    49 H18      6.8513   6.1279  13.2036   H         3 RES3   0.0000
    50 C22      8.5146   6.1982  12.0150   C.ar      3 RES3   0.0000
    51 C23      9.5072   5.4768  12.7832   C.2       3 RES3   0.0000
    52 C24      9.3603   4.7634  13.9172   C.2       3 RES3   0.0000
    53 H19      8.5383   4.6191  14.3694   H         3 RES3   0.0000
    54 C25     11.6545   4.8934  13.0736   C.2       3 RES3   0.0000
    55 C26     13.1268   4.8186  12.9285   C.3       3 RES3   0.0000
    56 H20     13.3494   4.4418  12.0516   H         3 RES3   0.0000
    57 H21     13.4942   4.2468  13.6335   H         3 RES3   0.0000
    58 H22     13.5071   5.7182  13.0042   H         3 RES3   0.0000
    59 Fe1     10.8789   6.4036  10.4389   Fe        3 RES3   2.0000
    60 N1      11.5736   8.1720  11.1671   N.2       3 RES3   0.0000
    61 N2      12.7522   6.1795  10.0656   N.ar      3 RES3   0.0000
    62 N3      10.8254   4.5710   9.5852   N.2       3 RES3   0.0000
    63 N4      10.2766   7.3054   8.7241   N.2       3 RES3   0.0000
    64 N5       9.0133   6.6623  10.8492   N.ar      3 RES3   0.0000
    65 N6      10.8146   5.5267  12.2751   N.2       3 RES3   0.0000
    66 S1      12.2543  10.4413  12.0868   S.3       3 RES3   0.0000
    67 S2      10.5298   2.2745   8.5365   S.3       3 RES3   0.0000
    68 S3       9.7240   8.4176   6.4992   S.3       3 RES3   0.0000
    69 S4      10.8791   4.1577  14.4207   S.3       3 RES3   0.0000
    70 O1      16.3223   1.9515  10.5320   O.3       4 RES4   0.0000
    71 O2       6.0618   4.0855  14.7157   O.3       5 RES5   0.0000
@<TRIPOS>BOND
     1     1     2    1
     2     3     1    1
     3     4     1    1
     4     5     1    1
     5     6     7    1
     6     8     6    1
     7     9     6    1
     8    10     6    1
     9    11    12    1
    10    13    11    1
    11    14    11    1
    12    15    11    1
    13    16    17    1
    14    18    16    2
    15    19    18    1
    16    20    19   ar
    17    21    20    1
    18    22    20   ar
    19    23    22    1
    20    24    22   ar
    21    25    24    1
    22    26    24   ar
    23    27    26    1
    24    28    27    2
    25    29    28    1
    26    30    31    1
    27    31    32    1
    28    33    31    1
    29    34    31    1
    30    35    36    1
    31    37    35    1
    32    38    35    1
    33    39    35    1
    34    40    41    1
    35    42    40    2
    36    43    42    1
    37    44    43   ar
    38    45    44    1
    39    46    44   ar
    40    47    46    1
    41    48    46   ar
    42    49    48    1
    43    50    48   ar
    44    51    50    1
    45    52    51    2
    46    53    52    1
    47    54    55    1
    48    55    56    1
    49    57    55    1
    50    58    55    1
    51    59    60    1
    52    60    15    2
    53    61    19   ar
    54    62    27    1
    55    63    39    2
    56    64    43   ar
    57    65    51    1
    58    66    15    1
    59    67    28    1
    60    68    39    1
    61    69    52    1
    62    16    66    1
    63    18    60    1
    64    26    61   ar
    65    30    62    2
    66    30    67    1
    67    40    68    1
    68    42    63    1
    69    50    64   ar
    70    54    65    2
    71    54    69    1
    72    59    61    1
    73    59    62    1
    74    59    63    1
    75    59    64    1
    76    59    65    1
@<TRIPOS>SUBSTRUCTURE
     1 RES1        1 GROUP             0 ****  ****    0  
     2 RES2        6 GROUP             0 ****  ****    0  
     3 RES3       11 GROUP             0 ****  ****    0  
     4 RES4       70 GROUP             0 ****  ****    0  
     5 RES5       71 GROUP             0 ****  ****    0  
@<TRIPOS>CRYSIN
   42.1380    8.9068   19.0420   90.0000  115.4480   90.0000    15     1
