@<TRIPOS>MOLECULE
MEQVEM02
    71    76     5     0     0
SMALL
USER_CHARGES
****
Generated from the CSD

@<TRIPOS>ATOM
     1 B1      15.6045   0.8125   6.8639   B         1 RES1  -1.0000
     2 F1      15.8950   1.5786   7.9051   F         1 RES1   0.0000
     3 F2      14.3823   1.1402   6.3840   F         1 RES1   0.0000
     4 F3      16.5747   1.0330   5.9336   F         1 RES1   0.0000
     5 F4      15.6504  -0.5229   7.0596   F         1 RES1   0.0000
     6 B2       6.3700   2.1986  11.7060   B         2 RES2  -1.0000
     7 F5       6.4413   3.4913  11.8585   F         2 RES2   0.0000
     8 F6       6.5929   2.0361  10.3963   F         2 RES2   0.0000
     9 F7       5.1642   1.7429  11.8688   F         2 RES2   0.0000
    10 F8       7.2162   1.5078  12.4007   F         2 RES2   0.0000
    11 C1      10.2888   9.7839  12.0993   C.3       3 RES3   0.0000
    12 H1       9.7554   9.7304  11.3041   H         3 RES3   0.0000
    13 H2      10.2017  10.6590  12.4839   H         3 RES3   0.0000
    14 H3       9.9911   9.1258  12.7316   H         3 RES3   0.0000
    15 C2      11.7039   9.5316  11.7580   C.2       3 RES3   0.0000
    16 C3      14.0974   9.7095  11.4756   C.2       3 RES3   0.0000
    17 H4      14.9985   9.9310  11.4340   H         3 RES3   0.0000
    18 C4      13.5514   8.4976  11.0200   C.2       3 RES3   0.0000
    19 C5      14.2118   7.3339  10.4361   C.ar      3 RES3   0.0000
    20 C6      15.5749   7.2177  10.2785   C.ar      3 RES3   0.0000
    21 H5      16.1453   7.9121  10.5210   H         3 RES3   0.0000
    22 C7      16.0648   6.0684   9.7622   C.ar      3 RES3   0.0000
    23 H6      16.9819   5.9731   9.6531   H         3 RES3   0.0000
    24 C8      15.2202   5.0254   9.3897   C.ar      3 RES3   0.0000
    25 H7      15.5627   4.2338   9.0415   H         3 RES3   0.0000
    26 C9      13.8430   5.2033   9.5509   C.ar      3 RES3   0.0000
    27 C10     12.7985   4.2293   9.2165   C.2       3 RES3   0.0000
    28 C11     12.9637   3.0147   8.6379   C.2       3 RES3   0.0000
    29 H8      13.7815   2.6425   8.3919   H         3 RES3   0.0000
    30 C12     10.6549   3.6402   9.1455   C.2       3 RES3   0.0000
    31 C13      9.1880   3.7055   9.3066   C.3       3 RES3   0.0000
    32 H9       8.9582   3.5176  10.2196   H         3 RES3   0.0000
    33 H10      8.7716   3.0574   8.7332   H         3 RES3   0.0000
    34 H11      8.8807   4.5833   9.0727   H         3 RES3   0.0000
    35 C14     12.2433   7.5917   6.9921   C.3       3 RES3   0.0000
    36 H12     12.8762   8.1609   7.4373   H         3 RES3   0.0000
    37 H13     12.2774   7.7524   6.0479   H         3 RES3   0.0000
    38 H14     12.4621   6.6730   7.1688   H         3 RES3   0.0000
    39 C15     10.8786   7.8822   7.4945   C.2       3 RES3   0.0000
    40 C16      8.5998   8.6166   7.8288   C.2       3 RES3   0.0000
    41 H15      7.7414   8.9733   7.8150   H         3 RES3   0.0000
    42 C17      9.1213   7.9303   8.8475   C.2       3 RES3   0.0000
    43 C18      8.4644   7.5054  10.0931   C.ar      3 RES3   0.0000
    44 C19      7.1459   7.7651  10.4431   C.ar      3 RES3   0.0000
    45 H16      6.5902   8.2498   9.8748   H         3 RES3   0.0000
    46 C20      6.6762   7.2903  11.6454   C.ar      3 RES3   0.0000
    47 H17      5.8005   7.4700  11.9000   H         3 RES3   0.0000
    48 C21      7.4717   6.5686  12.4561   C.ar      3 RES3   0.0000
    49 H18      7.1485   6.2445  13.2652   H         3 RES3   0.0000
    50 C22      8.7955   6.3099  12.0681   C.ar      3 RES3   0.0000
    51 C23      9.7688   5.5574  12.8511   C.2       3 RES3   0.0000
    52 C24      9.5653   4.8039  13.9530   C.2       3 RES3   0.0000
    53 H19      8.7362   4.6541  14.3479   H         3 RES3   0.0000
    54 C25     11.8810   4.9755  13.2409   C.2       3 RES3   0.0000
    55 C26     13.3573   4.9301  13.1456   C.3       3 RES3   0.0000
    56 H20     13.6127   4.5652  12.2950   H         3 RES3   0.0000
    57 H21     13.7075   4.3773  13.8490   H         3 RES3   0.0000
    58 H22     13.7105   5.8179  13.2323   H         3 RES3   0.0000
    59 Fe1     11.3024   6.5582  10.4342   Fe        3 RES3   2.0000
    60 N1      12.1895   8.4368  11.1871   N.2       3 RES3   0.0000
    61 N2      13.3723   6.3489  10.0749   N.ar      3 RES3   0.0000
    62 N3      11.4885   4.5697   9.5036   N.2       3 RES3   0.0000
    63 N4      10.4318   7.5236   8.6684   N.2       3 RES3   0.0000
    64 N5       9.2639   6.7919  10.9091   N.ar      3 RES3   0.0000
    65 N6      11.0928   5.6273  12.4378   N.2       3 RES3   0.0000
    66 S1      12.9140  10.6921  12.0963   S.3       3 RES3   0.0000
    67 S2      11.4445   2.2735   8.4319   S.3       3 RES3   0.0000
    68 S3       9.7297   8.7463   6.5572   S.3       3 RES3   0.0000
    69 S4      11.0361   4.1716  14.5139   S.3       3 RES3   0.0000
    70 O1      16.9965   2.0452  10.4587   O.3       4 RES4   0.0000
    71 O2       6.1425   4.2302  14.7707   O.3       5 RES5   0.0000
@<TRIPOS>BOND
     1     1     2    1
     2     3     1    1
     3     4     1    1
     4     5     1    1
     5     6     7    1
     6     8     6    1
     7     9     6    1
     8    10     6    1
     9    11    12    1
    10    13    11    1
    11    14    11    1
    12    15    11    1
    13    16    17    1
    14    18    16    2
    15    19    18    1
    16    20    19   ar
    17    21    20    1
    18    22    20   ar
    19    23    22    1
    20    24    22   ar
    21    25    24    1
    22    26    24   ar
    23    27    26    1
    24    28    27    2
    25    29    28    1
    26    30    31    1
    27    31    32    1
    28    33    31    1
    29    34    31    1
    30    35    36    1
    31    37    35    1
    32    38    35    1
    33    39    35    1
    34    40    41    1
    35    42    40    2
    36    43    42    1
    37    44    43   ar
    38    45    44    1
    39    46    44   ar
    40    47    46    1
    41    48    46   ar
    42    49    48    1
    43    50    48   ar
    44    51    50    1
    45    52    51    2
    46    53    52    1
    47    54    55    1
    48    55    56    1
    49    57    55    1
    50    58    55    1
    51    59    60    1
    52    60    15    2
    53    61    19   ar
    54    62    27    1
    55    63    39    2
    56    64    43   ar
    57    65    51    1
    58    66    15    1
    59    67    28    1
    60    68    39    1
    61    69    52    1
    62    16    66    1
    63    18    60    1
    64    26    61   ar
    65    30    62    2
    66    30    67    1
    67    40    68    1
    68    42    63    1
    69    50    64   ar
    70    54    65    2
    71    54    69    1
    72    59    61    1
    73    59    62    1
    74    59    63    1
    75    59    64    1
    76    59    65    1
@<TRIPOS>SUBSTRUCTURE
     1 RES1        1 GROUP             0 ****  ****    0  
     2 RES2        6 GROUP             0 ****  ****    0  
     3 RES3       11 GROUP             0 ****  ****    0  
     4 RES4       70 GROUP             0 ****  ****    0  
     5 RES5       71 GROUP             0 ****  ****    0  
@<TRIPOS>CRYSIN
   43.1550    9.0777   19.1180   90.0000  115.0180   90.0000    15     1
