@<TRIPOS>MOLECULE
MEQVEM01
    71    76     5     0     0
SMALL
USER_CHARGES
****
Generated from the CSD

@<TRIPOS>ATOM
     1 B1      15.2520   0.8512   6.8349   B         1 RES1  -1.0000
     2 F1      15.5050   1.6164   7.9230   F         1 RES1   0.0000
     3 F2      13.9922   1.1263   6.3787   F         1 RES1   0.0000
     4 F3      16.1795   1.1729   5.8828   F         1 RES1   0.0000
     5 F4      15.3749  -0.4874   7.0673   F         1 RES1   0.0000
     6 B2       5.9526   2.1576  11.6021   B         2 RES2  -1.0000
     7 F5       5.9006   3.4604  11.8844   F         2 RES2   0.0000
     8 F6       6.1847   2.0089  10.2936   F         2 RES2   0.0000
     9 F7       4.7944   1.5895  11.8810   F         2 RES2   0.0000
    10 F8       6.9130   1.5913  12.3579   F         2 RES2   0.0000
    11 C1       9.8536   9.6000  12.0687   C.3       3 RES3   0.0000
    12 H1       9.3119   9.5856  11.2629   H         3 RES3   0.0000
    13 H2       9.7771  10.4682  12.4939   H         3 RES3   0.0000
    14 H3       9.5453   8.9118  12.6781   H         3 RES3   0.0000
    15 C2      11.2738   9.3437  11.7157   C.2       3 RES3   0.0000
    16 C3      13.6884   9.5480  11.4213   C.2       3 RES3   0.0000
    17 H4      14.5969   9.7792  11.3697   H         3 RES3   0.0000
    18 C4      13.1491   8.3751  10.9857   C.2       3 RES3   0.0000
    19 C5      13.8144   7.2273  10.3883   C.ar      3 RES3   0.0000
    20 C6      15.1797   7.0929  10.1852   C.ar      3 RES3   0.0000
    21 H5      15.7690   7.7891  10.4124   H         3 RES3   0.0000
    22 C7      15.6566   5.9245   9.6411   C.ar      3 RES3   0.0000
    23 H6      16.5792   5.8161   9.5017   H         3 RES3   0.0000
    24 C8      14.7784   4.9003   9.2985   C.ar      3 RES3   0.0000
    25 H7      15.0951   4.0957   8.9318   H         3 RES3   0.0000
    26 C9      13.4158   5.0984   9.5103   C.ar      3 RES3   0.0000
    27 C10     12.3400   4.1522   9.2073   C.2       3 RES3   0.0000
    28 C11     12.3883   2.9219   8.6202   C.2       3 RES3   0.0000
    29 H8      13.1763   2.4954   8.3293   H         3 RES3   0.0000
    30 C12     10.1614   3.6683   9.2228   C.2       3 RES3   0.0000
    31 C13      8.6893   3.7911   9.4397   C.3       3 RES3   0.0000
    32 H9       8.4863   3.6531  10.3797   H         3 RES3   0.0000
    33 H10      8.2281   3.1235   8.9095   H         3 RES3   0.0000
    34 H11      8.3954   4.6763   9.1746   H         3 RES3   0.0000
    35 C14     12.1983   7.3698   7.0535   C.3       3 RES3   0.0000
    36 H12     12.8372   7.8877   7.5666   H         3 RES3   0.0000
    37 H13     12.2862   7.5875   6.1135   H         3 RES3   0.0000
    38 H14     12.3686   6.4245   7.1844   H         3 RES3   0.0000
    39 C15     10.8242   7.6932   7.5098   C.2       3 RES3   0.0000
    40 C16      8.5238   8.4450   7.7060   C.2       3 RES3   0.0000
    41 H15      7.6609   8.8079   7.6337   H         3 RES3   0.0000
    42 C17      8.9968   7.7855   8.7889   C.2       3 RES3   0.0000
    43 C18      8.3039   7.4038  10.0147   C.ar      3 RES3   0.0000
    44 C19      6.9846   7.6771  10.3556   C.ar      3 RES3   0.0000
    45 H16      6.4408   8.1798   9.7754   H         3 RES3   0.0000
    46 C20      6.4805   7.2049  11.5470   C.ar      3 RES3   0.0000
    47 H17      5.5895   7.3805  11.7846   H         3 RES3   0.0000
    48 C21      7.2882   6.4773  12.3837   C.ar      3 RES3   0.0000
    49 H18      6.9571   6.1512  13.1998   H         3 RES3   0.0000
    50 C22      8.5992   6.2309  12.0050   C.ar      3 RES3   0.0000
    51 C23      9.5952   5.4962  12.7780   C.2       3 RES3   0.0000
    52 C24      9.4324   4.7677  13.9125   C.2       3 RES3   0.0000
    53 H19      8.6101   4.6172  14.3447   H         3 RES3   0.0000
    54 C25     11.7281   4.9218  13.1085   C.2       3 RES3   0.0000
    55 C26     13.2016   4.8663  12.9880   C.3       3 RES3   0.0000
    56 H20     13.4408   4.5706  12.0962   H         3 RES3   0.0000
    57 H21     13.5569   4.2444  13.6422   H         3 RES3   0.0000
    58 H22     13.5712   5.7489  13.1464   H         3 RES3   0.0000
    59 Fe1     11.0159   6.4547  10.4149   Fe        3 RES3   2.0000
    60 N1      11.7701   8.2685  11.1541   N.2       3 RES3   0.0000
    61 N2      12.9592   6.2435  10.0528   N.ar      3 RES3   0.0000
    62 N3      11.0554   4.5706   9.5447   N.2       3 RES3   0.0000
    63 N4      10.3228   7.3742   8.6839   N.2       3 RES3   0.0000
    64 N5       9.0904   6.6977  10.8480   N.ar      3 RES3   0.0000
    65 N6      10.9043   5.5589  12.3064   N.2       3 RES3   0.0000
    66 S1      12.4577  10.5307  12.0695   S.3       3 RES3   0.0000
    67 S2      10.8322   2.2751   8.4895   S.3       3 RES3   0.0000
    68 S3       9.7091   8.5250   6.4990   S.3       3 RES3   0.0000
    69 S4      10.9376   4.1681  14.4307   S.3       3 RES3   0.0000
    70 O1      16.5392   1.9856  10.4813   O.3       4 RES4   0.0000
    71 O2       6.0658   4.1307  14.7148   O.3       5 RES5   0.0000
@<TRIPOS>BOND
     1     1     2    1
     2     3     1    1
     3     4     1    1
     4     5     1    1
     5     6     7    1
     6     8     6    1
     7     9     6    1
     8    10     6    1
     9    11    12    1
    10    13    11    1
    11    14    11    1
    12    15    11    1
    13    16    17    1
    14    18    16    2
    15    19    18    1
    16    20    19   ar
    17    21    20    1
    18    22    20   ar
    19    23    22    1
    20    24    22   ar
    21    25    24    1
    22    26    24   ar
    23    27    26    1
    24    28    27    2
    25    29    28    1
    26    30    31    1
    27    31    32    1
    28    33    31    1
    29    34    31    1
    30    35    36    1
    31    37    35    1
    32    38    35    1
    33    39    35    1
    34    40    41    1
    35    42    40    2
    36    43    42    1
    37    44    43   ar
    38    45    44    1
    39    46    44   ar
    40    47    46    1
    41    48    46   ar
    42    49    48    1
    43    50    48   ar
    44    51    50    1
    45    52    51    2
    46    53    52    1
    47    54    55    1
    48    55    56    1
    49    57    55    1
    50    58    55    1
    51    59    60    1
    52    60    15    2
    53    61    19   ar
    54    62    27    1
    55    63    39    2
    56    64    43   ar
    57    65    51    1
    58    66    15    1
    59    67    28    1
    60    68    39    1
    61    69    52    1
    62    16    66    1
    63    18    60    1
    64    26    61   ar
    65    30    62    2
    66    30    67    1
    67    40    68    1
    68    42    63    1
    69    50    64   ar
    70    54    65    2
    71    54    69    1
    72    59    61    1
    73    59    62    1
    74    59    63    1
    75    59    64    1
    76    59    65    1
@<TRIPOS>SUBSTRUCTURE
     1 RES1        1 GROUP             0 ****  ****    0  
     2 RES2        6 GROUP             0 ****  ****    0  
     3 RES3       11 GROUP             0 ****  ****    0  
     4 RES4       70 GROUP             0 ****  ****    0  
     5 RES5       71 GROUP             0 ****  ****    0  
@<TRIPOS>CRYSIN
   42.4810    8.9602   19.0560   90.0000  115.3833   90.0000    15     1
