@<TRIPOS>MOLECULE
MESZEP
    74    82     4     0     0
SMALL
USER_CHARGES
****
Generated from the CSD

@<TRIPOS>ATOM
     1 Fe1      8.9644   8.4683   4.2669   Fe        1 RES1   2.0000
     2 N1       9.9718  10.1477   4.0297   N.ar      1 RES1   0.0000
     3 N2       9.7786   8.0027   2.5419   N.ar      1 RES1   0.0000
     4 C1      10.0959  11.1931   4.8237   C.ar      1 RES1   0.0000
     5 C2      10.7854  12.3640   4.4320   C.ar      1 RES1   0.0000
     6 C3      11.3222  12.4728   3.1883   C.ar      1 RES1   0.0000
     7 C4      11.2103  11.3841   2.3117   C.ar      1 RES1   0.0000
     8 C5      11.7675  11.3383   0.9890   C.ar      1 RES1   0.0000
     9 C6      11.6932  10.2215   0.2213   C.ar      1 RES1   0.0000
    10 C7      11.0278   9.0215   0.7167   C.ar      1 RES1   0.0000
    11 C8      10.9761   7.8197   0.0193   C.ar      1 RES1   0.0000
    12 C9      10.3478   6.7331   0.5832   C.ar      1 RES1   0.0000
    13 C10      9.7657   6.8734   1.8427   C.ar      1 RES1   0.0000
    14 C11     10.4671   9.0585   1.9920   C.ar      1 RES1   0.0000
    15 C12     10.5517  10.2327   2.7948   C.ar      1 RES1   0.0000
    16 N3       7.8622   6.8079   4.3213   N.ar      1 RES1   0.0000
    17 N4       7.3928   9.1578   3.2919   N.ar      1 RES1   0.0000
    18 C13      8.1506   5.6128   4.8677   C.ar      1 RES1   0.0000
    19 C14      7.2474   4.5445   4.8079   C.ar      1 RES1   0.0000
    20 C15      6.0521   4.7180   4.1808   C.ar      1 RES1   0.0000
    21 C16      5.7381   5.9390   3.6064   C.ar      1 RES1   0.0000
    22 C17      4.5133   6.1946   2.9301   C.ar      1 RES1   0.0000
    23 C18      4.2854   7.4246   2.3363   C.ar      1 RES1   0.0000
    24 C19      5.2164   8.4785   2.4417   C.ar      1 RES1   0.0000
    25 C20      5.0317   9.7428   1.9077   C.ar      1 RES1   0.0000
    26 C21      6.0025  10.6997   2.0816   C.ar      1 RES1   0.0000
    27 C22      7.1623  10.3949   2.7913   C.ar      1 RES1   0.0000
    28 C23      6.4088   8.2281   3.1338   C.ar      1 RES1   0.0000
    29 C24      6.6709   6.9656   3.7083   C.ar      1 RES1   0.0000
    30 N5       8.3268   9.0582   6.0323   N.ar      1 RES1   0.0000
    31 N6      10.3800   7.6052   5.3507   N.ar      1 RES1   0.0000
    32 C25      7.3085   9.8290   6.3661   C.ar      1 RES1   0.0000
    33 C26      7.0625  10.2221   7.6923   C.ar      1 RES1   0.0000
    34 C27      7.8285   9.7903   8.7042   C.ar      1 RES1   0.0000
    35 C28      8.8812   8.9221   8.4055   C.ar      1 RES1   0.0000
    36 C29      9.7977   8.3239   9.3805   C.ar      1 RES1   0.0000
    37 C30     10.7697   7.4730   9.0204   C.ar      1 RES1   0.0000
    38 C31     11.0360   7.2113   7.6554   C.ar      1 RES1   0.0000
    39 C32     12.0493   6.3855   7.2075   C.ar      1 RES1   0.0000
    40 C33     12.2251   6.1670   5.8760   C.ar      1 RES1   0.0000
    41 C34     11.3936   6.8261   4.9485   C.ar      1 RES1   0.0000
    42 C35     10.1988   7.7702   6.6805   C.ar      1 RES1   0.0000
    43 C36      9.0921   8.5999   7.0635   C.ar      1 RES1   0.0000
    44 H1       9.6863  11.1561   5.7354   H         1 RES1   0.0000
    45 H2      10.8802  13.1207   5.0785   H         1 RES1   0.0000
    46 H3      11.7866  13.3114   2.9037   H         1 RES1   0.0000
    47 H4      12.2222  12.1513   0.6236   H         1 RES1   0.0000
    48 H5      12.0976  10.2223  -0.6921   H         1 RES1   0.0000
    49 H6      11.3930   7.7456  -0.8871   H         1 RES1   0.0000
    50 H7      10.3088   5.8588   0.0984   H         1 RES1   0.0000
    51 H8       9.3121   6.0774   2.2432   H         1 RES1   0.0000
    52 H9       9.0301   5.4854   5.3279   H         1 RES1   0.0000
    53 H10      7.4790   3.6644   5.2225   H         1 RES1   0.0000
    54 H11      5.3987   3.9619   4.1351   H         1 RES1   0.0000
    55 H12      3.8128   5.4821   2.8826   H         1 RES1   0.0000
    56 H13      3.4404   7.5681   1.8199   H         1 RES1   0.0000
    57 H14      4.1982   9.9569   1.3983   H         1 RES1   0.0000
    58 H15      5.8757  11.6149   1.7004   H         1 RES1   0.0000
    59 H16      7.8448  11.1117   2.9353   H         1 RES1   0.0000
    60 H17      6.6892  10.1472   5.6476   H         1 RES1   0.0000
    61 H18      6.2994  10.8387   7.8873   H         1 RES1   0.0000
    62 H19      7.6510  10.0798   9.6440   H         1 RES1   0.0000
    63 H20      9.6935   8.5570  10.3466   H         1 RES1   0.0000
    64 H21     11.3145   7.0182   9.7248   H         1 RES1   0.0000
    65 H22     12.6580   5.9455   7.8680   H         1 RES1   0.0000
    66 H23     12.9391   5.5432   5.5563   H         1 RES1   0.0000
    67 H24     11.5636   6.7120   3.9700   H         1 RES1   0.0000
    68 I1       7.7456   3.7661   0.6816   I         2 RES2   0.0000
    69 I2      10.1457   3.0894   2.1378   I         2 RES2  -1.0000
    70 I3      12.5583   2.5509   3.7206   I         2 RES2   0.0000
    71 I4      13.6869   9.9041   5.2875   I         3 RES3   0.0000
    72 I5      12.5346  11.0345   7.7240   I         3 RES3  -1.0000
    73 I6      11.4683  11.9606  10.2289   I         3 RES3   0.0000
    74 O1      10.0046   3.1537   6.6454   O.3       4 RES4   0.0000
@<TRIPOS>BOND
     1     1     2    1
     2     2     4   ar
     3     3     1    1
     4     4     5   ar
     5     5     6   ar
     6     6     7   ar
     7     7     8   ar
     8     8     9   ar
     9     9    10   ar
    10    10    11   ar
    11    11    12   ar
    12    12    13   ar
    13    13     3   ar
    14    14     3   ar
    15    15     2   ar
    16    16     1    1
    17    17     1    1
    18    18    16   ar
    19    19    18   ar
    20    20    19   ar
    21    21    20   ar
    22    22    21   ar
    23    23    22   ar
    24    24    23   ar
    25    25    24   ar
    26    26    25   ar
    27    27    17   ar
    28    28    17   ar
    29    29    16   ar
    30    30     1    1
    31    31     1    1
    32    32    30   ar
    33    33    32   ar
    34    34    33   ar
    35    35    34   ar
    36    36    35   ar
    37    37    36   ar
    38    38    37   ar
    39    39    38   ar
    40    40    39   ar
    41    41    31   ar
    42    42    31   ar
    43    43    30   ar
    44    44     4    1
    45    45     5    1
    46    46     6    1
    47    47     8    1
    48    48     9    1
    49    49    11    1
    50    50    12    1
    51    51    13    1
    52    52    18    1
    53    53    19    1
    54    54    20    1
    55    55    22    1
    56    56    23    1
    57    57    25    1
    58    58    26    1
    59    59    27    1
    60    60    32    1
    61    61    33    1
    62    62    34    1
    63    63    36    1
    64    64    37    1
    65    65    39    1
    66    66    40    1
    67    67    41    1
    68     7    15   ar
    69    10    14   ar
    70    14    15   ar
    71    21    29   ar
    72    24    28   ar
    73    26    27   ar
    74    28    29   ar
    75    35    43   ar
    76    38    42   ar
    77    40    41   ar
    78    42    43   ar
    79    68    69    1
    80    69    70    1
    81    71    72    1
    82    72    73    1
@<TRIPOS>SUBSTRUCTURE
     1 RES1        1 GROUP             0 ****  ****    0  
     2 RES2       68 GROUP             0 ****  ****    0  
     3 RES3       71 GROUP             0 ****  ****    0  
     4 RES4       74 GROUP             0 ****  ****    0  
@<TRIPOS>CRYSIN
   10.0850   12.5450   17.8960   79.0800   87.0700   67.0700     2     1
