@<TRIPOS>MOLECULE
MESZIT
    76    84     4     0     0
SMALL
USER_CHARGES
****
Generated from the CSD

@<TRIPOS>ATOM
     1 Fe1      3.2421   1.9524   3.3042   Fe        1 RES1   2.0000
     2 N1       1.5252   1.0077   3.5287   N.ar      1 RES1   0.0000
     3 N2       2.2260   3.4740   4.0141   N.ar      1 RES1   0.0000
     4 C1       1.2126  -0.2764   3.3105   C.ar      1 RES1   0.0000
     5 C2      -0.0705  -0.7922   3.6431   C.ar      1 RES1   0.0000
     6 C3      -1.0021  -0.0081   4.1538   C.ar      1 RES1   0.0000
     7 C4      -0.7424   1.3742   4.3892   C.ar      1 RES1   0.0000
     8 C5      -1.6427   2.2844   4.9279   C.ar      1 RES1   0.0000
     9 C6      -1.2943   3.5730   5.1886   C.ar      1 RES1   0.0000
    10 C7       0.0305   4.0391   4.9053   C.ar      1 RES1   0.0000
    11 C8       0.5055   5.3448   5.1540   C.ar      1 RES1   0.0000
    12 C9       1.7963   5.6914   4.8335   C.ar      1 RES1   0.0000
    13 C10      2.6140   4.7277   4.2828   C.ar      1 RES1   0.0000
    14 C11      0.9338   3.1387   4.3400   C.ar      1 RES1   0.0000
    15 C12      0.5398   1.8028   4.0740   C.ar      1 RES1   0.0000
    16 N3       3.8016   1.5521   5.1380   N.ar      1 RES1   0.0000
    17 N4       4.9611   2.8982   3.2627   N.ar      1 RES1   0.0000
    18 C13      3.1620   0.8755   6.1223   C.ar      1 RES1   0.0000
    19 C14      3.6568   0.8118   7.4231   C.ar      1 RES1   0.0000
    20 C15      4.8466   1.3841   7.7583   C.ar      1 RES1   0.0000
    21 C16      5.5664   2.0834   6.7581   C.ar      1 RES1   0.0000
    22 C17      6.8297   2.7048   6.9669   C.ar      1 RES1   0.0000
    23 C18      7.4656   3.3089   5.9733   C.ar      1 RES1   0.0000
    24 C19      6.9030   3.3925   4.6446   C.ar      1 RES1   0.0000
    25 C20      7.5185   4.0335   3.5233   C.ar      1 RES1   0.0000
    26 C21      6.8460   4.0954   2.3409   C.ar      1 RES1   0.0000
    27 C22      5.5638   3.5353   2.2438   C.ar      1 RES1   0.0000
    28 C23      5.6451   2.8352   4.4238   C.ar      1 RES1   0.0000
    29 C24      4.9844   2.1440   5.4812   C.ar      1 RES1   0.0000
    30 N5       4.1462   0.4053   2.4686   N.ar      1 RES1   0.0000
    31 N6       2.8090   2.3806   1.4245   N.ar      1 RES1   0.0000
    32 C25      4.8455  -0.5665   3.0286   C.ar      1 RES1   0.0000
    33 C26      5.4764  -1.5833   2.2877   C.ar      1 RES1   0.0000
    34 C27      5.3568  -1.5792   0.9337   C.ar      1 RES1   0.0000
    35 C28      4.6525  -0.5598   0.2953   C.ar      1 RES1   0.0000
    36 C29      4.4962  -0.4274  -1.1106   C.ar      1 RES1   0.0000
    37 C30      3.7961   0.5906  -1.6533   C.ar      1 RES1   0.0000
    38 C31      3.1735   1.5932  -0.8273   C.ar      1 RES1   0.0000
    39 C32      2.4404   2.6899  -1.3194   C.ar      1 RES1   0.0000
    40 C33      1.9192   3.5687  -0.4456   C.ar      1 RES1   0.0000
    41 C34      2.1418   3.3902   0.9350   C.ar      1 RES1   0.0000
    42 C35      3.3265   1.4805   0.5520   C.ar      1 RES1   0.0000
    43 C36      4.0489   0.4150   1.1040   C.ar      1 RES1   0.0000
    44 H1       1.8959  -0.8859   2.9075   H         1 RES1   0.0000
    45 H2      -0.2708  -1.7600   3.4888   H         1 RES1   0.0000
    46 H3      -1.9003  -0.3878   4.3772   H         1 RES1   0.0000
    47 H4      -2.5746   1.9841   5.1301   H         1 RES1   0.0000
    48 H5      -1.9671   4.2008   5.5796   H         1 RES1   0.0000
    49 H6      -0.1018   6.0228   5.5677   H         1 RES1   0.0000
    50 H7       2.1335   6.6194   4.9957   H         1 RES1   0.0000
    51 H8       3.5572   4.9820   4.0687   H         1 RES1   0.0000
    52 H9       2.3052   0.4063   5.9068   H         1 RES1   0.0000
    53 H10      3.1269   0.3362   8.1254   H         1 RES1   0.0000
    54 H11      5.2038   1.3123   8.6893   H         1 RES1   0.0000
    55 H12      7.2426   2.6851   7.8767   H         1 RES1   0.0000
    56 H13      8.3598   3.7198   6.1489   H         1 RES1   0.0000
    57 H14      8.4333   4.4316   3.6058   H         1 RES1   0.0000
    58 H15      7.2638   4.5382   1.5469   H         1 RES1   0.0000
    59 H16      5.0754   3.6119   1.3753   H         1 RES1   0.0000
    60 H17      4.9313  -0.5796   4.0248   H         1 RES1   0.0000
    61 H18      6.0017  -2.2985   2.7506   H         1 RES1   0.0000
    62 H19      5.7764  -2.3085   0.3937   H         1 RES1   0.0000
    63 H20      4.9139  -1.1070  -1.7131   H         1 RES1   0.0000
    64 H21      3.7093   0.6506  -2.6482   H         1 RES1   0.0000
    65 H22      2.3094   2.8135  -2.3037   H         1 RES1   0.0000
    66 H23      1.3771   4.3431  -0.7714   H         1 RES1   0.0000
    67 H24      1.7714   4.0689   1.5695   H         1 RES1   0.0000
    68 I1      -2.3351   2.9129   8.9128   I         2 RES2   0.0000
    69 I2      -0.7771   0.6088   8.1682   I         2 RES2  -1.0000
    70 I3       0.6415  -1.8686   7.5298   I         2 RES2   0.0000
    71 I4      -3.2193   7.0892   2.2710   I         3 RES3   0.0000
    72 I5      -0.3332   7.0920   1.7576   I         3 RES3  -1.0000
    73 I6       2.5378   7.2330   1.3366   I         3 RES3   0.0000
    74 N7      11.8954   1.2145   0.2873   N.1       4 RES4   0.0000
    75 C37     11.3439   2.1724   0.6996   C.1       4 RES4   0.0000
    76 C38     10.6986   3.2934   1.1811   C.2       4 RES4   0.0000
@<TRIPOS>BOND
     1     1     2    1
     2     2     4   ar
     3     3     1    1
     4     4     5   ar
     5     5     6   ar
     6     6     7   ar
     7     7     8   ar
     8     8     9   ar
     9     9    10   ar
    10    10    11   ar
    11    11    12   ar
    12    12    13   ar
    13    13     3   ar
    14    14     3   ar
    15    15     2   ar
    16    16     1    1
    17    17     1    1
    18    18    16   ar
    19    19    18   ar
    20    20    19   ar
    21    21    20   ar
    22    22    21   ar
    23    23    22   ar
    24    24    23   ar
    25    25    24   ar
    26    26    25   ar
    27    27    17   ar
    28    28    17   ar
    29    29    16   ar
    30    30     1    1
    31    31     1    1
    32    32    30   ar
    33    33    32   ar
    34    34    33   ar
    35    35    34   ar
    36    36    35   ar
    37    37    36   ar
    38    38    37   ar
    39    39    38   ar
    40    40    39   ar
    41    41    31   ar
    42    42    31   ar
    43    43    30   ar
    44    44     4    1
    45    45     5    1
    46    46     6    1
    47    47     8    1
    48    48     9    1
    49    49    11    1
    50    50    12    1
    51    51    13    1
    52    52    18    1
    53    53    19    1
    54    54    20    1
    55    55    22    1
    56    56    23    1
    57    57    25    1
    58    58    26    1
    59    59    27    1
    60    60    32    1
    61    61    33    1
    62    62    34    1
    63    63    36    1
    64    64    37    1
    65    65    39    1
    66    66    40    1
    67    67    41    1
    68     7    15   ar
    69    10    14   ar
    70    14    15   ar
    71    21    29   ar
    72    24    28   ar
    73    26    27   ar
    74    28    29   ar
    75    35    43   ar
    76    38    42   ar
    77    40    41   ar
    78    42    43   ar
    79    68    69    1
    80    69    70    1
    81    71    72    1
    82    72    73    1
    83    74    75    3
    84    75    76    1
@<TRIPOS>SUBSTRUCTURE
     1 RES1        1 GROUP             0 ****  ****    0  
     2 RES2       68 GROUP             0 ****  ****    0  
     3 RES3       71 GROUP             0 ****  ****    0  
     4 RES4       74 GROUP             0 ****  ****    0  
@<TRIPOS>CRYSIN
   12.7180   13.2740   14.2120   92.7000  107.9600  111.2500     2     1
