@<TRIPOS>MOLECULE
MESZAL
    85    94     4     0     0
SMALL
USER_CHARGES
****
Generated from the CSD

@<TRIPOS>ATOM
     1 Fe1      6.8817   7.9851   4.2882   Fe        1 RES1   2.0000
     2 N1       8.3214   9.3216   3.9816   N.ar      1 RES1   0.0000
     3 N2       5.7883   9.3067   3.3285   N.ar      1 RES1   0.0000
     4 C1       9.5845   9.3301   4.3713   C.ar      1 RES1   0.0000
     5 C2      10.4844  10.3381   4.0342   C.ar      1 RES1   0.0000
     6 C3      10.0698  11.3828   3.2232   C.ar      1 RES1   0.0000
     7 C4       8.7285  11.4220   2.8247   C.ar      1 RES1   0.0000
     8 C5       8.1580  12.4902   2.0312   C.ar      1 RES1   0.0000
     9 C6       6.8464  12.4673   1.6906   C.ar      1 RES1   0.0000
    10 C7       5.9832  11.4094   2.0996   C.ar      1 RES1   0.0000
    11 C8       4.6226  11.3097   1.7819   C.ar      1 RES1   0.0000
    12 C9       3.8898  10.2651   2.2243   C.ar      1 RES1   0.0000
    13 C10      4.4951   9.2698   3.0055   C.ar      1 RES1   0.0000
    14 C11      6.5175  10.3718   2.8527   C.ar      1 RES1   0.0000
    15 C12      7.8993  10.3879   3.2302   C.ar      1 RES1   0.0000
    16 N3       7.2085   7.0218   2.5789   N.ar      1 RES1   0.0000
    17 N4       5.4328   6.6441   4.4591   N.ar      1 RES1   0.0000
    18 C13      8.0941   7.2630   1.6151   C.ar      1 RES1   0.0000
    19 C14      8.2462   6.4359   0.5302   C.ar      1 RES1   0.0000
    20 C15      7.4938   5.2989   0.3950   C.ar      1 RES1   0.0000
    21 C16      6.5255   5.0214   1.3623   C.ar      1 RES1   0.0000
    22 C17      5.6370   3.8878   1.3500   C.ar      1 RES1   0.0000
    23 C18      4.7261   3.6613   2.3436   C.ar      1 RES1   0.0000
    24 C19      4.6143   4.5935   3.4321   C.ar      1 RES1   0.0000
    25 C20      3.6865   4.4477   4.4766   C.ar      1 RES1   0.0000
    26 C21      3.6358   5.4078   5.4545   C.ar      1 RES1   0.0000
    27 C22      4.5173   6.4870   5.4123   C.ar      1 RES1   0.0000
    28 C23      5.4546   5.7017   3.4707   C.ar      1 RES1   0.0000
    29 C24      6.4200   5.9086   2.4490   C.ar      1 RES1   0.0000
    30 N5       8.1045   6.7979   5.3087   N.ar      1 RES1   0.0000
    31 N6       6.5406   8.7493   6.0794   N.ar      1 RES1   0.0000
    32 C25      8.9025   5.8279   4.8769   C.ar      1 RES1   0.0000
    33 C26      9.7834   5.1400   5.7125   C.ar      1 RES1   0.0000
    34 C27      9.8361   5.4676   7.0450   C.ar      1 RES1   0.0000
    35 C28      9.0152   6.4830   7.5435   C.ar      1 RES1   0.0000
    36 C29      8.9807   6.8968   8.8971   C.ar      1 RES1   0.0000
    37 C30      8.1325   7.8645   9.3166   C.ar      1 RES1   0.0000
    38 C31      7.2489   8.5309   8.4020   C.ar      1 RES1   0.0000
    39 C32      6.3506   9.5585   8.7461   C.ar      1 RES1   0.0000
    40 C33      5.5880  10.1189   7.7998   C.ar      1 RES1   0.0000
    41 C34      5.7194   9.7140   6.4376   C.ar      1 RES1   0.0000
    42 C35      7.3063   8.1585   7.0502   C.ar      1 RES1   0.0000
    43 C36      8.1564   7.1282   6.6272   C.ar      1 RES1   0.0000
    44 H1       9.9103   8.5732   4.9366   H         1 RES1   0.0000
    45 H2      11.4244  10.3084   4.3748   H         1 RES1   0.0000
    46 H3      10.7124  12.0920   2.9317   H         1 RES1   0.0000
    47 H4       8.7353  13.2497   1.7327   H         1 RES1   0.0000
    48 H5       6.4748  13.2127   1.1358   H         1 RES1   0.0000
    49 H6       4.1902  12.0164   1.2219   H         1 RES1   0.0000
    50 H7       2.9178  10.2031   1.9960   H         1 RES1   0.0000
    51 H8       3.9369   8.5061   3.3320   H         1 RES1   0.0000
    52 H9       8.6716   8.0776   1.6853   H         1 RES1   0.0000
    53 H10      8.9159   6.6685  -0.1756   H         1 RES1   0.0000
    54 H11      7.6362   4.6806  -0.3774   H         1 RES1   0.0000
    55 H12      5.6888   3.2430   0.5881   H         1 RES1   0.0000
    56 H13      4.1402   2.8524   2.3138   H         1 RES1   0.0000
    57 H14      3.0746   3.6580   4.5082   H         1 RES1   0.0000
    58 H15      2.9676   5.3351   6.1935   H         1 RES1   0.0000
    59 H16      4.4588   7.1775   6.1338   H         1 RES1   0.0000
    60 H17      8.8709   5.5792   3.9096   H         1 RES1   0.0000
    61 H18     10.3686   4.4184   5.3439   H         1 RES1   0.0000
    62 H19     10.4593   4.9819   7.6559   H         1 RES1   0.0000
    63 H20      9.5966   6.4643   9.5571   H         1 RES1   0.0000
    64 H21      8.1199   8.1194  10.2839   H         1 RES1   0.0000
    65 H22      6.2837   9.8688   9.6941   H         1 RES1   0.0000
    66 H23      4.9242  10.8246   8.0491   H         1 RES1   0.0000
    67 H24      5.1734  10.1746   5.7371   H         1 RES1   0.0000
    68 I1      11.6842   7.0078   2.6486   I         2 RES2   0.0000
    69 I2      11.0612   4.2402   1.8103   I         2 RES2  -1.0000
    70 I3      10.4840   1.6102   0.8030   I         2 RES2   0.0000
    71 I4      12.0527  11.7069  12.5328   I         3 RES3   0.0000
    72 I5      12.1876  10.1754  10.0589   I         3 RES3  -1.0000
    73 I6      12.2724   8.5761   7.5820   I         3 RES3   0.0000
    74 C37      6.8283  12.1680  11.0511   C.ar      4 RES4   0.0000
    75 C38      5.6817  11.5930  11.5988   C.ar      4 RES4   0.0000
    76 C39      5.7814  10.5474  12.4836   C.ar      4 RES4   0.0000
    77 C40      6.9935  10.0045  12.8821   C.ar      4 RES4   0.0000
    78 C41      8.1195  10.5909  12.3239   C.ar      4 RES4   0.0000
    79 C42      8.0595  11.6378  11.4373   C.ar      4 RES4   0.0000
    80 C43      6.7437  13.2744  10.1154   C.3       4 RES4   0.0000
    81 H25      4.7801  11.9460  11.3460   H         4 RES4   0.0000
    82 H26      4.9399  10.1577  12.8576   H         4 RES4   0.0000
    83 H27      7.0516   9.2415  13.5264   H         4 RES4   0.0000
    84 H28      9.0182  10.2354  12.5802   H         4 RES4   0.0000
    85 H29      8.9042  12.0237  11.0669   H         4 RES4   0.0000
@<TRIPOS>BOND
     1     1     2    1
     2     2     4   ar
     3     3     1    1
     4     4     5   ar
     5     5     6   ar
     6     6     7   ar
     7     7     8   ar
     8     8     9   ar
     9     9    10   ar
    10    10    11   ar
    11    11    12   ar
    12    12    13   ar
    13    13     3   ar
    14    14     3   ar
    15    15     2   ar
    16    16     1    1
    17    17     1    1
    18    18    16   ar
    19    19    18   ar
    20    20    19   ar
    21    21    20   ar
    22    22    21   ar
    23    23    22   ar
    24    24    23   ar
    25    25    24   ar
    26    26    25   ar
    27    27    17   ar
    28    28    17   ar
    29    29    16   ar
    30    30     1    1
    31    31     1    1
    32    32    30   ar
    33    33    32   ar
    34    34    33   ar
    35    35    34   ar
    36    36    35   ar
    37    37    36   ar
    38    38    37   ar
    39    39    38   ar
    40    40    39   ar
    41    41    31   ar
    42    42    31   ar
    43    43    30   ar
    44    44     4    1
    45    45     5    1
    46    46     6    1
    47    47     8    1
    48    48     9    1
    49    49    11    1
    50    50    12    1
    51    51    13    1
    52    52    18    1
    53    53    19    1
    54    54    20    1
    55    55    22    1
    56    56    23    1
    57    57    25    1
    58    58    26    1
    59    59    27    1
    60    60    32    1
    61    61    33    1
    62    62    34    1
    63    63    36    1
    64    64    37    1
    65    65    39    1
    66    66    40    1
    67    67    41    1
    68     7    15   ar
    69    10    14   ar
    70    14    15   ar
    71    21    29   ar
    72    24    28   ar
    73    26    27   ar
    74    28    29   ar
    75    35    43   ar
    76    38    42   ar
    77    40    41   ar
    78    42    43   ar
    79    68    69    1
    80    69    70    1
    81    71    72    1
    82    72    73    1
    83    74    75   ar
    84    75    76   ar
    85    76    77   ar
    86    77    78   ar
    87    78    79   ar
    88    79    74   ar
    89    80    74    1
    90    81    75    1
    91    82    76    1
    92    83    77    1
    93    84    78    1
    94    85    79    1
@<TRIPOS>SUBSTRUCTURE
     1 RES1        1 GROUP             0 ****  ****    0  
     2 RES2       68 GROUP             0 ****  ****    0  
     3 RES3       71 GROUP             0 ****  ****    0  
     4 RES4       74 GROUP             0 ****  ****    0  
@<TRIPOS>CRYSIN
   10.2220   12.6250   17.7590   89.7000   81.3500   82.8900     2     1
