@<TRIPOS>MOLECULE
MEXFUS
    77    86     1     0     0
SMALL
NO_CHARGES
****
Generated from the CSD

@<TRIPOS>ATOM
     1 C1       5.1797   2.5403  -1.2090   C.ar      1 RES1   0.0000
     2 H1       4.8874   1.9569  -1.8709   H         1 RES1   0.0000
     3 C2       4.8555   3.8682  -1.3130   C.ar      1 RES1   0.0000
     4 H2       4.3599   4.1809  -2.0361   H         1 RES1   0.0000
     5 C3       5.2770   4.7282  -0.3246   C.ar      1 RES1   0.0000
     6 H3       5.0685   5.6327  -0.3722   H         1 RES1   0.0000
     7 C4       6.0105   4.2422   0.7357   C.ar      1 RES1   0.0000
     8 H4       6.2931   4.8112   1.4141   H         1 RES1   0.0000
     9 C5       6.3161   2.8987   0.7726   C.ar      1 RES1   0.0000
    10 C6       7.1364   2.2516   1.8077   C.2       1 RES1   0.0000
    11 C7       8.3642   1.7428   3.4210   C.2       1 RES1   0.0000
    12 C8       9.2106   1.7452   4.6339   C.ar      1 RES1   0.0000
    13 C9       9.3055   2.8073   5.5105   C.ar      1 RES1   0.0000
    14 H5       8.8110   3.5795   5.3521   H         1 RES1   0.0000
    15 C10     10.1263   2.7376   6.6175   C.ar      1 RES1   0.0000
    16 H6      10.1671   3.4652   7.1948   H         1 RES1   0.0000
    17 C11     10.8893   1.6214   6.8945   C.ar      1 RES1   0.0000
    18 C12     10.7520   0.5328   6.0392   C.ar      1 RES1   0.0000
    19 H7      11.2245  -0.2490   6.2151   H         1 RES1   0.0000
    20 C13      9.9304   0.5882   4.9430   C.ar      1 RES1   0.0000
    21 H8       9.8509  -0.1588   4.3948   H         1 RES1   0.0000
    22 C14     11.8228   1.5263   8.0462   C.ar      1 RES1   0.0000
    23 C15     11.7922   2.3238   9.1269   C.ar      1 RES1   0.0000
    24 H9      11.1586   3.0022   9.1891   H         1 RES1   0.0000
    25 C16     12.7177   2.1289  10.1571   C.ar      1 RES1   0.0000
    26 H10     12.6743   2.7171  10.8763   H         1 RES1   0.0000
    27 C17     13.7812   0.5882   9.0579   C.ar      1 RES1   0.0000
    28 H11     14.5136   0.0217   8.9694   H         1 RES1   0.0000
    29 C18     12.9302   0.7157   7.9772   C.ar      1 RES1   0.0000
    30 H12     13.1086   0.2466   7.1948   H         1 RES1   0.0000
    31 Fe1      6.5983   0.0000   0.0000   Fe        1 RES1   0.0000
    32 N1       5.9019   2.0471  -0.1924   N.ar      1 RES1   0.0000
    33 N2       7.4322   0.9670   1.6707   N.2       1 RES1   0.0000
    34 N3       8.2449   0.6291   2.7106   N.2       1 RES1   0.0000
    35 N4       7.6974   2.8001   2.9069   N.2       1 RES1   0.0000
    36 N5      13.6237   1.2172  10.2076   N.ar      1 RES1   0.0000
    37 O1       4.8429  -0.5449   1.2168   O.3       1 RES1   0.0000
    38 H13      4.6711  -1.3231   1.3606   H         1 RES1   0.0000
    39 H14      4.1771  -0.0241   1.3218   H         1 RES1   0.0000
    40 C1B      8.0168  -2.5403   1.2090   C.ar      1 RES1   0.0000
    41 H1B      8.3091  -1.9569   1.8709   H         1 RES1   0.0000
    42 C2B      8.3410  -3.8682   1.3130   C.ar      1 RES1   0.0000
    43 H2B      8.8366  -4.1809   2.0361   H         1 RES1   0.0000
    44 C3B      7.9195  -4.7282   0.3246   C.ar      1 RES1   0.0000
    45 H3B      8.1280  -5.6327   0.3722   H         1 RES1   0.0000
    46 C4B      7.1860  -4.2422  -0.7357   C.ar      1 RES1   0.0000
    47 H4B      6.9034  -4.8112  -1.4141   H         1 RES1   0.0000
    48 C5B      6.8804  -2.8987  -0.7726   C.ar      1 RES1   0.0000
    49 C6B      6.0601  -2.2516  -1.8077   C.2       1 RES1   0.0000
    50 C7B      4.8323  -1.7428  -3.4210   C.2       1 RES1   0.0000
    51 C8B      3.9859  -1.7452  -4.6339   C.ar      1 RES1   0.0000
    52 C9B      3.8910  -2.8073  -5.5105   C.ar      1 RES1   0.0000
    53 H5B      4.3855  -3.5795  -5.3521   H         1 RES1   0.0000
    54 C10B     3.0702  -2.7376  -6.6175   C.ar      1 RES1   0.0000
    55 H6B      3.0294  -3.4652  -7.1948   H         1 RES1   0.0000
    56 C11B     2.3072  -1.6214  -6.8945   C.ar      1 RES1   0.0000
    57 C12B     2.4445  -0.5328  -6.0392   C.ar      1 RES1   0.0000
    58 H7B      1.9720   0.2490  -6.2151   H         1 RES1   0.0000
    59 C13B     3.2661  -0.5882  -4.9430   C.ar      1 RES1   0.0000
    60 H8B      3.3456   0.1588  -4.3948   H         1 RES1   0.0000
    61 C14B     1.3737  -1.5263  -8.0462   C.ar      1 RES1   0.0000
    62 C15B     1.4043  -2.3238  -9.1269   C.ar      1 RES1   0.0000
    63 H9B      2.0379  -3.0022  -9.1891   H         1 RES1   0.0000
    64 C16B     0.4788  -2.1289 -10.1571   C.ar      1 RES1   0.0000
    65 H10B     0.5222  -2.7171 -10.8763   H         1 RES1   0.0000
    66 C17B    -0.5847  -0.5882  -9.0579   C.ar      1 RES1   0.0000
    67 H11B    -1.3171  -0.0217  -8.9694   H         1 RES1   0.0000
    68 C18B     0.2663  -0.7157  -7.9772   C.ar      1 RES1   0.0000
    69 H12B     0.0879  -0.2466  -7.1948   H         1 RES1   0.0000
    70 N1B      7.2946  -2.0471   0.1924   N.ar      1 RES1   0.0000
    71 N2B      5.7643  -0.9670  -1.6707   N.2       1 RES1   0.0000
    72 N3B      4.9516  -0.6291  -2.7106   N.2       1 RES1   0.0000
    73 N4B      5.4991  -2.8001  -2.9069   N.2       1 RES1   0.0000
    74 N5B     -0.4272  -1.2172 -10.2076   N.ar      1 RES1   0.0000
    75 O1B      8.3536   0.5449  -1.2168   O.3       1 RES1   0.0000
    76 H13B     8.5254   1.3231  -1.3606   H         1 RES1   0.0000
    77 H14B     9.0194   0.0241  -1.3218   H         1 RES1   0.0000
@<TRIPOS>BOND
     1     1     2    1
     2     3     1   ar
     3     4     3    1
     4     5     3   ar
     5     6     5    1
     6     7     5   ar
     7     8     7    1
     8     9     7   ar
     9    10     9    1
    10    11    12    1
    11    12    13   ar
    12    13    14    1
    13    15    13   ar
    14    16    15    1
    15    17    15   ar
    16    18    17   ar
    17    19    18    1
    18    20    12   ar
    19    21    20    1
    20    22    17    1
    21    23    22   ar
    22    24    23    1
    23    25    23   ar
    24    26    25    1
    25    27    28    1
    26    29    22   ar
    27    30    29    1
    28    31    32    1
    29    32     1   ar
    30    33    10    1
    31    34    11    2
    32    35    10    2
    33    36    25   ar
    34    37    31    1
    35    38    37    1
    36    39    37    1
    37    40    41    1
    38    42    40   ar
    39    43    42    1
    40    44    42   ar
    41    45    44    1
    42    46    44   ar
    43    47    46    1
    44    48    46   ar
    45    49    48    1
    46    50    51    1
    47    51    52   ar
    48    52    53    1
    49    54    52   ar
    50    55    54    1
    51    56    54   ar
    52    57    56   ar
    53    58    57    1
    54    59    51   ar
    55    60    59    1
    56    61    56    1
    57    62    61   ar
    58    63    62    1
    59    64    62   ar
    60    65    64    1
    61    66    67    1
    62    68    61   ar
    63    69    68    1
    64    70    31    1
    65    71    31    1
    66    72    50    2
    67    73    49    2
    68    74    64   ar
    69    75    31    1
    70    76    75    1
    71    77    75    1
    72     9    32   ar
    73    11    35    1
    74    18    20   ar
    75    27    29   ar
    76    27    36   ar
    77    31    33    1
    78    33    34    1
    79    40    70   ar
    80    48    70   ar
    81    49    71    1
    82    50    73    1
    83    57    59   ar
    84    66    68   ar
    85    66    74   ar
    86    71    72    1
@<TRIPOS>SUBSTRUCTURE
     1 RES1        1 GROUP             0 ****  ****    0  
@<TRIPOS>CRYSIN
   13.1965   12.0279    9.9006   90.0000  100.9980   90.0000    14     1
