@<TRIPOS>MOLECULE
MEZZAU
   113   117     2     0     0
SMALL
USER_CHARGES
****
Generated from the CSD

@<TRIPOS>ATOM
     1 Fe1      4.4939   4.3996   6.0622   Fe        1 RES1   1.0000
     2 H1       4.5614   3.6764   4.8415   H         1 RES1   0.0000
     3 N1       3.5097   1.2282   7.9008   N.3       1 RES1   0.0000
     4 N2       4.3670   5.4446   7.8920   N.3       1 RES1   0.0000
     5 H2       4.3062   4.8090   8.6234   H         1 RES1   0.0000
     6 H3       3.5793   6.0089   7.8873   H         1 RES1   0.0000
     7 H4       5.1576   5.9927   8.0063   H         1 RES1   0.0000
     8 P1       2.5805   3.3301   6.3332   P.3       1 RES1   0.0000
     9 P2       5.6016   2.6966   6.8920   P.3       1 RES1   0.0000
    10 P3       6.2537   5.4221   5.1998   P.3       1 RES1   0.0000
    11 P4       3.7057   5.9938   4.7546   P.3       1 RES1   0.0000
    12 C1       0.9962   4.2515   6.5892   C.3       1 RES1   0.0000
    13 H5       0.7593   4.7066   5.7423   H         1 RES1   0.0000
    14 H6       0.2803   3.5956   6.7840   H         1 RES1   0.0000
    15 C2       1.0183   5.2951   7.7127   C.3       1 RES1   0.0000
    16 H7       0.1225   5.6776   7.8198   H         1 RES1   0.0000
    17 H8       1.6531   6.0062   7.4865   H         1 RES1   0.0000
    18 H9       1.2931   4.8669   8.5500   H         1 RES1   0.0000
    19 C3       2.1240   2.2126   4.9560   C.3       1 RES1   0.0000
    20 H10      2.1427   2.7445   4.1212   H         1 RES1   0.0000
    21 H11      2.8349   1.5285   4.8792   H         1 RES1   0.0000
    22 C4       0.7797   1.4773   5.0062   C.3       1 RES1   0.0000
    23 H12      0.6817   0.9184   4.2065   H         1 RES1   0.0000
    24 H13      0.0493   2.1318   5.0379   H         1 RES1   0.0000
    25 H14      0.7449   0.9117   5.8058   H         1 RES1   0.0000
    26 C5       2.4502   2.2220   7.7960   C.3       1 RES1   0.0000
    27 H15      2.4559   2.7782   8.6155   H         1 RES1   0.0000
    28 H16      1.5799   1.7520   7.7603   H         1 RES1   0.0000
    29 C6       3.1075   0.2195   8.8972   C.3       1 RES1   0.0000
    30 H17      3.7855  -0.4875   8.9389   H         1 RES1   0.0000
    31 H18      2.2468  -0.1697   8.6413   H         1 RES1   0.0000
    32 H19      3.0253   0.6451   9.7762   H         1 RES1   0.0000
    33 C7       4.7878   1.7601   8.2391   C.3       1 RES1   0.0000
    34 H20      5.3791   1.0154   8.5083   H         1 RES1   0.0000
    35 H21      4.6840   2.3580   9.0222   H         1 RES1   0.0000
    36 C8       5.9658   1.3723   5.6689   C.3       1 RES1   0.0000
    37 H22      5.1082   1.0895   5.2641   H         1 RES1   0.0000
    38 H23      6.5127   1.7709   4.9447   H         1 RES1   0.0000
    39 C9       6.6795   0.1320   6.1550   C.3       1 RES1   0.0000
    40 H24      6.8883  -0.4458   5.3931   H         1 RES1   0.0000
    41 H25      6.1024  -0.3515   6.7840   H         1 RES1   0.0000
    42 H26      7.5091   0.3892   6.6074   H         1 RES1   0.0000
    43 C10      7.2579   2.9573   7.6571   C.3       1 RES1   0.0000
    44 H27      7.5459   2.1062   8.0738   H         1 RES1   0.0000
    45 H28      7.9048   3.1674   6.9388   H         1 RES1   0.0000
    46 C11      7.3331   4.0427   8.6968   C.3       1 RES1   0.0000
    47 H29      8.2662   4.1720   8.9667   H         1 RES1   0.0000
    48 H30      6.7996   3.7869   9.4766   H         1 RES1   0.0000
    49 H31      6.9844   4.8777   8.3218   H         1 RES1   0.0000
    50 C12      7.1760   6.7576   6.0326   C.3       1 RES1   0.0000
    51 H32      7.8106   6.3684   6.6690   H         1 RES1   0.0000
    52 H33      6.5485   7.3381   6.5122   H         1 RES1   0.0000
    53 H34      7.6619   7.2842   5.3653   H         1 RES1   0.0000
    54 C13      7.6044   4.5720   4.3230   C.3       1 RES1   0.0000
    55 H35      8.2281   4.1909   4.9764   H         1 RES1   0.0000
    56 H36      8.0787   5.2117   3.7522   H         1 RES1   0.0000
    57 H37      7.2327   3.8529   3.7700   H         1 RES1   0.0000
    58 C14      5.3068   6.3078   3.9157   C.3       1 RES1   0.0000
    59 H38      5.3684   5.8823   3.0239   H         1 RES1   0.0000
    60 H39      5.5335   7.2694   3.8573   H         1 RES1   0.0000
    61 C15      2.4631   5.7840   3.4367   C.3       1 RES1   0.0000
    62 H40      1.5671   5.7557   3.8335   H         1 RES1   0.0000
    63 H41      2.6331   4.9477   2.9565   H         1 RES1   0.0000
    64 H42      2.5188   6.5368   2.8116   H         1 RES1   0.0000
    65 C16      3.2237   7.6316   5.4078   C.3       1 RES1   0.0000
    66 H43      2.3058   7.5912   5.7483   H         1 RES1   0.0000
    67 H44      3.2751   8.2982   4.6907   H         1 RES1   0.0000
    68 H45      3.8299   7.8862   6.1332   H         1 RES1   0.0000
    69 B1      13.1017   4.5868   8.3794   B         2 RES2  -1.0000
    70 F1      15.3042   6.6693   8.9834   F         2 RES2   0.0000
    71 F2      15.0234   9.2917   8.7760   F         2 RES2   0.0000
    72 F3      12.6054  10.3923   8.1746   F         2 RES2   0.0000
    73 F4      10.4707   8.7615   7.6734   F         2 RES2   0.0000
    74 F5      10.7446   6.1247   7.7758   F         2 RES2   0.0000
    75 F6      11.1423   5.6763  10.5175   F         2 RES2   0.0000
    76 F7       9.2768   4.2726  11.7321   F         2 RES2   0.0000
    77 F8       8.9313   1.6167  11.1973   F         2 RES2   0.0000
    78 F9      10.5791   0.4010   9.3941   F         2 RES2   0.0000
    79 F10     12.4774   1.7900   8.1581   F         2 RES2   0.0000
    80 F11     15.0510   2.4313   7.3660   F         2 RES2   0.0000
    81 F12     16.8132   1.1623   8.8458   F         2 RES2   0.0000
    82 F13     17.3641   1.9862  11.3864   F         2 RES2   0.0000
    83 F14     15.9714   4.0927  12.4303   F         2 RES2   0.0000
    84 F15     14.0255   5.2523  11.0285   F         2 RES2   0.0000
    85 F16     15.2160   5.2341   6.5499   F         2 RES2   0.0000
    86 F17     15.2160   5.1085   3.8950   F         2 RES2   0.0000
    87 F18     13.0140   4.1470   2.5646   F         2 RES2   0.0000
    88 F19     10.8377   3.3689   3.9811   F         2 RES2   0.0000
    89 F20     10.7987   3.4822   6.6069   F         2 RES2   0.0000
    90 C17     13.0257   6.2338   8.4361   C.ar      2 RES2   0.0000
    91 C18     14.0684   7.1186   8.6512   C.ar      2 RES2   0.0000
    92 C19     13.9532   8.4922   8.5643   C.ar      2 RES2   0.0000
    93 C20     12.7486   9.0578   8.2401   C.ar      2 RES2   0.0000
    94 C21     11.6719   8.2309   8.0008   C.ar      2 RES2   0.0000
    95 C22     11.8319   6.8735   8.0764   C.ar      2 RES2   0.0000
    96 C23     11.8886   3.8259   9.2107   C.ar      2 RES2   0.0000
    97 C24     11.0532   4.3632  10.1782   C.ar      2 RES2   0.0000
    98 C25     10.0803   3.6522  10.8525   C.ar      2 RES2   0.0000
    99 C26      9.9050   2.3257  10.5822   C.ar      2 RES2   0.0000
   100 C27     10.7244   1.7143   9.6689   C.ar      2 RES2   0.0000
   101 C28     11.6895   2.4671   9.0290   C.ar      2 RES2   0.0000
   102 C29     14.4432   3.9363   9.0982   C.ar      2 RES2   0.0000
   103 C30     15.2137   2.8913   8.6294   C.ar      2 RES2   0.0000
   104 C31     16.1667   2.2274   9.3717   C.ar      2 RES2   0.0000
   105 C32     16.4370   2.6233  10.6459   C.ar      2 RES2   0.0000
   106 C33     15.7268   3.6778  11.1745   C.ar      2 RES2   0.0000
   107 C34     14.7470   4.2757  10.4118   C.ar      2 RES2   0.0000
   108 C35     13.0391   4.3350   6.7489   C.ar      2 RES2   0.0000
   109 C36     14.1008   4.7444   5.9542   C.ar      2 RES2   0.0000
   110 C37     14.1291   4.6972   4.5818   C.ar      2 RES2   0.0000
   111 C38     13.0340   4.2286   3.9061   C.ar      2 RES2   0.0000
   112 C39     11.9318   3.8205   4.6343   C.ar      2 RES2   0.0000
   113 C40     11.9496   3.8919   6.0064   C.ar      2 RES2   0.0000
@<TRIPOS>BOND
     1     1     2    1
     2     3    26    1
     3     4     1    1
     4     5     4    1
     5     6     4    1
     6     7     4    1
     7     8     1    1
     8     9     1    1
     9    10     1    1
    10    11     1    1
    11    12     8    1
    12    13    12    1
    13    14    12    1
    14    15    12    1
    15    16    15    1
    16    17    15    1
    17    18    15    1
    18    19     8    1
    19    20    19    1
    20    21    19    1
    21    22    19    1
    22    23    22    1
    23    24    22    1
    24    25    22    1
    25    26     8    1
    26    27    26    1
    27    28    26    1
    28    29     3    1
    29    30    29    1
    30    31    29    1
    31    32    29    1
    32    33     3    1
    33    34    33    1
    34    35    33    1
    35    36     9    1
    36    37    36    1
    37    38    36    1
    38    39    36    1
    39    40    39    1
    40    41    39    1
    41    42    39    1
    42    43     9    1
    43    44    43    1
    44    45    43    1
    45    46    43    1
    46    47    46    1
    47    48    46    1
    48    49    46    1
    49    50    10    1
    50    51    50    1
    51    52    50    1
    52    53    50    1
    53    54    10    1
    54    55    54    1
    55    56    54    1
    56    57    54    1
    57    58    10    1
    58    59    58    1
    59    60    58    1
    60    61    11    1
    61    62    61    1
    62    63    61    1
    63    64    61    1
    64    65    11    1
    65    66    65    1
    66    67    65    1
    67    68    65    1
    68     9    33    1
    69    11    58    1
    70    69    90    1
    71    70    91    1
    72    71    92    1
    73    72    93    1
    74    73    94    1
    75    74    95    1
    76    75    97    1
    77    76    98    1
    78    77    99    1
    79    78   100    1
    80    79   101    1
    81    80   103    1
    82    81   104    1
    83    82   105    1
    84    83   106    1
    85    84   107    1
    86    85   109    1
    87    86   110    1
    88    87   111    1
    89    88   112    1
    90    89   113    1
    91    90    91   ar
    92    91    92   ar
    93    92    93   ar
    94    93    94   ar
    95    94    95   ar
    96    95    90   ar
    97    96    69    1
    98    97    96   ar
    99    98    97   ar
   100    99    98   ar
   101   100    99   ar
   102   101    96   ar
   103   102    69    1
   104   103   102   ar
   105   104   103   ar
   106   105   104   ar
   107   106   105   ar
   108   107   102   ar
   109   108    69    1
   110   109   108   ar
   111   110   109   ar
   112   111   110   ar
   113   112   111   ar
   114   113   108   ar
   115   100   101   ar
   116   106   107   ar
   117   112   113   ar
@<TRIPOS>SUBSTRUCTURE
     1 RES1        1 GROUP             0 ****  ****    0  
     2 RES2       69 GROUP             0 ****  ****    0  
@<TRIPOS>CRYSIN
   17.2610   13.4668   19.8430   90.0000   90.5190   90.0000    14     1
