@<TRIPOS>MOLECULE
MIHBUC01
    93   103     2     0     0
SMALL
NO_CHARGES
****
Generated from the CSD

@<TRIPOS>ATOM
     1 Fe1      1.4709  17.9464   5.5598   Fe        1 RES1   0.0000
     2 S1       4.9560   9.7706   4.0443   S.3       1 RES1   0.0000
     3 S2       8.9897  13.8819   2.8925   S.3       1 RES1   0.0000
     4 N1       1.4686  15.9314   5.2983   N.ar      1 RES1   0.0000
     5 N2       3.3851  17.6937   4.9979   N.ar      1 RES1   0.0000
     6 N3       1.0085  18.1972   3.5657   N.ar      1 RES1   0.0000
     7 N4      -0.2576  18.1197   3.0501   N.ar      1 RES1   0.0000
     8 N5      -1.5555  18.1569   5.1744   N.ar      1 RES1   0.0000
     9 N6      -0.4997  18.1875   6.0538   N.ar      1 RES1   0.0000
    10 N7       1.7354  19.9514   5.7628   N.ar      1 RES1   0.0000
    11 N8       2.3915  20.5840   6.7707   N.ar      1 RES1   0.0000
    12 N9       2.3278  18.6362   8.3654   N.ar      1 RES1   0.0000
    13 N10      1.8441  17.6711   7.5325   N.ar      1 RES1   0.0000
    14 C1       0.4915  15.0600   5.4779   C.ar      1 RES1   0.0000
    15 H1      -0.3403  15.3747   5.8123   H         1 RES1   0.0000
    16 C2       0.6243  13.7012   5.2007   C.ar      1 RES1   0.0000
    17 H2      -0.1131  13.1154   5.3230   H         1 RES1   0.0000
    18 C3       1.8165  13.2106   4.7502   C.ar      1 RES1   0.0000
    19 H3       1.9112  12.2826   4.5706   H         1 RES1   0.0000
    20 C4       2.9172  14.0917   4.5489   C.ar      1 RES1   0.0000
    21 C5       4.2081  13.6963   4.0519   C.ar      1 RES1   0.0000
    22 C6       5.1695  14.6436   3.8026   C.ar      1 RES1   0.0000
    23 C7       4.9335  16.0266   4.1247   C.ar      1 RES1   0.0000
    24 C8       5.8985  17.0417   3.9652   C.ar      1 RES1   0.0000
    25 H4       6.7530  16.8384   3.6013   H         1 RES1   0.0000
    26 C9       5.5950  18.3037   4.3337   C.ar      1 RES1   0.0000
    27 H5       6.2466  18.9896   4.2439   H         1 RES1   0.0000
    28 C10      4.3531  18.6071   4.8400   C.ar      1 RES1   0.0000
    29 H6       4.1724  19.5060   5.0877   H         1 RES1   0.0000
    30 C11      3.6951  16.4027   4.6619   C.ar      1 RES1   0.0000
    31 C12      2.6659  15.4473   4.8446   C.ar      1 RES1   0.0000
    32 C13      5.5754   9.5731   1.3176   C.3       1 RES1   0.0000
    33 H7       5.4105  10.1266   0.5264   H         1 RES1   0.0000
    34 H8       5.0579   8.7436   1.2495   H         1 RES1   0.0000
    35 H9       6.5303   9.3584   1.3733   H         1 RES1   0.0000
    36 C14      5.1368  10.3606   2.6104   C.2       1 RES1   0.0000
    37 C15      4.8937  11.7565   2.5299   C.2       1 RES1   0.0000
    38 H10      4.9776  12.2794   1.7418   H         1 RES1   0.0000
    39 C16      4.5043  12.2568   3.8073   C.2       1 RES1   0.0000
    40 C17      4.4948  11.2805   4.7533   C.2       1 RES1   0.0000
    41 C18      4.2308  11.3789   6.1700   C.3       1 RES1   0.0000
    42 H11      4.0810  12.3181   6.4099   H         1 RES1   0.0000
    43 H12      5.0007  11.0336   6.6701   H         1 RES1   0.0000
    44 H13      3.4344  10.8544   6.3929   H         1 RES1   0.0000
    45 C19      7.7172  13.6285   5.3494   C.3       1 RES1   0.0000
    46 H14      6.8279  13.6253   5.7628   H         1 RES1   0.0000
    47 H15      8.2777  14.3047   5.7860   H         1 RES1   0.0000
    48 H16      8.1281  12.7458   5.4531   H         1 RES1   0.0000
    49 C20      7.5897  13.9497   3.9064   C.2       1 RES1   0.0000
    50 C21      6.5102  14.3354   3.2034   C.2       1 RES1   0.0000
    51 C22      6.7855  14.5726   1.8301   C.2       1 RES1   0.0000
    52 H17      6.1270  14.8421   1.2015   H         1 RES1   0.0000
    53 C23      8.0966  14.3693   1.5096   C.2       1 RES1   0.0000
    54 C24      8.7113  14.4758   0.1657   C.3       1 RES1   0.0000
    55 H18      9.0403  13.5947  -0.1130   H         1 RES1   0.0000
    56 H19      9.4593  15.1084   0.1982   H         1 RES1   0.0000
    57 H20      8.0419  14.7921  -0.4753   H         1 RES1   0.0000
    58 C25      1.7875  18.6007   2.5624   C.ar      1 RES1   0.0000
    59 H21      2.7233  18.7491   2.6321   H         1 RES1   0.0000
    60 C26      1.0563  18.7733   1.4244   C.ar      1 RES1   0.0000
    61 H22      1.3745  19.0477   0.5729   H         1 RES1   0.0000
    62 C27     -0.2451  18.4667   1.7666   C.ar      1 RES1   0.0000
    63 H23     -0.9983  18.4974   1.1891   H         1 RES1   0.0000
    64 C28     -2.6333  18.7378   5.7070   C.ar      1 RES1   0.0000
    65 H24     -3.4798  18.8379   5.2874   H         1 RES1   0.0000
    66 C29     -2.2991  19.1623   6.9642   C.ar      1 RES1   0.0000
    67 H25     -2.8591  19.6109   7.5867   H         1 RES1   0.0000
    68 C30     -0.9695  18.7959   7.1361   C.ar      1 RES1   0.0000
    69 H26     -0.4656  18.9589   7.9242   H         1 RES1   0.0000
    70 C31      1.2039  20.9278   4.9933   C.ar      1 RES1   0.0000
    71 H27      0.6647  20.7825   4.2238   H         1 RES1   0.0000
    72 C32      1.5574  22.1623   5.4887   C.ar      1 RES1   0.0000
    73 H28      1.3361  23.0128   5.1295   H         1 RES1   0.0000
    74 C33      2.2972  21.8993   6.6097   C.ar      1 RES1   0.0000
    75 H29      2.6828  22.5529   7.1810   H         1 RES1   0.0000
    76 C34      2.1258  18.2908   9.6242   C.ar      1 RES1   0.0000
    77 H30      2.3777  18.7992  10.3860   H         1 RES1   0.0000
    78 C35      1.4836  17.0611   9.6443   C.ar      1 RES1   0.0000
    79 H31      1.2075  16.5624  10.4045   H         1 RES1   0.0000
    80 C36      1.3368  16.7222   8.3221   C.ar      1 RES1   0.0000
    81 H32      0.9301  15.9218   8.0124   H         1 RES1   0.0000
    82 B1      -1.4423  17.4936   3.7949   B         1 RES1   0.0000
    83 H33     -1.3011  16.5189   3.8986   H         1 RES1   0.0000
    84 H34     -2.2777  17.6356   3.2808   H         1 RES1   0.0000
    85 B2       3.1736  19.8255   7.8561   B         1 RES1   0.0000
    86 H35      3.3798  20.4355   8.6085   H         1 RES1   0.0000
    87 H36      4.0278  19.4931   7.4829   H         1 RES1   0.0000
    88 N11      3.3193  15.1374   0.7153   N.1       2 RES2   0.0000
    89 C37      2.2526  15.0826   1.1303   C.1       2 RES2   0.0000
    90 C38      0.9236  14.9987   1.6660   C.3       2 RES2   0.0000
    91 H37      0.7325  14.0723   1.9214   H         2 RES2   0.0000
    92 H38      0.2795  15.2891   0.9878   H         2 RES2   0.0000
    93 H39      0.8522  15.5764   2.4540   H         2 RES2   0.0000
@<TRIPOS>BOND
     1     1     4    1
     2     2    36    1
     3     3    49    1
     4     4    14   ar
     5     5     1    1
     6     6     1    1
     7     7     6   ar
     8     8     9   ar
     9     9     1    1
    10    10     1    1
    11    11    10   ar
    12    12    13   ar
    13    13     1    1
    14    14    15    1
    15    16    14   ar
    16    17    16    1
    17    18    16   ar
    18    19    18    1
    19    20    18   ar
    20    21    20   ar
    21    22    21   ar
    22    23    22   ar
    23    24    23   ar
    24    25    24    1
    25    26    24   ar
    26    27    26    1
    27    28     5   ar
    28    29    28    1
    29    30     5   ar
    30    31     4   ar
    31    32    33    1
    32    34    32    1
    33    35    32    1
    34    36    32    1
    35    37    36    2
    36    38    37    1
    37    39    21    1
    38    40     2    1
    39    41    40    1
    40    42    41    1
    41    43    41    1
    42    44    41    1
    43    45    46    1
    44    47    45    1
    45    48    45    1
    46    49    45    1
    47    50    22    1
    48    51    50    1
    49    52    51    1
    50    53     3    1
    51    54    53    1
    52    55    54    1
    53    56    54    1
    54    57    54    1
    55    58     6   ar
    56    59    58    1
    57    60    58   ar
    58    61    60    1
    59    62     7   ar
    60    63    62    1
    61    64     8   ar
    62    65    64    1
    63    66    64   ar
    64    67    66    1
    65    68     9   ar
    66    69    68    1
    67    70    10   ar
    68    71    70    1
    69    72    70   ar
    70    73    72    1
    71    74    11   ar
    72    75    74    1
    73    76    12   ar
    74    77    76    1
    75    78    76   ar
    76    79    78    1
    77    80    13   ar
    78    81    80    1
    79    82     7    1
    80    83    82    1
    81    84    82    1
    82    85    11    1
    83    86    85    1
    84    87    85    1
    85     8    82    1
    86    12    85    1
    87    20    31   ar
    88    23    30   ar
    89    26    28   ar
    90    30    31   ar
    91    37    39    1
    92    39    40    2
    93    49    50    2
    94    51    53    2
    95    60    62   ar
    96    66    68   ar
    97    72    74   ar
    98    78    80   ar
    99    88    89    3
   100    89    90    1
   101    90    91    1
   102    92    90    1
   103    93    90    1
@<TRIPOS>SUBSTRUCTURE
     1 RES1        1 GROUP             0 ****  ****    0  
     2 RES2       88 GROUP             0 ****  ****    0  
@<TRIPOS>CRYSIN
   15.6740   16.1380   15.6220   90.0000   97.6500   90.0000    14     1
