@<TRIPOS>MOLECULE
MIHBUC
    93   103     2     0     0
SMALL
USER_CHARGES
****
Generated from the CSD

@<TRIPOS>ATOM
     1 Fe1      1.4067  18.2284   5.6664   Fe        1 RES1   2.0000
     2 S1       5.0893   9.9401   4.1975   S.3       1 RES1   0.0000
     3 S2       9.0803  14.0368   2.9490   S.3       1 RES1   0.0000
     4 N1       1.5537  16.0354   5.3671   N.ar      1 RES1   0.0000
     5 N2       3.4562  17.8782   4.9809   N.ar      1 RES1   0.0000
     6 N3       0.8593  18.4913   3.5292   N.2       1 RES1   0.0000
     7 N4      -0.3965  18.3785   3.0500   N.pl3     1 RES1   0.0000
     8 N5      -1.6900  18.3736   5.2363   N.pl3     1 RES1   0.0000
     9 N6      -0.6776  18.3834   6.1505   N.2       1 RES1   0.0000
    10 N7       1.7732  20.3308   5.9125   N.2       1 RES1   0.0000
    11 N8       2.3841  20.9048   6.9875   N.pl3     1 RES1   0.0000
    12 N9       2.3033  18.9296   8.5826   N.pl3     1 RES1   0.0000
    13 N10      1.8255  17.9403   7.7771   N.2       1 RES1   0.0000
    14 C1       0.5921  15.1410   5.5483   C.ar      1 RES1   0.0000
    15 H1      -0.2434  15.4321   5.8652   H         1 RES1   0.0000
    16 C2       0.7739  13.7904   5.2867   C.ar      1 RES1   0.0000
    17 H2       0.0649  13.1871   5.4207   H         1 RES1   0.0000
    18 C3       1.9670  13.3375   4.8390   C.ar      1 RES1   0.0000
    19 H3       2.0882  12.4219   4.6609   H         1 RES1   0.0000
    20 C4       3.0344  14.2466   4.6389   C.ar      1 RES1   0.0000
    21 C5       4.3519  13.8591   4.1408   C.ar      1 RES1   0.0000
    22 C6       5.2769  14.8173   3.8665   C.ar      1 RES1   0.0000
    23 C7       5.0072  16.2120   4.1329   C.ar      1 RES1   0.0000
    24 C8       5.9442  17.2323   3.9343   C.ar      1 RES1   0.0000
    25 H4       6.7877  17.0328   3.5702   H         1 RES1   0.0000
    26 C9       5.6373  18.5077   4.2637   C.ar      1 RES1   0.0000
    27 H5       6.2669  19.1961   4.1408   H         1 RES1   0.0000
    28 C10      4.3844  18.7922   4.7886   C.ar      1 RES1   0.0000
    29 H6       4.1865  19.6817   5.0172   H         1 RES1   0.0000
    30 C11      3.7749  16.5799   4.6814   C.ar      1 RES1   0.0000
    31 C12      2.7567  15.6005   4.9052   C.ar      1 RES1   0.0000
    32 C13      5.6225   9.6683   1.4706   C.3       1 RES1   0.0000
    33 H7       5.3786  10.1621   0.6731   H         1 RES1   0.0000
    34 H8       5.1351   8.8295   1.4927   H         1 RES1   0.0000
    35 H9       6.5747   9.4885   1.4627   H         1 RES1   0.0000
    36 C14      5.2600  10.5170   2.7442   C.2       1 RES1   0.0000
    37 C15      5.0027  11.8790   2.6276   C.2       1 RES1   0.0000
    38 H10      5.0511  12.3744   1.8300   H         1 RES1   0.0000
    39 C16      4.6555  12.4088   3.9059   C.2       1 RES1   0.0000
    40 C17      4.6566  11.4702   4.8769   C.2       1 RES1   0.0000
    41 C18      4.3846  11.5912   6.3018   C.3       1 RES1   0.0000
    42 H11      4.4567  12.5232   6.5650   H         1 RES1   0.0000
    43 H12      5.0281  11.0631   6.7999   H         1 RES1   0.0000
    44 H13      3.4891  11.2707   6.4878   H         1 RES1   0.0000
    45 C19      7.7935  13.8313   5.4301   C.3       1 RES1   0.0000
    46 H14      6.9318  13.9621   5.8573   H         1 RES1   0.0000
    47 H15      8.4456  14.4281   5.8305   H         1 RES1   0.0000
    48 H16      8.0800  12.9124   5.5531   H         1 RES1   0.0000
    49 C20      7.6782  14.1273   3.9690   C.2       1 RES1   0.0000
    50 C21      6.6188  14.5164   3.2597   C.2       1 RES1   0.0000
    51 C22      6.9051  14.7355   1.8931   C.2       1 RES1   0.0000
    52 H17      6.2551  15.0004   1.2673   H         1 RES1   0.0000
    53 C23      8.2129  14.5262   1.5715   C.2       1 RES1   0.0000
    54 C24      8.8304  14.6178   0.2207   C.3       1 RES1   0.0000
    55 H18      9.1557  13.7430  -0.0457   H         1 RES1   0.0000
    56 H19      9.5703  15.2440   0.2443   H         1 RES1   0.0000
    57 H20      8.1679  14.9252  -0.4177   H         1 RES1   0.0000
    58 C25      1.5952  18.9296   2.4983   C.2       1 RES1   0.0000
    59 H21      2.5179  19.1045   2.5440   H         1 RES1   0.0000
    60 C26      0.8342  19.0898   1.3713   C.2       1 RES1   0.0000
    61 H22      1.1135  19.3792   0.5217   H         1 RES1   0.0000
    62 C27     -0.4247  18.7317   1.7654   C.2       1 RES1   0.0000
    63 H23     -1.1884  18.7350   1.2169   H         1 RES1   0.0000
    64 C28     -2.7605  18.9655   5.7391   C.2       1 RES1   0.0000
    65 H24     -3.5794  19.0816   5.2930   H         1 RES1   0.0000
    66 C29     -2.4888  19.3792   7.0079   C.2       1 RES1   0.0000
    67 H25     -3.0618  19.8289   7.6006   H         1 RES1   0.0000
    68 C30     -1.1848  18.9917   7.2270   C.2       1 RES1   0.0000
    69 H26     -0.7143  19.1372   8.0278   H         1 RES1   0.0000
    70 C31      1.2847  21.3462   5.1968   C.2       1 RES1   0.0000
    71 H27      0.7930  21.2514   4.4009   H         1 RES1   0.0000
    72 C32      1.6004  22.5529   5.7816   C.2       1 RES1   0.0000
    73 H28      1.3893  23.4130   5.4664   H         1 RES1   0.0000
    74 C33      2.2734  22.2357   6.9023   C.2       1 RES1   0.0000
    75 H29      2.6142  22.8522   7.5249   H         1 RES1   0.0000
    76 C34      2.0849  18.6091   9.8594   C.2       1 RES1   0.0000
    77 H30      2.3327  19.1258  10.6049   H         1 RES1   0.0000
    78 C35      1.4387  17.4040   9.9051   C.2       1 RES1   0.0000
    79 H31      1.1570  16.9331  10.6680   H         1 RES1   0.0000
    80 C36      1.2899  17.0328   8.5968   C.2       1 RES1   0.0000
    81 H32      0.8665  16.2431   8.3131   H         1 RES1   0.0000
    82 B1      -1.5221  17.6951   3.8523   B         1 RES1  -1.0000
    83 H33     -1.3086  16.7467   3.9753   H         1 RES1   0.0000
    84 H34     -2.3623  17.7556   3.3527   H         1 RES1   0.0000
    85 B2       3.1647  20.0790   8.0293   B         1 RES1  -1.0000
    86 H35      3.9739  19.7111   7.6148   H         1 RES1   0.0000
    87 H36      3.4421  20.6644   8.7670   H         1 RES1   0.0000
    88 N11      3.3774  15.2130   0.7928   N.1       2 RES2   0.0000
    89 C37      2.3161  15.2211   1.1932   C.1       2 RES2   0.0000
    90 C38      0.9948  15.2653   1.6960   C.3       2 RES2   0.0000
    91 H37      0.7788  14.4183   2.1153   H         2 RES2   0.0000
    92 H38      0.3763  15.4321   0.9678   H         2 RES2   0.0000
    93 H39      0.9215  15.9782   2.3502   H         2 RES2   0.0000
@<TRIPOS>BOND
     1     1     4    1
     2     2    36    1
     3     3    49    1
     4     4    14   ar
     5     5     1    1
     6     6     1    1
     7     7     6    1
     8     8     9    1
     9     9     1    1
    10    10     1    1
    11    11    10    1
    12    12    13    1
    13    13     1    1
    14    14    15    1
    15    16    14   ar
    16    17    16    1
    17    18    16   ar
    18    19    18    1
    19    20    18   ar
    20    21    20   ar
    21    22    21   ar
    22    23    22   ar
    23    24    23   ar
    24    25    24    1
    25    26    24   ar
    26    27    26    1
    27    28     5   ar
    28    29    28    1
    29    30     5   ar
    30    31     4   ar
    31    32    33    1
    32    34    32    1
    33    35    32    1
    34    36    32    1
    35    37    36    2
    36    38    37    1
    37    39    21    1
    38    40     2    1
    39    41    40    1
    40    42    41    1
    41    43    41    1
    42    44    41    1
    43    45    46    1
    44    47    45    1
    45    48    45    1
    46    49    45    1
    47    50    22    1
    48    51    50    1
    49    52    51    1
    50    53     3    1
    51    54    53    1
    52    55    54    1
    53    56    54    1
    54    57    54    1
    55    58     6    2
    56    59    58    1
    57    60    58    1
    58    61    60    1
    59    62     7    1
    60    63    62    1
    61    64     8    1
    62    65    64    1
    63    66    64    2
    64    67    66    1
    65    68     9    2
    66    69    68    1
    67    70    10    2
    68    71    70    1
    69    72    70    1
    70    73    72    1
    71    74    11    1
    72    75    74    1
    73    76    12    1
    74    77    76    1
    75    78    76    2
    76    79    78    1
    77    80    13    2
    78    81    80    1
    79    82     7    1
    80    83    82    1
    81    84    82    1
    82    85    11    1
    83    86    85    1
    84    87    85    1
    85     8    82    1
    86    12    85    1
    87    20    31   ar
    88    23    30   ar
    89    26    28   ar
    90    30    31   ar
    91    37    39    1
    92    39    40    2
    93    49    50    2
    94    51    53    2
    95    60    62    2
    96    66    68    1
    97    72    74    2
    98    78    80    1
    99    88    89    3
   100    89    90    1
   101    90    91    1
   102    92    90    1
   103    93    90    1
@<TRIPOS>SUBSTRUCTURE
     1 RES1        1 GROUP             0 ****  ****    0  
     2 RES2       88 GROUP             0 ****  ****    0  
@<TRIPOS>CRYSIN
   15.8790   16.3510   15.9080   90.0000   97.7590   90.0000    14     1
