@<TRIPOS>MOLECULE
MIHNAW01
    97   104     3     0     0
SMALL
USER_CHARGES
****
Generated from the CSD

@<TRIPOS>ATOM
     1 C1       8.8079  11.9665   5.0516   C.2       1 RES1   0.0000
     2 H1       9.0890  12.7827   4.6538   H         1 RES1   0.0000
     3 C2       7.4667  11.5266   5.1259   C.2       1 RES1   0.0000
     4 C3       7.4972  10.3230   5.7807   C.2       1 RES1   0.0000
     5 H2       6.7529   9.7691   5.9858   H         1 RES1   0.0000
     6 C4       9.3678   9.0503   6.8299   C.ar      1 RES1   0.0000
     7 C5       8.7159   8.0543   7.5102   C.ar      1 RES1   0.0000
     8 H3       7.7675   7.9982   7.5175   H         1 RES1   0.0000
     9 C6       9.5018   7.1313   8.1881   C.ar      1 RES1   0.0000
    10 H4       9.0845   6.4246   8.6658   H         1 RES1   0.0000
    11 C7      10.8900   7.2253   8.1803   C.ar      1 RES1   0.0000
    12 H5      11.4350   6.5966   8.6380   H         1 RES1   0.0000
    13 C8      11.4341   8.2749   7.4766   C.ar      1 RES1   0.0000
    14 C9      13.8996   8.0647   7.9617   C.2       1 RES1   0.0000
    15 H6      13.9290   7.3452   8.5809   H         1 RES1   0.0000
    16 C10     14.9640   8.8140   7.5154   C.2       1 RES1   0.0000
    17 C11     14.4401   9.7565   6.6152   C.2       1 RES1   0.0000
    18 H7      14.9563  10.3998   6.1447   H         1 RES1   0.0000
    19 C12      6.2454  12.1923   4.6484   C.2       1 RES1   0.0000
    20 C13      3.9548  11.7459   4.1221   C.3       1 RES1   0.0000
    21 H8       4.0246  12.4928   3.4755   H         1 RES1   0.0000
    22 H9       3.4732  12.0699   4.9242   H         1 RES1   0.0000
    23 C14      3.2324  10.6167   3.5180   C.3       1 RES1   0.0000
    24 H10      3.7129  10.3114   2.7199   H         1 RES1   0.0000
    25 H11      2.3300  10.9044   3.2649   H         1 RES1   0.0000
    26 H12      3.1727   9.8836   4.1643   H         1 RES1   0.0000
    27 C15     16.3410   8.6443   7.9944   C.2       1 RES1   0.0000
    28 C16     18.5428   9.5032   7.9276   C.3       1 RES1   0.0000
    29 H13     18.8888   8.5778   7.8641   H         1 RES1   0.0000
    30 H14     18.6205   9.8091   8.8652   H         1 RES1   0.0000
    31 C17     19.3037  10.4157   7.0088   C.3       1 RES1   0.0000
    32 H15     19.0761  10.2072   6.0782   H         1 RES1   0.0000
    33 H16     20.2659  10.2892   7.1454   H         1 RES1   0.0000
    34 H17     19.0659  11.3466   7.2019   H         1 RES1   0.0000
    35 C18     11.1315   8.8049   3.3396   C.2       1 RES1   0.0000
    36 H18     10.5731   8.1099   3.6689   H         1 RES1   0.0000
    37 C19     11.5889   8.8962   2.0176   C.2       1 RES1   0.0000
    38 C20     12.3443  10.0371   1.9636   C.2       1 RES1   0.0000
    39 H19     12.7899  10.3825   1.1988   H         1 RES1   0.0000
    40 C21     12.9014  11.7616   3.7130   C.ar      1 RES1   0.0000
    41 C22     13.7659  12.6127   3.0640   C.ar      1 RES1   0.0000
    42 H20     14.0273  12.4658   2.1619   H         1 RES1   0.0000
    43 C23     14.2411  13.6975   3.7947   C.ar      1 RES1   0.0000
    44 H21     14.8232  14.3195   3.3726   H         1 RES1   0.0000
    45 C24     13.8918  13.8959   5.1087   C.ar      1 RES1   0.0000
    46 H22     14.2126  14.6402   5.6044   H         1 RES1   0.0000
    47 C25     13.0522  12.9599   5.6700   C.ar      1 RES1   0.0000
    48 C26     13.1681  13.5160   8.1129   C.2       1 RES1   0.0000
    49 H23     13.7748  14.2476   8.1245   H         1 RES1   0.0000
    50 C27     12.6184  12.8881   9.2046   C.2       1 RES1   0.0000
    51 C28     11.8060  11.8595   8.6906   C.2       1 RES1   0.0000
    52 H24     11.2979  11.2582   9.2227   H         1 RES1   0.0000
    53 C29     11.4235   7.9759   0.8754   C.2       1 RES1   0.0000
    54 C30     10.6896   5.8233   0.2062   C.3       1 RES1   0.0000
    55 H25     11.5941   5.5326  -0.0715   H         1 RES1   0.0000
    56 H26     10.2143   6.1783  -0.5854   H         1 RES1   0.0000
    57 C31      9.9300   4.6707   0.7995   C.3       1 RES1   0.0000
    58 H27      9.8882   3.9382   0.1487   H         1 RES1   0.0000
    59 H28      9.0207   4.9593   1.0239   H         1 RES1   0.0000
    60 H29     10.3844   4.3613   1.6101   H         1 RES1   0.0000
    61 C32     12.9261  13.1753  10.6100   C.2       1 RES1   0.0000
    62 C33     12.1588  12.9469  12.8347   C.3       1 RES1   0.0000
    63 H30     12.9174  12.4062  13.1706   H         1 RES1   0.0000
    64 H31     12.3506  13.9023  13.0108   H         1 RES1   0.0000
    65 C34     10.9270  12.5500  13.4931   C.3       1 RES1   0.0000
    66 H32     10.1731  13.0326  13.0928   H         1 RES1   0.0000
    67 H33     10.9819  12.7648  14.4475   H         1 RES1   0.0000
    68 H34     10.7931  11.5858  13.3819   H         1 RES1   0.0000
    69 Fe1     11.5381  10.5932   5.8793   Fe        1 RES1   2.0000
    70 N1       9.6188  11.0822   5.6152   N.2       1 RES1   0.0000
    71 N2       8.7866  10.0781   6.0766   N.pl3     1 RES1   0.0000
    72 N3      10.6981   9.1709   6.8091   N.ar      1 RES1   0.0000
    73 N4      12.8047   8.5583   7.3434   N.pl3     1 RES1   0.0000
    74 N5      13.1294   9.6227   6.5134   N.2       1 RES1   0.0000
    75 N6      11.5817   9.8178   4.0709   N.2       1 RES1   0.0000
    76 N7      12.3373  10.5772   3.1929   N.pl3     1 RES1   0.0000
    77 N8      12.5381  11.9373   4.9839   N.ar      1 RES1   0.0000
    78 N9      11.8441  11.8403   7.3805   N.2       1 RES1   0.0000
    79 N10     12.6778  12.8916   7.0188   N.pl3     1 RES1   0.0000
    80 O1       6.1267  13.3724   4.4368   O.2       1 RES1   0.0000
    81 O2       5.2813  11.2747   4.4889   O.3       1 RES1   0.0000
    82 O3      16.6892   7.7812   8.7530   O.2       1 RES1   0.0000
    83 O4      17.1563   9.5646   7.4798   O.3       1 RES1   0.0000
    84 O5      11.8286   8.1988  -0.2297   O.2       1 RES1   0.0000
    85 O6      10.7824   6.8506   1.2487   O.3       1 RES1   0.0000
    86 O7      13.9286  13.7326  10.9882   O.2       1 RES1   0.0000
    87 O8      11.9667  12.7210  11.4064   O.3       1 RES1   0.0000
    88 Cl1     16.5881  10.3430   2.2692   Cl        2 RES2   0.0000
    89 O9      16.2581   9.9888   3.6057   O.2       2 RES2   0.0000
    90 O10     15.4072  10.3596   1.4533   O.2       2 RES2   0.0000
    91 O11     17.4961   9.3753   1.7168   O.3       2 RES2  -1.0000
    92 O12     17.1679  11.6402   2.2502   O.2       2 RES2   0.0000
    93 Cl2     10.5225  14.0267   2.2356   Cl        3 RES3   0.0000
    94 O13     10.5023  12.6101   2.0062   O.2       3 RES3   0.0000
    95 O14     11.5060  14.6099   1.3916   O.2       3 RES3   0.0000
    96 O15      9.2584  14.5982   1.9824   O.2       3 RES3   0.0000
    97 O16     10.8641  14.2653   3.6138   O.3       3 RES3  -1.0000
@<TRIPOS>BOND
     1     1     2    1
     2     3     1    1
     3     4     3    2
     4     5     4    1
     5     6     7   ar
     6     7     8    1
     7     9     7   ar
     8    10     9    1
     9    11     9   ar
    10    12    11    1
    11    13    11   ar
    12    14    15    1
    13    16    14    2
    14    17    16    1
    15    18    17    1
    16    19     3    1
    17    20    21    1
    18    22    20    1
    19    23    20    1
    20    24    23    1
    21    25    23    1
    22    26    23    1
    23    27    16    1
    24    28    29    1
    25    30    28    1
    26    31    28    1
    27    32    31    1
    28    33    31    1
    29    34    31    1
    30    35    36    1
    31    37    35    1
    32    38    37    2
    33    39    38    1
    34    40    41   ar
    35    41    42    1
    36    43    41   ar
    37    44    43    1
    38    45    43   ar
    39    46    45    1
    40    47    45   ar
    41    48    49    1
    42    50    48    2
    43    51    50    1
    44    52    51    1
    45    53    37    1
    46    54    55    1
    47    56    54    1
    48    57    54    1
    49    58    57    1
    50    59    57    1
    51    60    57    1
    52    61    50    1
    53    62    63    1
    54    64    62    1
    55    65    62    1
    56    66    65    1
    57    67    65    1
    58    68    65    1
    59    69    70    1
    60    70     1    2
    61    71     4    1
    62    72     6   ar
    63    73    13    1
    64    74    17    2
    65    75    35    2
    66    76    38    1
    67    77    40   ar
    68    78    51    2
    69    79    47    1
    70    80    19    2
    71    81    19    1
    72    82    27    2
    73    83    27    1
    74    84    53    2
    75    85    53    1
    76    86    61    2
    77    87    61    1
    78     6    71    1
    79    13    72   ar
    80    14    73    1
    81    20    81    1
    82    28    83    1
    83    40    76    1
    84    47    77   ar
    85    48    79    1
    86    54    85    1
    87    62    87    1
    88    69    72    1
    89    69    74    1
    90    69    75    1
    91    69    77    1
    92    69    78    1
    93    70    71    1
    94    73    74    1
    95    75    76    1
    96    78    79    1
    97    88    89    2
    98    90    88    2
    99    91    88    1
   100    92    88    2
   101    93    94    2
   102    95    93    2
   103    96    93    2
   104    97    93    1
@<TRIPOS>SUBSTRUCTURE
     1 RES1        1 GROUP             0 ****  ****    0  
     2 RES2       88 GROUP             0 ****  ****    0  
     3 RES3       93 GROUP             0 ****  ****    0  
@<TRIPOS>CRYSIN
   17.9860   13.0539   19.1425   90.0000  109.1130   90.0000    14     1
