@<TRIPOS>MOLECULE
MIJMUN
    82    84     4     0     0
SMALL
USER_CHARGES
****
Generated from the CSD

@<TRIPOS>ATOM
     1 C1     -16.4254 -10.8896  11.4469   C.ar      1 RES1   0.0000
     2 H1     -17.2336 -10.5546  11.7668   H         1 RES1   0.0000
     3 C2     -15.5383 -10.0604  10.7445   C.ar      1 RES1   0.0000
     4 H2     -15.7451  -9.1605  10.6383   H         1 RES1   0.0000
     5 C3     -14.3559 -10.5546  10.2020   C.ar      1 RES1   0.0000
     6 C4     -14.0230 -11.9192  10.4507   C.ar      1 RES1   0.0000
     7 H3     -13.2286 -12.2812  10.1264   H         1 RES1   0.0000
     8 C5     -14.9108 -12.7009  11.1909   C.ar      1 RES1   0.0000
     9 H4     -14.6960 -13.5867  11.3713   H         1 RES1   0.0000
    10 C6     -12.5598  -7.5469   8.6590   C.ar      1 RES1   0.0000
    11 H5     -12.5799  -6.6200   8.7360   H         1 RES1   0.0000
    12 C7     -13.4492  -8.2811   9.4647   C.ar      1 RES1   0.0000
    13 H6     -14.0405  -7.8498  10.0377   H         1 RES1   0.0000
    14 C8     -13.4158  -9.7073   9.3774   C.ar      1 RES1   0.0000
    15 C9     -12.5138 -10.2606   8.4655   C.ar      1 RES1   0.0000
    16 H7     -12.4811 -11.1836   8.3594   H         1 RES1   0.0000
    17 C10    -11.6533  -9.4429   7.7006   C.ar      1 RES1   0.0000
    18 H8     -11.0450  -9.8473   7.1247   H         1 RES1   0.0000
    19 N7     -16.0887 -12.1900  11.6534   N.ar      1 RES1   1.0000
    20 N8     -11.6801  -8.0835   7.7777   N.ar      1 RES1   1.0000
    21 C11    -10.4203  -4.9731   6.3873   C.ar      2 RES2   0.0000
    22 H9     -11.2343  -4.7369   6.7669   H         2 RES2   0.0000
    23 C12     -9.6377  -3.9936   5.7707   C.ar      2 RES2   0.0000
    24 H10     -9.9387  -3.1155   5.7373   H         2 RES2   0.0000
    25 C13     -8.4059  -4.3274   5.2021   C.ar      2 RES2   0.0000
    26 C14     -7.9779  -5.6727   5.2835   C.ar      2 RES2   0.0000
    27 H11     -7.1571  -5.9256   4.9243   H         2 RES2   0.0000
    28 C15     -8.7963  -6.6277   5.9103   C.ar      2 RES2   0.0000
    29 H12     -8.5166  -7.5122   5.9670   H         2 RES2   0.0000
    30 C16     -6.8371  -0.9820   4.1462   C.ar      2 RES2   0.0000
    31 H13     -6.8934  -0.0822   4.3789   H         2 RES2   0.0000
    32 C17     -7.6658  -1.9140   4.8123   C.ar      2 RES2   0.0000
    33 H14     -8.2837  -1.6303   5.4464   H         2 RES2   0.0000
    34 C18     -7.5368  -3.3068   4.4895   C.ar      2 RES2   0.0000
    35 C19     -6.6145  -3.6688   3.4947   C.ar      2 RES2   0.0000
    36 H15     -6.5106  -4.5610   3.2504   H         2 RES2   0.0000
    37 C20     -5.8523  -2.6650   2.8737   C.ar      2 RES2   0.0000
    38 H16     -5.2451  -2.9204   2.2178   H         2 RES2   0.0000
    39 N9     -10.0044  -6.2645   6.4397   N.ar      2 RES2   1.0000
    40 H25    -10.8237  -6.9448   7.1407   H         2 RES2   0.0000
    41 N10     -5.9527  -1.3620   3.1719   N.ar      2 RES2   1.0000
    42 H26     -5.6188   0.0385   2.8359   H         2 RES2   0.0000
    43 C21     -4.6334   1.7137   1.8092   C.ar      3 RES3   0.0000
    44 H17     -5.3948   1.9833   2.2687   H         3 RES3   0.0000
    45 C22     -3.8567   2.6650   1.1445   C.ar      3 RES3   0.0000
    46 H18     -4.1115   3.5597   1.1489   H         3 RES3   0.0000
    47 C23     -2.6786   2.2670   0.4625   C.ar      3 RES3   0.0000
    48 C24     -2.3298   0.9037   0.5046   C.ar      3 RES3   0.0000
    49 H19     -1.5464   0.6072   0.0974   H         3 RES3   0.0000
    50 C25     -3.1800  -0.0090   1.1736   C.ar      3 RES3   0.0000
    51 H20     -2.9609  -0.9114   1.1794   H         3 RES3   0.0000
    52 C26     -1.0868   5.5417  -0.6617   C.ar      3 RES3   0.0000
    53 H21     -1.1455   6.4480  -0.4596   H         3 RES3   0.0000
    54 C27     -1.9234   4.6521   0.0276   C.ar      3 RES3   0.0000
    55 H22     -2.5430   4.9615   0.6501   H         3 RES3   0.0000
    56 C28     -1.7989   3.2773  -0.2487   C.ar      3 RES3   0.0000
    57 C29     -0.8634   2.8652  -1.2274   C.ar      3 RES3   0.0000
    58 H23     -0.7597   1.9641  -1.4354   H         3 RES3   0.0000
    59 C30     -0.0884   3.8408  -1.8833   C.ar      3 RES3   0.0000
    60 H24      0.5218   3.5661  -2.5305   H         3 RES3   0.0000
    61 N11     -4.2913   0.3928   1.7946   N.ar      3 RES3   0.0000
    62 N12     -0.1918   5.1515  -1.6143   N.ar      3 RES3   1.0000
    63 H27      0.4076   6.2388  -2.1233   H         3 RES3   0.0000
    64 Fe1    -10.1025   3.2967   2.1134   Fe        4 RES4   0.0000
    65 S1     -14.5001   1.3408   1.5744   S.2       4 RES4  -1.0000
    66 S2      -5.7244   5.4217   2.7044   S.2       4 RES4   0.0000
    67 S3      -7.2101   0.1678  -0.2109   S.2       4 RES4  -1.0000
    68 S4     -13.0713   6.2849   4.4429   S.2       4 RES4   0.0000
    69 S5      -8.0108   2.4383   6.1176   S.2       4 RES4  -1.0000
    70 S6     -12.4925   4.3792  -1.6005   S.2       4 RES4   0.0000
    71 C31    -12.9915   1.9538   1.7437   C.1       4 RES4   0.0000
    72 C32     -7.1559   4.7458   2.5101   C.1       4 RES4   0.0000
    73 C33     -8.3118   1.1130   0.5236   C.1       4 RES4   0.0000
    74 C34    -11.9196   5.4031   3.7434   C.1       4 RES4   0.0000
    75 C35     -8.9891   2.3659   4.8341   C.1       4 RES4   0.0000
    76 C36    -11.3079   4.3479  -0.5090   C.1       4 RES4   0.0000
    77 N1     -11.8961   2.3492   1.9168   N.2       4 RES4   0.0000
    78 N2      -8.2272   4.3068   2.3124   N.2       4 RES4   0.0000
    79 N3      -9.1254   1.8023   1.0413   N.2       4 RES4   0.0000
    80 N4     -11.0484   4.8126   3.1806   N.2       4 RES4   0.0000
    81 N5      -9.6950   2.3145   3.8830   N.2       4 RES4   0.0000
    82 N6     -10.4687   4.2965   0.2952   N.2       4 RES4   0.0000
@<TRIPOS>BOND
     1     1     2    1
     2     3     1   ar
     3     4     3    1
     4     5     3   ar
     5     6     5   ar
     6     7     6    1
     7     8     6   ar
     8     9     8    1
     9    10    11    1
    10    12    10   ar
    11    13    12    1
    12    14     5    1
    13    15    14   ar
    14    16    15    1
    15    17    15   ar
    16    18    17    1
    17    19     1   ar
    18    20    10   ar
    19     8    19   ar
    20    12    14   ar
    21    17    20   ar
    22    21    22    1
    23    23    21   ar
    24    24    23    1
    25    25    23   ar
    26    26    25   ar
    27    27    26    1
    28    28    26   ar
    29    29    28    1
    30    30    31    1
    31    32    30   ar
    32    33    32    1
    33    34    25    1
    34    35    34   ar
    35    36    35    1
    36    37    35   ar
    37    38    37    1
    38    39    21   ar
    39    40    39    1
    40    41    30   ar
    41    42    41    1
    42    28    39   ar
    43    32    34   ar
    44    37    41   ar
    45    43    44    1
    46    45    43   ar
    47    46    45    1
    48    47    45   ar
    49    48    47   ar
    50    49    48    1
    51    50    48   ar
    52    51    50    1
    53    52    53    1
    54    54    52   ar
    55    55    54    1
    56    56    47    1
    57    57    56   ar
    58    58    57    1
    59    59    57   ar
    60    60    59    1
    61    61    43   ar
    62    62    52   ar
    63    63    62    1
    64    50    61   ar
    65    54    56   ar
    66    59    62   ar
    67    64    77    1
    68    65    71    2
    69    66    72    2
    70    67    73    2
    71    68    74    2
    72    69    75    2
    73    70    76    2
    74    71    77    2
    75    72    78    2
    76    73    79    2
    77    74    80    2
    78    75    81    2
    79    76    82    2
    80    78    64    1
    81    79    64    1
    82    80    64    1
    83    81    64    1
    84    82    64    1
@<TRIPOS>SUBSTRUCTURE
     1 RES1        1 GROUP             0 ****  ****    0  
     2 RES2       21 GROUP             0 ****  ****    0  
     3 RES3       43 GROUP             0 ****  ****    0  
     4 RES4       64 GROUP             0 ****  ****    0  
@<TRIPOS>CRYSIN
   22.3820   12.8370   15.8560   90.0000  113.4800   90.0000     9     1
