@<TRIPOS>MOLECULE
MIJPAW
   122   131     2     0     0
SMALL
USER_CHARGES
****
Generated from the CSD

@<TRIPOS>ATOM
     1 Fe1     -9.4767  -4.6357  -3.5069   Fe        1 RES1   0.0000
     2 Cl1     -8.4525  -6.2669  -2.1480   Cl        1 RES1   0.0000
     3 O1      -9.4027  -3.2154  -2.1622   O.3       1 RES1   0.0000
     4 O2      -9.8011  -5.7213  -5.0903   O.3       1 RES1  -1.0000
     5 O3      -7.9583  -3.9939  -4.5449   O.3       1 RES1   0.0000
     6 N1     -11.5459  -5.2492  -2.9112   N.ar      1 RES1   0.0000
     7 N2     -10.9875  -3.0396  -4.3633   N.3       1 RES1   0.0000
     8 C1     -11.8250  -6.1036  -1.9022   C.ar      1 RES1   0.0000
     9 C2     -13.1268  -6.4740  -1.5992   C.ar      1 RES1   0.0000
    10 C3     -14.1586  -5.9792  -2.3542   C.ar      1 RES1   0.0000
    11 C4     -13.8822  -5.0984  -3.3841   C.ar      1 RES1   0.0000
    12 C5     -12.5619  -4.7476  -3.6328   C.ar      1 RES1   0.0000
    13 C6     -12.1851  -3.8081  -4.7451   C.3       1 RES1   0.0000
    14 C7     -11.2175  -2.1370  -3.2457   C.ar      1 RES1   0.0000
    15 C8     -10.3380  -2.2713  -2.1527   C.ar      1 RES1   0.0000
    16 C9     -10.4718  -1.3773  -1.0772   C.ar      1 RES1   0.0000
    17 C10    -11.4493  -0.3925  -1.0948   C.ar      1 RES1   0.0000
    18 C11    -12.3295  -0.2878  -2.1545   C.ar      1 RES1   0.0000
    19 C12    -12.2195  -1.1723  -3.2247   C.ar      1 RES1   0.0000
    20 C13    -10.3550  -2.3479  -5.5368   C.3       1 RES1   0.0000
    21 C14    -11.1684  -1.2518  -6.1727   C.ar      1 RES1   0.0000
    22 C15    -10.9921   0.0759  -5.8013   C.ar      1 RES1   0.0000
    23 C16    -11.7673   1.0866  -6.3548   C.ar      1 RES1   0.0000
    24 C17    -12.7293   0.7761  -7.3095   C.ar      1 RES1   0.0000
    25 C18    -12.9020  -0.5270  -7.7036   C.ar      1 RES1   0.0000
    26 C19    -12.1219  -1.5349  -7.1501   C.ar      1 RES1   0.0000
    27 C20     -8.8430  -5.5803  -6.0273   C.ar      1 RES1   0.0000
    28 C21     -8.7635  -6.3375  -7.2009   C.ar      1 RES1   0.0000
    29 C22     -9.7616  -7.4754  -7.4654   C.3       1 RES1   0.0000
    30 C23    -11.1915  -6.9321  -7.5056   C.3       1 RES1   0.0000
    31 C24     -9.6544  -8.5093  -6.3356   C.3       1 RES1   0.0000
    32 C25     -9.4842  -8.1943  -8.7931   C.3       1 RES1   0.0000
    33 C26     -7.7199  -6.0367  -8.1029   C.ar      1 RES1   0.0000
    34 C27     -6.7738  -5.0488  -7.8595   C.ar      1 RES1   0.0000
    35 C28     -5.6648  -4.7135  -8.8666   C.3       1 RES1   0.0000
    36 C29     -4.2961  -4.9699  -8.2326   C.3       1 RES1   0.0000
    37 C30     -5.7538  -5.5522 -10.1506   C.3       1 RES1   0.0000
    38 C31     -5.7643  -3.2425  -9.2783   C.3       1 RES1   0.0000
    39 C32     -6.8468  -4.3428  -6.6491   C.ar      1 RES1   0.0000
    40 C33     -7.8462  -4.6089  -5.7348   C.ar      1 RES1   0.0000
    41 H1     -11.0347  -6.4826  -1.4363   H         1 RES1   0.0000
    42 H2     -13.2535  -7.0713  -0.8933   H         1 RES1   0.0000
    43 H3     -15.0628  -6.2031  -2.1895   H         1 RES1   0.0000
    44 H4     -14.5676  -4.6931  -3.9061   H         1 RES1   0.0000
    45 H5     -11.8987  -4.3551  -5.5351   H         1 RES1   0.0000
    46 H6     -12.9593  -3.2426  -4.9571   H         1 RES1   0.0000
    47 H7      -9.9109  -1.4787  -0.3153   H         1 RES1   0.0000
    48 H8     -11.5510   0.1942  -0.3503   H         1 RES1   0.0000
    49 H9     -12.9969   0.3494  -2.1194   H         1 RES1   0.0000
    50 H10    -12.8272  -1.1162  -3.9411   H         1 RES1   0.0000
    51 H11     -9.5662  -2.0049  -5.2023   H         1 RES1   0.0000
    52 H12    -10.1986  -3.0108  -6.1481   H         1 RES1   0.0000
    53 H13    -10.3257   0.2775  -5.1322   H         1 RES1   0.0000
    54 H14    -11.6458   1.9880  -6.0080   H         1 RES1   0.0000
    55 H15    -13.3208   1.4819  -7.7246   H         1 RES1   0.0000
    56 H16    -13.5022  -0.8142  -8.4077   H         1 RES1   0.0000
    57 H17    -12.1966  -2.4783  -7.3743   H         1 RES1   0.0000
    58 H18    -11.3498  -6.2487  -8.2150   H         1 RES1   0.0000
    59 H19    -11.4131  -6.4786  -6.6736   H         1 RES1   0.0000
    60 H20    -11.8643  -7.6702  -7.6370   H         1 RES1   0.0000
    61 H21     -9.9074  -8.0332  -5.4475   H         1 RES1   0.0000
    62 H22    -10.3218  -9.2496  -6.4634   H         1 RES1   0.0000
    63 H23     -8.7700  -8.9720  -6.2708   H         1 RES1   0.0000
    64 H24    -10.1534  -8.9297  -8.8631   H         1 RES1   0.0000
    65 H25     -8.5549  -8.5269  -8.8106   H         1 RES1   0.0000
    66 H26     -9.5518  -7.6033  -9.5638   H         1 RES1   0.0000
    67 H27     -7.6755  -6.5360  -8.9332   H         1 RES1   0.0000
    68 H28     -4.1898  -4.4247  -7.4443   H         1 RES1   0.0000
    69 H29     -4.2569  -6.0348  -8.1275   H         1 RES1   0.0000
    70 H30     -3.5505  -4.7504  -8.8281   H         1 RES1   0.0000
    71 H31     -5.0018  -5.2507 -10.7899   H         1 RES1   0.0000
    72 H32     -6.6158  -5.4564 -10.6323   H         1 RES1   0.0000
    73 H33     -5.6667  -6.5307  -9.9316   H         1 RES1   0.0000
    74 H34     -5.0767  -2.9959  -9.9667   H         1 RES1   0.0000
    75 H35     -6.7381  -3.0924  -9.6864   H         1 RES1   0.0000
    76 H36     -5.6788  -2.6170  -8.4603   H         1 RES1   0.0000
    77 H37     -6.1921  -3.6423  -6.4284   H         1 RES1   0.0000
    78 P1      -6.0289   3.1444  -2.6915   P.3       2 RES2   1.0000
    79 C34     -5.0521   3.0878  -1.1911   C.ar      2 RES2   0.0000
    80 C35     -4.2136   4.1618  -0.8758   C.ar      2 RES2   0.0000
    81 C36     -3.4485   4.1189   0.2733   C.ar      2 RES2   0.0000
    82 C37     -3.5274   3.0468   1.1350   C.ar      2 RES2   0.0000
    83 C38     -4.3828   1.9966   0.8408   C.ar      2 RES2   0.0000
    84 C39     -5.1412   2.0052  -0.3188   C.ar      2 RES2   0.0000
    85 C40     -6.2054   1.4914  -3.3841   C.ar      2 RES2   0.0000
    86 C41     -7.2255   0.6723  -2.8726   C.ar      2 RES2   0.0000
    87 C42     -7.4091  -0.6019  -3.3718   C.ar      2 RES2   0.0000
    88 C43     -6.5896  -1.0748  -4.3808   C.ar      2 RES2   0.0000
    89 C44     -5.5909  -0.2735  -4.8975   C.ar      2 RES2   0.0000
    90 C45     -5.3927   1.0090  -4.4053   C.ar      2 RES2   0.0000
    91 C46     -5.2243   4.2727  -3.8308   C.ar      2 RES2   0.0000
    92 C47     -3.8857   4.0530  -4.2056   C.ar      2 RES2   0.0000
    93 C48     -3.2679   4.9484  -5.0551   C.ar      2 RES2   0.0000
    94 C49     -3.9522   6.0523  -5.5298   C.ar      2 RES2   0.0000
    95 C50     -5.2561   6.2845  -5.1550   C.ar      2 RES2   0.0000
    96 C51     -5.8957   5.3983  -4.2949   C.ar      2 RES2   0.0000
    97 C52     -7.6971   3.6833  -2.3559   C.ar      2 RES2   0.0000
    98 C53     -8.6173   3.5798  -3.3999   C.ar      2 RES2   0.0000
    99 C54     -9.9320   3.9178  -3.1652   C.ar      2 RES2   0.0000
   100 C55    -10.3321   4.3374  -1.9040   C.ar      2 RES2   0.0000
   101 C56     -9.4247   4.4219  -0.8705   C.ar      2 RES2   0.0000
   102 C57     -8.0965   4.1040  -1.0965   C.ar      2 RES2   0.0000
   103 H38     -4.1890   4.8923  -1.4714   H         2 RES2   0.0000
   104 H39     -2.8819   4.8254   0.4554   H         2 RES2   0.0000
   105 H40     -2.9829   3.0060   1.8917   H         2 RES2   0.0000
   106 H41     -4.4244   1.2358   1.3838   H         2 RES2   0.0000
   107 H42     -5.7175   1.2366  -0.4554   H         2 RES2   0.0000
   108 H43     -7.7412   1.0070  -2.1895   H         2 RES2   0.0000
   109 H44     -8.1304  -1.1254  -3.0303   H         2 RES2   0.0000
   110 H45     -6.7417  -1.9571  -4.7644   H         2 RES2   0.0000
   111 H46     -5.0381  -0.6035  -5.6051   H         2 RES2   0.0000
   112 H47     -4.7305   1.5746  -4.7469   H         2 RES2   0.0000
   113 H48     -3.3886   3.3118  -3.8535   H         2 RES2   0.0000
   114 H49     -2.4112   4.7813  -5.2899   H         2 RES2   0.0000
   115 H50     -3.5519   6.6740  -6.0956   H         2 RES2   0.0000
   116 H51     -5.6782   7.0098  -5.4825   H         2 RES2   0.0000
   117 H52     -6.7731   5.5263  -4.0462   H         2 RES2   0.0000
   118 H53     -8.3371   3.2744  -4.3090   H         2 RES2   0.0000
   119 H54    -10.5208   3.8578  -3.8535   H         2 RES2   0.0000
   120 H55    -11.2479   4.5656  -1.6991   H         2 RES2   0.0000
   121 H56     -9.6926   4.6025  -0.0175   H         2 RES2   0.0000
   122 H57     -7.5128   4.1802  -0.4379   H         2 RES2   0.0000
@<TRIPOS>BOND
     1     1     2    1
     2     3     1    1
     3     4     1    1
     4     5     1    1
     5     6     1    1
     6     7     1    1
     7     8     6   ar
     8     9     8   ar
     9    10     9   ar
    10    11    10   ar
    11    12     6   ar
    12    13     7    1
    13    14     7    1
    14    15     3    1
    15    16    15   ar
    16    17    16   ar
    17    18    17   ar
    18    19    14   ar
    19    20     7    1
    20    21    20    1
    21    22    21   ar
    22    23    22   ar
    23    24    23   ar
    24    25    24   ar
    25    26    21   ar
    26    27     4    1
    27    28    27   ar
    28    29    28    1
    29    30    29    1
    30    31    29    1
    31    32    29    1
    32    33    28   ar
    33    34    33   ar
    34    35    34    1
    35    36    35    1
    36    37    35    1
    37    38    35    1
    38    39    34   ar
    39    40     5    1
    40    41     8    1
    41    42     9    1
    42    43    10    1
    43    44    11    1
    44    45    13    1
    45    46    13    1
    46    47    16    1
    47    48    17    1
    48    49    18    1
    49    50    19    1
    50    51    20    1
    51    52    20    1
    52    53    22    1
    53    54    23    1
    54    55    24    1
    55    56    25    1
    56    57    26    1
    57    58    30    1
    58    59    30    1
    59    60    30    1
    60    61    31    1
    61    62    31    1
    62    63    31    1
    63    64    32    1
    64    65    32    1
    65    66    32    1
    66    67    33    1
    67    68    36    1
    68    69    36    1
    69    70    36    1
    70    71    37    1
    71    72    37    1
    72    73    37    1
    73    74    38    1
    74    75    38    1
    75    76    38    1
    76    77    39    1
    77    11    12   ar
    78    12    13    1
    79    14    15   ar
    80    18    19   ar
    81    25    26   ar
    82    27    40   ar
    83    39    40   ar
    84    78    79    1
    85    79    80   ar
    86    80    81   ar
    87    81    82   ar
    88    82    83   ar
    89    83    84   ar
    90    84    79   ar
    91    85    78    1
    92    86    85   ar
    93    87    86   ar
    94    88    87   ar
    95    89    88   ar
    96    90    85   ar
    97    91    78    1
    98    92    91   ar
    99    93    92   ar
   100    94    93   ar
   101    95    94   ar
   102    96    91   ar
   103    97    78    1
   104    98    97   ar
   105    99    98   ar
   106   100    99   ar
   107   101   100   ar
   108   102    97   ar
   109   103    80    1
   110   104    81    1
   111   105    82    1
   112   106    83    1
   113   107    84    1
   114   108    86    1
   115   109    87    1
   116   110    88    1
   117   111    89    1
   118   112    90    1
   119   113    92    1
   120   114    93    1
   121   115    94    1
   122   116    95    1
   123   117    96    1
   124   118    98    1
   125   119    99    1
   126   120   100    1
   127   121   101    1
   128   122   102    1
   129    89    90   ar
   130    95    96   ar
   131   101   102   ar
@<TRIPOS>SUBSTRUCTURE
     1 RES1        1 GROUP             0 ****  ****    0  
     2 RES2       78 GROUP             0 ****  ****    0  
@<TRIPOS>CRYSIN
    9.7300   14.0200   18.2600   78.0400   78.3000   86.9500     2     1
