@<TRIPOS>MOLECULE
MILBUG
   114   124     2     0     0
SMALL
USER_CHARGES
****
Generated from the CSD

@<TRIPOS>ATOM
     1 Fe1     17.7442   0.0000   4.9326   Fe        1 RES1   2.0000
     2 N1      16.4568   0.6297   3.5337   N.ar      1 RES1   0.0000
     3 N2      16.2850   0.0894   6.2975   N.ar      1 RES1   0.0000
     4 N3      18.2394   1.8622   5.3219   N.ar      1 RES1   0.0000
     5 B1      15.6984   2.3416   5.2536   B         1 RES1  -1.0000
     6 C1      15.5221   1.5843   3.8203   C.ar      1 RES1   0.0000
     7 C2      14.4464   1.7589   2.9362   C.ar      1 RES1   0.0000
     8 H1      13.7570   2.3757   3.1569   H         1 RES1   0.0000
     9 C3      14.3685   1.0529   1.7504   C.ar      1 RES1   0.0000
    10 H2      13.6346   1.1740   1.1621   H         1 RES1   0.0000
    11 C4      15.3835   0.1653   1.4368   C.ar      1 RES1   0.0000
    12 H3      15.3824  -0.2920   0.6264   H         1 RES1   0.0000
    13 C5      16.3919  -0.0249   2.3529   C.ar      1 RES1   0.0000
    14 H4      17.0787  -0.6485   2.1447   H         1 RES1   0.0000
    15 C6      15.3819   1.1116   6.2804   C.ar      1 RES1   0.0000
    16 C7      14.1971   0.9755   7.0165   C.ar      1 RES1   0.0000
    17 H5      13.5352   1.6535   6.9589   H         1 RES1   0.0000
    18 C8      13.9680  -0.1232   7.8247   C.ar      1 RES1   0.0000
    19 H6      13.1537  -0.2059   8.3104   H         1 RES1   0.0000
    20 C9      14.9518  -1.1012   7.9106   C.ar      1 RES1   0.0000
    21 H7      14.8519  -1.8440   8.4930   H         1 RES1   0.0000
    22 C10     16.0750  -0.9610   7.1276   C.ar      1 RES1   0.0000
    23 H8      16.7416  -1.6381   7.1720   H         1 RES1   0.0000
    24 C11     17.2626   2.8091   5.4081   C.ar      1 RES1   0.0000
    25 C12     17.6494   4.1448   5.6151   C.ar      1 RES1   0.0000
    26 H9      16.9794   4.8160   5.6656   H         1 RES1   0.0000
    27 C13     18.9779   4.5059   5.7477   C.ar      1 RES1   0.0000
    28 H10     19.2205   5.4153   5.8806   H         1 RES1   0.0000
    29 C14     19.9457   3.5126   5.6827   C.ar      1 RES1   0.0000
    30 H11     20.8653   3.7219   5.7850   H         1 RES1   0.0000
    31 C15     19.5361   2.2193   5.4670   C.ar      1 RES1   0.0000
    32 H12     20.1982   1.5398   5.4170   H         1 RES1   0.0000
    33 C16     14.7660   3.6579   5.4786   C.ar      1 RES1   0.0000
    34 C17     14.3758   4.0787   6.7624   C.ar      1 RES1   0.0000
    35 H13     14.6034   3.5344   7.5064   H         1 RES1   0.0000
    36 C18     13.6738   5.2496   6.9913   C.ar      1 RES1   0.0000
    37 H14     13.4288   5.4768   7.8803   H         1 RES1   0.0000
    38 C19     13.3170   6.1043   5.9429   C.ar      1 RES1   0.0000
    39 C20     13.7457   5.7405   4.6712   C.ar      1 RES1   0.0000
    40 H15     13.5548   6.3096   3.9352   H         1 RES1   0.0000
    41 C21     14.4499   4.5575   4.4554   C.ar      1 RES1   0.0000
    42 H16     14.7312   4.3519   3.5712   H         1 RES1   0.0000
    43 C22     12.5086   7.3749   6.2329   C.3       1 RES1   0.0000
    44 C23     12.1544   8.1248   4.9504   C.3       1 RES1   0.0000
    45 H17     12.9763   8.4057   4.4985   H         1 RES1   0.0000
    46 H18     11.6153   8.9128   5.1713   H         1 RES1   0.0000
    47 H19     11.6437   7.5359   4.3584   H         1 RES1   0.0000
    48 C24     11.2038   6.9873   6.9528   C.3       1 RES1   0.0000
    49 H20     10.6997   6.3557   6.3986   H         1 RES1   0.0000
    50 H21     10.6625   7.7910   7.1039   H         1 RES1   0.0000
    51 H22     11.4166   6.5709   7.8132   H         1 RES1   0.0000
    52 C25     13.3230   8.3080   7.1407   C.3       1 RES1   0.0000
    53 H23     13.5530   7.8371   7.9691   H         1 RES1   0.0000
    54 H24     12.7900   9.1033   7.3535   H         1 RES1   0.0000
    55 H25     14.1439   8.5778   6.6787   H         1 RES1   0.0000
    56 N1I     19.0315  -0.6297   6.3315   N.ar      1 RES1   0.0000
    57 N2I     19.2033  -0.0894   3.5677   N.ar      1 RES1   0.0000
    58 N3I     17.2489  -1.8622   4.5433   N.ar      1 RES1   0.0000
    59 B1I     19.7899  -2.3416   4.6116   B         1 RES1  -1.0000
    60 C1I     19.9662  -1.5843   6.0449   C.ar      1 RES1   0.0000
    61 C2I     21.0419  -1.7589   6.9290   C.ar      1 RES1   0.0000
    62 H1I     21.7313  -2.3757   6.7083   H         1 RES1   0.0000
    63 C3I     21.1198  -1.0529   8.1148   C.ar      1 RES1   0.0000
    64 H2I     21.8537  -1.1740   8.7031   H         1 RES1   0.0000
    65 C4I     20.1048  -0.1653   8.4284   C.ar      1 RES1   0.0000
    66 H3I     20.1059   0.2920   9.2388   H         1 RES1   0.0000
    67 C5I     19.0964   0.0249   7.5123   C.ar      1 RES1   0.0000
    68 H4I     18.4096   0.6485   7.7205   H         1 RES1   0.0000
    69 C6I     20.1064  -1.1116   3.5848   C.ar      1 RES1   0.0000
    70 C7I     21.2912  -0.9755   2.8487   C.ar      1 RES1   0.0000
    71 H5I     21.9531  -1.6535   2.9063   H         1 RES1   0.0000
    72 C8I     21.5203   0.1232   2.0405   C.ar      1 RES1   0.0000
    73 H6I     22.3346   0.2059   1.5548   H         1 RES1   0.0000
    74 C9I     20.5365   1.1012   1.9546   C.ar      1 RES1   0.0000
    75 H7I     20.6364   1.8440   1.3722   H         1 RES1   0.0000
    76 C10I    19.4133   0.9610   2.7376   C.ar      1 RES1   0.0000
    77 H8I     18.7467   1.6381   2.6932   H         1 RES1   0.0000
    78 C11I    18.2257  -2.8091   4.4571   C.ar      1 RES1   0.0000
    79 C12I    17.8389  -4.1448   4.2501   C.ar      1 RES1   0.0000
    80 H9I     18.5089  -4.8160   4.1996   H         1 RES1   0.0000
    81 C13I    16.5104  -4.5059   4.1175   C.ar      1 RES1   0.0000
    82 H10I    16.2678  -5.4153   3.9846   H         1 RES1   0.0000
    83 C14I    15.5426  -3.5126   4.1825   C.ar      1 RES1   0.0000
    84 H11I    14.6230  -3.7219   4.0802   H         1 RES1   0.0000
    85 C15I    15.9522  -2.2193   4.3982   C.ar      1 RES1   0.0000
    86 H12I    15.2901  -1.5398   4.4482   H         1 RES1   0.0000
    87 C16I    20.7223  -3.6579   4.3866   C.ar      1 RES1   0.0000
    88 C17I    21.1125  -4.0787   3.1028   C.ar      1 RES1   0.0000
    89 H13I    20.8849  -3.5344   2.3588   H         1 RES1   0.0000
    90 C18I    21.8145  -5.2496   2.8739   C.ar      1 RES1   0.0000
    91 H14I    22.0595  -5.4768   1.9849   H         1 RES1   0.0000
    92 C19I    22.1713  -6.1043   3.9223   C.ar      1 RES1   0.0000
    93 C20I    21.7426  -5.7405   5.1940   C.ar      1 RES1   0.0000
    94 H15I    21.9335  -6.3096   5.9300   H         1 RES1   0.0000
    95 C21I    21.0384  -4.5575   5.4098   C.ar      1 RES1   0.0000
    96 H16I    20.7571  -4.3519   6.2940   H         1 RES1   0.0000
    97 C22I    22.9797  -7.3749   3.6323   C.3       1 RES1   0.0000
    98 C23I    23.3339  -8.1248   4.9148   C.3       1 RES1   0.0000
    99 H17I    22.5120  -8.4057   5.3667   H         1 RES1   0.0000
   100 H18I    23.8730  -8.9128   4.6939   H         1 RES1   0.0000
   101 H19I    23.8446  -7.5359   5.5068   H         1 RES1   0.0000
   102 C24I    24.2845  -6.9873   2.9124   C.3       1 RES1   0.0000
   103 H20I    24.7886  -6.3557   3.4666   H         1 RES1   0.0000
   104 H21I    24.8258  -7.7910   2.7613   H         1 RES1   0.0000
   105 H22I    24.0717  -6.5709   2.0520   H         1 RES1   0.0000
   106 C25I    22.1653  -8.3080   2.7245   C.3       1 RES1   0.0000
   107 H23I    21.9353  -7.8371   1.8961   H         1 RES1   0.0000
   108 H24I    22.6983  -9.1033   2.5117   H         1 RES1   0.0000
   109 H25I    21.3444  -8.5778   3.1865   H         1 RES1   0.0000
   110 Cl1     15.5616   8.8796   2.8037   Cl        2 RES2   0.0000
   111 Cl2     15.6947   9.3043  -0.0493   Cl        2 RES2   0.0000
   112 C26     15.2458   9.9885   1.4561   C.3       2 RES2   0.0000
   113 H26     14.2787  10.2128   1.4383   H         2 RES2   0.0000
   114 H27     15.7515  10.8275   1.5982   H         2 RES2   0.0000
@<TRIPOS>BOND
     1     1     2    1
     2     2     6   ar
     3     3     1    1
     4     4     1    1
     5     5     6    1
     6     6     7   ar
     7     7     8    1
     8     9     7   ar
     9    10     9    1
    10    11     9   ar
    11    12    11    1
    12    13     2   ar
    13    14    13    1
    14    15     3   ar
    15    16    15   ar
    16    17    16    1
    17    18    16   ar
    18    19    18    1
    19    20    18   ar
    20    21    20    1
    21    22     3   ar
    22    23    22    1
    23    24     4   ar
    24    25    24   ar
    25    26    25    1
    26    27    25   ar
    27    28    27    1
    28    29    27   ar
    29    30    29    1
    30    31     4   ar
    31    32    31    1
    32    33     5    1
    33    34    33   ar
    34    35    34    1
    35    36    34   ar
    36    37    36    1
    37    38    36   ar
    38    39    38   ar
    39    40    39    1
    40    41    33   ar
    41    42    41    1
    42    43    38    1
    43    44    43    1
    44    45    44    1
    45    46    44    1
    46    47    44    1
    47    48    43    1
    48    49    48    1
    49    50    48    1
    50    51    48    1
    51    52    43    1
    52    53    52    1
    53    54    52    1
    54    55    52    1
    55    56     1    1
    56    57     1    1
    57    58     1    1
    58    59    60    1
    59    60    56   ar
    60    61    60   ar
    61    62    61    1
    62    63    61   ar
    63    64    63    1
    64    65    63   ar
    65    66    65    1
    66    67    56   ar
    67    68    67    1
    68    69    57   ar
    69    70    69   ar
    70    71    70    1
    71    72    70   ar
    72    73    72    1
    73    74    72   ar
    74    75    74    1
    75    76    57   ar
    76    77    76    1
    77    78    58   ar
    78    79    78   ar
    79    80    79    1
    80    81    79   ar
    81    82    81    1
    82    83    81   ar
    83    84    83    1
    84    85    58   ar
    85    86    85    1
    86    87    59    1
    87    88    87   ar
    88    89    88    1
    89    90    88   ar
    90    91    90    1
    91    92    90   ar
    92    93    92   ar
    93    94    93    1
    94    95    87   ar
    95    96    95    1
    96    97    92    1
    97    98    97    1
    98    99    98    1
    99   100    98    1
   100   101    98    1
   101   102    97    1
   102   103   102    1
   103   104   102    1
   104   105   102    1
   105   106    97    1
   106   107   106    1
   107   108   106    1
   108   109   106    1
   109     5    15    1
   110     5    24    1
   111    11    13   ar
   112    20    22   ar
   113    29    31   ar
   114    39    41   ar
   115    59    69    1
   116    59    78    1
   117    65    67   ar
   118    74    76   ar
   119    83    85   ar
   120    93    95   ar
   121   110   112    1
   122   111   112    1
   123   112   113    1
   124   114   112    1
@<TRIPOS>SUBSTRUCTURE
     1 RES1        1 GROUP             0 ****  ****    0  
     2 RES2      110 GROUP             0 ****  ****    0  
@<TRIPOS>CRYSIN
   35.4883   35.4883    9.8652   90.0000   90.0000  120.0000   233     1
