@<TRIPOS>MOLECULE
MINWOX
    95    99     4     0     0
SMALL
USER_CHARGES
****
Generated from the CSD

@<TRIPOS>ATOM
     1 Fe1     -0.5922  12.8895  17.0442   Fe        1 RES1   2.0000
     2 P1      -2.3865  14.1935  16.5111   P.3       1 RES1   0.0000
     3 P2      -1.6214  11.5060  18.5200   P.3       1 RES1   0.0000
     4 N1       1.2073  12.2688  17.6398   N.ar      1 RES1   0.0000
     5 N2      -0.1580  14.3318  18.2767   N.ar      1 RES1   0.0000
     6 N3       0.4911  13.5069  15.4970   N.ar      1 RES1   0.0000
     7 N4      -1.0039  11.4648  15.7933   N.ar      1 RES1   0.0000
     8 C1       1.8707  11.2031  17.1625   C.ar      1 RES1   0.0000
     9 H1       1.4477  10.6576  16.5107   H         1 RES1   0.0000
    10 C2       3.1417  10.8677  17.5820   C.ar      1 RES1   0.0000
    11 H2       3.5814  10.0984  17.2388   H         1 RES1   0.0000
    12 C3       3.7611  11.6824  18.5152   C.ar      1 RES1   0.0000
    13 H3       4.6234  11.4571  18.8453   H         1 RES1   0.0000
    14 C4       3.1201  12.8277  18.9686   C.ar      1 RES1   0.0000
    15 H4       3.5498  13.4172  19.5775   H         1 RES1   0.0000
    16 C5       1.8396  13.0893  18.5115   C.ar      1 RES1   0.0000
    17 C6       1.0368  14.2489  18.9172   C.ar      1 RES1   0.0000
    18 C7       1.4318  15.1872  19.8727   C.ar      1 RES1   0.0000
    19 H5       2.2719  15.1125  20.3098   H         1 RES1   0.0000
    20 C8       0.5677  16.2293  20.1671   C.ar      1 RES1   0.0000
    21 H6       0.8024  16.8709  20.8272   H         1 RES1   0.0000
    22 C9      -0.6294  16.3346  19.5024   C.ar      1 RES1   0.0000
    23 H7      -1.2108  17.0656  19.6777   H         1 RES1   0.0000
    24 C10     -0.9865  15.3660  18.5724   C.ar      1 RES1   0.0000
    25 C11     -2.3406  15.3546  17.9265   C.3       1 RES1   0.0000
    26 H8      -2.5626  16.2661  17.6123   H         1 RES1   0.0000
    27 H9      -3.0207  15.0880  18.5928   H         1 RES1   0.0000
    28 C12     -4.1792  13.6915  16.5320   C.3       1 RES1   0.0000
    29 H10     -4.2976  13.0718  17.3077   H         1 RES1   0.0000
    30 C13     -4.5900  12.9117  15.2752   C.3       1 RES1   0.0000
    31 H11     -5.4645  12.4932  15.4217   H         1 RES1   0.0000
    32 H12     -3.9229  12.2180  15.0900   H         1 RES1   0.0000
    33 H13     -4.6443  13.5259  14.5142   H         1 RES1   0.0000
    34 C14     -5.1431  14.8683  16.7496   C.3       1 RES1   0.0000
    35 H14     -5.0503  15.5070  16.0121   H         1 RES1   0.0000
    36 H15     -4.9297  15.3124  17.5956   H         1 RES1   0.0000
    37 H16     -6.0645  14.5357  16.7778   H         1 RES1   0.0000
    38 C15     -2.3307  15.2610  14.9892   C.3       1 RES1   0.0000
    39 H17     -3.2578  15.6192  14.8793   H         1 RES1   0.0000
    40 C16     -1.4280  16.4824  15.0718   C.3       1 RES1   0.0000
    41 H18     -0.4959  16.1942  15.1630   H         1 RES1   0.0000
    42 H19     -1.6802  17.0217  15.8494   H         1 RES1   0.0000
    43 H20     -1.5273  17.0182  14.2576   H         1 RES1   0.0000
    44 C17     -2.0375  14.4761  13.6957   C.3       1 RES1   0.0000
    45 H21     -2.4670  14.9232  12.9369   H         1 RES1   0.0000
    46 H22     -2.3897  13.5644  13.7798   H         1 RES1   0.0000
    47 H23     -1.0693  14.4393  13.5482   H         1 RES1   0.0000
    48 C18      1.3319  14.5566  15.4910   C.ar      1 RES1   0.0000
    49 H24      1.2964  15.1704  16.2166   H         1 RES1   0.0000
    50 C19      2.2421  14.7843  14.4825   C.ar      1 RES1   0.0000
    51 H25      2.8137  15.5420  14.5100   H         1 RES1   0.0000
    52 C20      2.3091  13.8900  13.4297   C.ar      1 RES1   0.0000
    53 H26      2.9263  14.0290  12.7200   H         1 RES1   0.0000
    54 C21      1.4710  12.7918  13.4182   C.ar      1 RES1   0.0000
    55 H27      1.5038  12.1671  12.7033   H         1 RES1   0.0000
    56 C22      0.5774  12.6170  14.4712   C.ar      1 RES1   0.0000
    57 C23     -0.3468  11.4855  14.6010   C.ar      1 RES1   0.0000
    58 C24     -0.5596  10.5211  13.6227   C.ar      1 RES1   0.0000
    59 H28     -0.0742  10.5384  12.8055   H         1 RES1   0.0000
    60 C25     -1.5007   9.5302  13.8714   C.ar      1 RES1   0.0000
    61 H29     -1.6709   8.8606  13.2186   H         1 RES1   0.0000
    62 C26     -2.1891   9.5195  15.0733   C.ar      1 RES1   0.0000
    63 H30     -2.8389   8.8483  15.2464   H         1 RES1   0.0000
    64 C27     -1.9231  10.5002  16.0273   C.ar      1 RES1   0.0000
    65 C28     -2.6692  10.5921  17.3273   C.3       1 RES1   0.0000
    66 H31     -2.8649   9.6846  17.6728   H         1 RES1   0.0000
    67 H32     -3.5271  11.0679  17.1950   H         1 RES1   0.0000
    68 C29     -2.7818  12.0875  19.8266   C.3       1 RES1   0.0000
    69 H33     -3.4359  12.6896  19.3689   H         1 RES1   0.0000
    70 C30     -2.0949  12.9475  20.9034   C.3       1 RES1   0.0000
    71 H34     -2.7651  13.5048  21.3529   H         1 RES1   0.0000
    72 H35     -1.4212  13.5206  20.4830   H         1 RES1   0.0000
    73 H36     -1.6628  12.3635  21.5616   H         1 RES1   0.0000
    74 C31     -3.6118  10.9708  20.4734   C.3       1 RES1   0.0000
    75 H37     -3.0670  10.5034  21.1401   H         1 RES1   0.0000
    76 H38     -3.8993  10.3368  19.7841   H         1 RES1   0.0000
    77 H39     -4.3998  11.3589  20.9086   H         1 RES1   0.0000
    78 C32     -0.5144  10.1548  19.1864   C.3       1 RES1   0.0000
    79 H40      0.1291   9.9581  18.4468   H         1 RES1   0.0000
    80 C33      0.3614  10.6427  20.3599   C.3       1 RES1   0.0000
    81 H41     -0.1435  10.5682  21.1965   H         1 RES1   0.0000
    82 H42      0.6139  11.5781  20.2118   H         1 RES1   0.0000
    83 H43      1.1687  10.0914  20.4162   H         1 RES1   0.0000
    84 C34     -1.1473   8.8256  19.5179   C.3       1 RES1   0.0000
    85 H44     -0.4466   8.1541  19.6506   H         1 RES1   0.0000
    86 H45     -1.7291   8.5468  18.7806   H         1 RES1   0.0000
    87 H46     -1.6782   8.9115  20.3369   H         1 RES1   0.0000
    88 N5      -0.2688  16.1984   3.8732   N.1       2 RES2   0.0000
    89 C35      0.4558  16.2188   3.0046   C.1       2 RES2   0.0000
    90 C36      1.3586  16.2380   1.8685   C.3       2 RES2   0.0000
    91 H47      0.9108  15.8471   1.0890   H         2 RES2   0.0000
    92 H48      2.1607  15.7173   2.0800   H         2 RES2   0.0000
    93 H49      1.6121  17.1637   1.6690   H         2 RES2   0.0000
    94 Br1      1.8158   2.0730   0.1786   Br        3 RES3  -1.0000
    95 Br2      1.8644   0.8879   7.6716   Br        4 RES4  -1.0000
@<TRIPOS>BOND
     1     1     2    1
     2     2    25    1
     3     3     1    1
     4     4     1    1
     5     5     1    1
     6     6     1    1
     7     7     1    1
     8     8     4   ar
     9     9     8    1
    10    10     8   ar
    11    11    10    1
    12    12    10   ar
    13    13    12    1
    14    14    12   ar
    15    15    14    1
    16    16     4   ar
    17    17     5   ar
    18    18    17   ar
    19    19    18    1
    20    20    18   ar
    21    21    20    1
    22    22    20   ar
    23    23    22    1
    24    24     5   ar
    25    25    24    1
    26    26    25    1
    27    27    25    1
    28    28     2    1
    29    29    28    1
    30    30    28    1
    31    31    30    1
    32    32    30    1
    33    33    30    1
    34    34    28    1
    35    35    34    1
    36    36    34    1
    37    37    34    1
    38    38     2    1
    39    39    38    1
    40    40    38    1
    41    41    40    1
    42    42    40    1
    43    43    40    1
    44    44    38    1
    45    45    44    1
    46    46    44    1
    47    47    44    1
    48    48     6   ar
    49    49    48    1
    50    50    48   ar
    51    51    50    1
    52    52    50   ar
    53    53    52    1
    54    54    52   ar
    55    55    54    1
    56    56     6   ar
    57    57     7   ar
    58    58    57   ar
    59    59    58    1
    60    60    58   ar
    61    61    60    1
    62    62    60   ar
    63    63    62    1
    64    64     7   ar
    65    65     3    1
    66    66    65    1
    67    67    65    1
    68    68     3    1
    69    69    68    1
    70    70    68    1
    71    71    70    1
    72    72    70    1
    73    73    70    1
    74    74    68    1
    75    75    74    1
    76    76    74    1
    77    77    74    1
    78    78     3    1
    79    79    78    1
    80    80    78    1
    81    81    80    1
    82    82    80    1
    83    83    80    1
    84    84    78    1
    85    85    84    1
    86    86    84    1
    87    87    84    1
    88    14    16   ar
    89    16    17    1
    90    22    24   ar
    91    54    56   ar
    92    56    57    1
    93    62    64   ar
    94    64    65    1
    95    88    89    3
    96    89    90    1
    97    90    91    1
    98    92    90    1
    99    93    90    1
@<TRIPOS>SUBSTRUCTURE
     1 RES1        1 GROUP             0 ****  ****    0  
     2 RES2       88 GROUP             0 ****  ****    0  
     3 RES3       94 GROUP             0 ****  ****    0  
     4 RES4       95 GROUP             0 ****  ****    0  
@<TRIPOS>CRYSIN
   10.2676   17.5319   21.1256   90.0000   99.0490   90.0000   231     1
