@<TRIPOS>MOLECULE
MIPMEF
    78    79     4     0     0
SMALL
USER_CHARGES
****
Generated from the CSD

@<TRIPOS>ATOM
     1 Sb1      5.4786   6.7989   3.6245   Sb        1 RES1  -1.0000
     2 F1       6.9161   7.6575   4.3243   F         1 RES1   0.0000
     3 F2       5.7147   7.6824   2.0485   F         1 RES1   0.0000
     4 F3       4.0173   5.9247   2.9194   F         1 RES1   0.0000
     5 F4       5.1076   5.8935   5.1770   F         1 RES1   0.0000
     6 F5       6.6000   5.4264   3.0879   F         1 RES1   0.0000
     7 F6       4.4310   8.1745   4.2411   F         1 RES1   0.0000
     8 Sb2      1.6295   7.6911  10.3120   Sb        2 RES2  -1.0000
     9 F7       2.5511   6.9425  11.6818   F         2 RES2   0.0000
    10 F8       2.3895   6.6323   9.0649   F         2 RES2   0.0000
    11 F9       0.6489   8.5083   8.9999   F         2 RES2   0.0000
    12 F10      0.7617   8.7724  11.5559   F         2 RES2   0.0000
    13 F11      2.8477   9.0066  10.2221   F         2 RES2   0.0000
    14 F12      0.3186   6.4728  10.4698   F         2 RES2   0.0000
    15 Fe1      5.9438   0.0514   6.2581   Fe        3 RES3   2.0000
    16 N1       4.7042   1.3255   7.5930   N.ar      3 RES3   0.0000
    17 C1       3.7768   0.9767   8.5025   C.ar      3 RES3   0.0000
    18 N2       6.1505   2.0081   5.3252   N.3       3 RES3   0.0000
    19 C2       3.6148  -0.4833   8.8314   C.3       3 RES3   0.0000
    20 H1       4.4810  -0.8571   9.0953   H         3 RES3   0.0000
    21 H2       3.2799  -0.9605   8.0437   H         3 RES3   0.0000
    22 H3       2.9778  -0.5830   9.5704   H         3 RES3   0.0000
    23 N3       7.2891  -0.4709   4.5639   N.3       3 RES3   0.0000
    24 C3       3.0141   1.9359   9.1136   C.ar      3 RES3   0.0000
    25 H4       2.3560   1.6768   9.7490   H         3 RES3   0.0000
    26 N4       4.4229  -0.1682   4.6309   N.3       3 RES3   0.0000
    27 C4       3.1865   3.2651   8.8233   C.ar      3 RES3   0.0000
    28 H5       2.6463   3.9240   9.2415   H         3 RES3   0.0000
    29 N5       7.5800   0.3451   7.6640   N.1       3 RES3   0.0000
    30 C5       4.1503   3.6251   7.9178   C.ar      3 RES3   0.0000
    31 H6       4.2875   4.5394   7.6965   H         3 RES3   0.0000
    32 N6       5.7815  -1.9732   6.9128   N.1       3 RES3   0.0000
    33 C6       4.9091   2.6459   7.3432   C.ar      3 RES3   0.0000
    34 C7       6.0588   2.9748   6.4256   C.3       3 RES3   0.0000
    35 H7       5.9328   3.8854   6.0561   H         3 RES3   0.0000
    36 H8       6.9033   2.9686   6.9413   H         3 RES3   0.0000
    37 C8       7.5037   1.9944   4.7162   C.3       3 RES3   0.0000
    38 H9       8.1854   2.0006   5.4328   H         3 RES3   0.0000
    39 H10      7.6253   2.8116   4.1700   H         3 RES3   0.0000
    40 C9       7.7030   0.7898   3.8513   C.3       3 RES3   0.0000
    41 H11      8.6569   0.7238   3.5955   H         3 RES3   0.0000
    42 H12      7.1706   0.8882   3.0230   H         3 RES3   0.0000
    43 C10      8.4912  -1.2345   4.9862   C.3       3 RES3   0.0000
    44 H13      8.9847  -1.5335   4.1944   H         3 RES3   0.0000
    45 H14      8.2150  -2.0131   5.5120   H         3 RES3   0.0000
    46 H15      9.0682  -0.6590   5.5323   H         3 RES3   0.0000
    47 C11      6.4287  -1.3329   3.7173   C.3       3 RES3   0.0000
    48 H16      6.2638  -2.1887   4.1863   H         3 RES3   0.0000
    49 H17      6.9025  -1.5360   2.8727   H         3 RES3   0.0000
    50 C12      5.1067  -0.6764   3.3986   C.3       3 RES3   0.0000
    51 H18      5.2596   0.0772   2.7753   H         3 RES3   0.0000
    52 H19      4.5195  -1.3317   2.9458   H         3 RES3   0.0000
    53 C13      3.2883  -1.0514   4.9882   C.3       3 RES3   0.0000
    54 H20      2.5799  -0.9605   4.3162   H         3 RES3   0.0000
    55 H21      2.9387  -0.7948   5.8673   H         3 RES3   0.0000
    56 H22      3.5945  -1.9807   5.0166   H         3 RES3   0.0000
    57 C14      3.9394   1.2308   4.4502   C.3       3 RES3   0.0000
    58 H23      3.3816   1.4837   5.2298   H         3 RES3   0.0000
    59 H24      3.3700   1.2756   3.6422   H         3 RES3   0.0000
    60 C15      5.0671   2.2162   4.3142   C.3       3 RES3   0.0000
    61 H25      5.4542   2.1389   3.4047   H         3 RES3   0.0000
    62 H26      4.7074   3.1330   4.4116   H         3 RES3   0.0000
    63 C16      8.3833   0.4534   8.4436   C.1       3 RES3   0.0000
    64 C17      9.4194   0.6067   9.4587   C.3       3 RES3   0.0000
    65 H27      9.8623  -0.2554   9.6069   H         3 RES3   0.0000
    66 H28      9.0137   0.9131  10.2952   H         3 RES3   0.0000
    67 H29     10.0787   1.2644   9.1542   H         3 RES3   0.0000
    68 C18      5.7311  -3.0234   7.2864   C.1       3 RES3   0.0000
    69 C19      5.6360  -4.3775   7.8183   C.3       3 RES3   0.0000
    70 H30      5.0401  -4.9107   7.2519   H         3 RES3   0.0000
    71 H31      5.2764  -4.3464   8.7299   H         3 RES3   0.0000
    72 H32      6.5262  -4.7873   7.8325   H         3 RES3   0.0000
    73 N7       0.8513   2.9898  11.8320   N.1       4 RES4   0.0000
    74 C20     -0.0048   3.2514  11.1966   C.1       4 RES4   0.0000
    75 C21     -1.1341   3.6375  10.4170   C.3       4 RES4   0.0000
    76 H33     -1.9242   3.1467  10.7235   H         4 RES4   0.0000
    77 H34     -0.9660   3.4320   9.4750   H         4 RES4   0.0000
    78 H35     -1.2869   4.6005  10.5185   H         4 RES4   0.0000
@<TRIPOS>BOND
     1     1     2    1
     2     3     1    1
     3     4     1    1
     4     5     1    1
     5     6     1    1
     6     7     1    1
     7     8     9    1
     8    10     8    1
     9    11     8    1
    10    12     8    1
    11    13     8    1
    12    14     8    1
    13    15    16    1
    14    16    17   ar
    15    17    19    1
    16    18    15    1
    17    19    20    1
    18    21    19    1
    19    22    19    1
    20    23    15    1
    21    24    17   ar
    22    25    24    1
    23    26    15    1
    24    27    24   ar
    25    28    27    1
    26    29    15    1
    27    30    27   ar
    28    31    30    1
    29    32    15    1
    30    33    16   ar
    31    34    18    1
    32    35    34    1
    33    36    34    1
    34    37    18    1
    35    38    37    1
    36    39    37    1
    37    40    23    1
    38    41    40    1
    39    42    40    1
    40    43    23    1
    41    44    43    1
    42    45    43    1
    43    46    43    1
    44    47    23    1
    45    48    47    1
    46    49    47    1
    47    50    26    1
    48    51    50    1
    49    52    50    1
    50    53    26    1
    51    54    53    1
    52    55    53    1
    53    56    53    1
    54    57    26    1
    55    58    57    1
    56    59    57    1
    57    60    18    1
    58    61    60    1
    59    62    60    1
    60    63    29    3
    61    64    63    1
    62    65    64    1
    63    66    64    1
    64    67    64    1
    65    68    32    3
    66    69    68    1
    67    70    69    1
    68    71    69    1
    69    72    69    1
    70    30    33   ar
    71    33    34    1
    72    37    40    1
    73    47    50    1
    74    57    60    1
    75    73    74    3
    76    74    75    1
    77    75    76    1
    78    77    75    1
    79    78    75    1
@<TRIPOS>SUBSTRUCTURE
     1 RES1        1 GROUP             0 ****  ****    0  
     2 RES2        8 GROUP             0 ****  ****    0  
     3 RES3       15 GROUP             0 ****  ****    0  
     4 RES4       73 GROUP             0 ****  ****    0  
@<TRIPOS>CRYSIN
   13.3058   12.4573   20.6330   90.0000  100.2760   90.0000   231     1
