@<TRIPOS>MOLECULE
MIPMEF01
    78    79     4     0     0
SMALL
USER_CHARGES
****
Generated from the CSD

@<TRIPOS>ATOM
     1 Sb1      5.3140   6.5960   3.5515   Sb        1 RES1  -1.0000
     2 F1       6.7237   7.4429   4.4616   F         1 RES1   0.0000
     3 F2       5.7503   7.5271   1.9898   F         1 RES1   0.0000
     4 F3       3.9320   5.7323   2.6297   F         1 RES1   0.0000
     5 F4       4.8434   5.6700   5.1112   F         1 RES1   0.0000
     6 F5       6.4809   5.2052   3.0550   F         1 RES1   0.0000
     7 F6       4.1614   7.9834   4.0577   F         1 RES1   0.0000
     8 Sb2      1.3764   7.5611  10.0398   Sb        2 RES2  -1.0000
     9 F7       2.1231   6.6657  11.5002   F         2 RES2   0.0000
    10 F8       2.2655   6.4424   8.8334   F         2 RES2   0.0000
    11 F9       0.6139   8.4898   8.5973   F         2 RES2   0.0000
    12 F10      0.4534   8.6753  11.2368   F         2 RES2   0.0000
    13 F11      2.7975   8.7778  10.0078   F         2 RES2   0.0000
    14 F12     -0.0923   6.3899  10.0390   F         2 RES2   0.0000
    15 Fe1      5.7891   0.0835   5.8860   Fe        3 RES3   2.0000
    16 N1       4.5983   1.1750   7.1869   N.ar      3 RES3   0.0000
    17 C1       3.6592   0.8309   8.0960   C.ar      3 RES3   0.0000
    18 N2       6.1014   1.8668   5.0702   N.3       3 RES3   0.0000
    19 C2       3.5130  -0.6089   8.4978   C.3       3 RES3   0.0000
    20 H1       4.3895  -0.9700   8.7475   H         3 RES3   0.0000
    21 H2       3.1492  -1.1225   7.7468   H         3 RES3   0.0000
    22 H3       2.9044  -0.6735   9.2645   H         3 RES3   0.0000
    23 N3       7.0397  -0.5991   4.4264   N.3       3 RES3   0.0000
    24 C3       2.8710   1.7961   8.7124   C.ar      3 RES3   0.0000
    25 H4       2.2016   1.5252   9.3289   H         3 RES3   0.0000
    26 N4       4.3135  -0.1123   4.4557   N.3       3 RES3   0.0000
    27 C4       3.0379   3.1321   8.4452   C.ar      3 RES3   0.0000
    28 H5       2.4688   3.7825   8.8412   H         3 RES3   0.0000
    29 N5       7.2320   0.2794   7.1771   N.1       3 RES3   0.0000
    30 C5       4.0516   3.5104   7.5887   C.ar      3 RES3   0.0000
    31 H6       4.2146   4.4267   7.4015   H         3 RES3   0.0000
    32 N6       5.5131  -1.7229   6.5431   N.1       3 RES3   0.0000
    33 C6       4.8273   2.5159   7.0093   C.ar      3 RES3   0.0000
    34 C7       6.0205   2.8564   6.1822   C.3       3 RES3   0.0000
    35 H7       5.9337   3.7727   5.8174   H         3 RES3   0.0000
    36 H8       6.8407   2.8149   6.7343   H         3 RES3   0.0000
    37 C8       7.4666   1.8339   4.4655   C.3       3 RES3   0.0000
    38 H9       8.1522   1.8510   5.1795   H         3 RES3   0.0000
    39 H10      7.5991   2.6258   3.8861   H         3 RES3   0.0000
    40 C9       7.6001   0.5613   3.6461   C.3       3 RES3   0.0000
    41 H11      7.1090   0.6589   2.7916   H         3 RES3   0.0000
    42 H12      8.5542   0.3953   3.4374   H         3 RES3   0.0000
    43 C10      8.1829  -1.4471   4.8946   C.3       3 RES3   0.0000
    44 H13      8.6339  -1.8436   4.1202   H         3 RES3   0.0000
    45 H14      7.8439  -2.1609   5.4760   H         3 RES3   0.0000
    46 H15      8.8176  -0.8931   5.3940   H         3 RES3   0.0000
    47 C11      6.1887  -1.4593   3.5505   C.3       3 RES3   0.0000
    48 H16      5.9752  -2.3061   4.0168   H         3 RES3   0.0000
    49 H17      6.6772  -1.6777   2.7175   H         3 RES3   0.0000
    50 C12      4.9084  -0.7162   3.2169   C.3       3 RES3   0.0000
    51 H18      5.1017  -0.0024   2.5595   H         3 RES3   0.0000
    52 H19      4.2597  -1.3434   2.8092   H         3 RES3   0.0000
    53 C13      3.1293  -0.9273   4.8478   C.3       3 RES3   0.0000
    54 H20      2.4446  -0.8626   4.1494   H         3 RES3   0.0000
    55 H21      2.7677  -0.5930   5.6925   H         3 RES3   0.0000
    56 H22      3.3994  -1.8632   4.9551   H         3 RES3   0.0000
    57 C14      3.8469   1.2799   4.1982   C.3       3 RES3   0.0000
    58 H23      3.2995   1.5984   4.9590   H         3 RES3   0.0000
    59 H24      3.2885   1.3031   3.3808   H         3 RES3   0.0000
    60 C15      5.0633   2.1743   4.0226   C.3       3 RES3   0.0000
    61 H25      5.4499   2.0340   3.1233   H         3 RES3   0.0000
    62 H26      4.7905   3.1224   4.0967   H         3 RES3   0.0000
    63 C16      8.0408   0.3660   7.9750   C.1       3 RES3   0.0000
    64 C17      9.0757   0.4771   8.9992   C.3       3 RES3   0.0000
    65 H27      9.4691  -0.4063   9.1631   H         3 RES3   0.0000
    66 H28      8.6806   0.8175   9.8283   H         3 RES3   0.0000
    67 H29      9.7734   1.0933   8.6929   H         3 RES3   0.0000
    68 C18      5.3946  -2.7807   6.9372   C.1       3 RES3   0.0000
    69 C19      5.1815  -4.1107   7.4951   C.3       3 RES3   0.0000
    70 H30      4.6113  -4.6305   6.8923   H         3 RES3   0.0000
    71 H31      4.7473  -4.0326   8.3710   H         3 RES3   0.0000
    72 H32      6.0444  -4.5634   7.6004   H         3 RES3   0.0000
    73 N7       0.9693   3.0943  11.2875   N.1       4 RES4   0.0000
    74 C20     -0.0373   3.2358  10.8018   C.1       4 RES4   0.0000
    75 C21     -1.3496   3.4457  10.1970   C.3       4 RES4   0.0000
    76 H33     -2.0380   3.0272  10.7569   H         4 RES4   0.0000
    77 H34     -1.3660   3.0443   9.3035   H         4 RES4   0.0000
    78 H35     -1.5264   4.4072  10.1268   H         4 RES4   0.0000
@<TRIPOS>BOND
     1     1     2    1
     2     3     1    1
     3     4     1    1
     4     5     1    1
     5     6     1    1
     6     7     1    1
     7     8     9    1
     8    10     8    1
     9    11     8    1
    10    12     8    1
    11    13     8    1
    12    14     8    1
    13    15    16    1
    14    16    17   ar
    15    17    19    1
    16    18    15    1
    17    19    20    1
    18    21    19    1
    19    22    19    1
    20    23    15    1
    21    24    17   ar
    22    25    24    1
    23    26    15    1
    24    27    24   ar
    25    28    27    1
    26    29    15    1
    27    30    27   ar
    28    31    30    1
    29    32    15    1
    30    33    16   ar
    31    34    18    1
    32    35    34    1
    33    36    34    1
    34    37    18    1
    35    38    37    1
    36    39    37    1
    37    40    23    1
    38    41    40    1
    39    42    40    1
    40    43    23    1
    41    44    43    1
    42    45    43    1
    43    46    43    1
    44    47    23    1
    45    48    47    1
    46    49    47    1
    47    50    26    1
    48    51    50    1
    49    52    50    1
    50    53    26    1
    51    54    53    1
    52    55    53    1
    53    56    53    1
    54    57    26    1
    55    58    57    1
    56    59    57    1
    57    60    18    1
    58    61    60    1
    59    62    60    1
    60    63    29    3
    61    64    63    1
    62    65    64    1
    63    66    64    1
    64    67    64    1
    65    68    32    3
    66    69    68    1
    67    70    69    1
    68    71    69    1
    69    72    69    1
    70    30    33   ar
    71    33    34    1
    72    37    40    1
    73    47    50    1
    74    57    60    1
    75    73    74    3
    76    74    75    1
    77    75    76    1
    78    77    75    1
    79    78    75    1
@<TRIPOS>SUBSTRUCTURE
     1 RES1        1 GROUP             0 ****  ****    0  
     2 RES2        8 GROUP             0 ****  ****    0  
     3 RES3       15 GROUP             0 ****  ****    0  
     4 RES4       73 GROUP             0 ****  ****    0  
@<TRIPOS>CRYSIN
   13.0482   12.2015   19.8750   90.0000  101.0230   90.0000   231     1
