@<TRIPOS>MOLECULE
MIRJUU
    82    89     2     0     0
SMALL
USER_CHARGES
****
Generated from the CSD

@<TRIPOS>ATOM
     1 C1      -0.0480   3.9461   8.1756   C.ar      1 RES1   0.0000
     2 C2      -0.5424   4.6797   7.0736   C.ar      1 RES1   0.0000
     3 H1      -0.4844   4.3532   6.2758   H         1 RES1   0.0000
     4 C3      -1.1571   5.8812   7.2352   C.ar      1 RES1   0.0000
     5 H2      -1.4688   6.3529   6.4717   H         1 RES1   0.0000
     6 C4      -1.3400   6.4393   8.5141   C.ar      1 RES1   0.0000
     7 C5      -1.9897   7.6934   8.6960   C.ar      1 RES1   0.0000
     8 H3      -2.3096   8.1709   7.9402   H         1 RES1   0.0000
     9 C6      -2.1549   8.2139   9.9430   C.ar      1 RES1   0.0000
    10 H4      -2.5842   9.0541  10.0537   H         1 RES1   0.0000
    11 C7      -1.6896   7.5067  11.0692   C.ar      1 RES1   0.0000
    12 H5      -1.8112   7.8709  11.9383   H         1 RES1   0.0000
    13 C8      -1.0640   6.3011  10.9190   C.ar      1 RES1   0.0000
    14 H6      -0.7590   5.8351  11.6876   H         1 RES1   0.0000
    15 C9      -0.8614   5.7323   9.6313   C.ar      1 RES1   0.0000
    16 C10     -0.1983   4.4595   9.4519   C.ar      1 RES1   0.0000
    17 C11      0.3859   3.8722  10.7065   C.ar      1 RES1   0.0000
    18 C12      1.5657   4.5336  11.1913   C.ar      1 RES1   0.0000
    19 C13      2.2490   5.5200  10.4240   C.ar      1 RES1   0.0000
    20 H7       1.9079   5.7698   9.5727   H         1 RES1   0.0000
    21 C14      3.3901   6.1142  10.8910   C.ar      1 RES1   0.0000
    22 H8       3.8368   6.7621  10.3591   H         1 RES1   0.0000
    23 C15      3.9070   5.7716  12.1546   C.ar      1 RES1   0.0000
    24 H9       4.6962   6.1947  12.4727   H         1 RES1   0.0000
    25 C16      3.2812   4.8394  12.9219   C.ar      1 RES1   0.0000
    26 H10      3.6379   4.6188  13.7744   H         1 RES1   0.0000
    27 C17      2.0995   4.1915  12.4625   C.ar      1 RES1   0.0000
    28 C18      1.4160   3.2221  13.2311   C.ar      1 RES1   0.0000
    29 H11      1.7280   3.0223  14.1053   H         1 RES1   0.0000
    30 C19      0.3187   2.5676  12.7488   C.ar      1 RES1   0.0000
    31 H12     -0.0817   1.9103  13.3201   H         1 RES1   0.0000
    32 C20     -0.1971   2.8674  11.4585   C.ar      1 RES1   0.0000
    33 C21      0.4857   2.1467   6.5494   C.3       1 RES1   0.0000
    34 H13     -0.2942   2.4575   6.1651   H         1 RES1   0.0000
    35 H14      1.2354   2.4330   6.0238   H         1 RES1   0.0000
    36 C22      0.4068   0.6316   6.4438   C.2       1 RES1   0.0000
    37 C23      1.9044   2.4313   8.5395   C.3       1 RES1   0.0000
    38 H15      2.2354   3.3048   8.8665   H         1 RES1   0.0000
    39 H16      2.5141   2.1319   7.8180   H         1 RES1   0.0000
    40 C24      1.9705   1.4213   9.6847   C.2       1 RES1   0.0000
    41 C25     -2.5592   2.8992  10.6556   C.3       1 RES1   0.0000
    42 H17     -2.4288   3.8165  11.0043   H         1 RES1   0.0000
    43 H18     -3.3219   2.4972  11.1430   H         1 RES1   0.0000
    44 C26     -2.9029   2.9780   9.1796   C.2       1 RES1   0.0000
    45 C27     -1.6382   0.8918  11.7588   C.3       1 RES1   0.0000
    46 H19     -0.8041   0.5204  12.0859   H         1 RES1   0.0000
    47 H20     -2.1420   1.0436  12.4803   H         1 RES1   0.0000
    48 C28     -2.2667  -0.2278  10.9470   C.2       1 RES1   0.0000
    49 Fe1     -0.7721   1.0786   8.9504   Fe        1 RES1   0.0000
    50 N1       0.5304   2.6237   7.9594   N.3       1 RES1   0.0000
    51 N2      -1.3192   2.0897  10.9319   N.3       1 RES1   0.0000
    52 O1      -0.3643   0.0693   7.3226   O.co2     1 RES1  -1.0000
    53 O2       0.9622   0.0428   5.5443   O.co2     1 RES1   0.0000
    54 O3       0.9083   0.6887   9.8621   O.co2     1 RES1   0.0000
    55 O4       2.9998   1.3087  10.3226   O.co2     1 RES1   0.0000
    56 O5      -2.2939   2.1276   8.3957   O.co2     1 RES1   0.0000
    57 O6      -3.7310   3.7851   8.8020   O.co2     1 RES1   0.0000
    58 O7      -1.8338  -0.3598   9.7452   O.co2     1 RES1   0.0000
    59 O8      -3.0630  -1.0046  11.4513   O.co2     1 RES1   0.0000
    60 C29      4.3969  -3.9427   9.5944   C.3       2 RES2   0.0000
    61 H21      3.7940  -4.3785   8.9403   H         2 RES2   0.0000
    62 H22      5.2572  -4.4306   9.5931   H         2 RES2   0.0000
    63 C30      3.7758  -4.0021  10.9788   C.3       2 RES2   0.0000
    64 H23      4.3386  -3.5086  11.6112   H         2 RES2   0.0000
    65 H24      3.7060  -4.9372  11.2651   H         2 RES2   0.0000
    66 H25      2.8817  -3.6008  10.9546   H         2 RES2   0.0000
    67 C31      5.4801  -2.4537   7.9364   C.3       2 RES2   0.0000
    68 H26      5.0078  -2.9502   7.2225   H         2 RES2   0.0000
    69 H27      5.5596  -1.5129   7.6411   H         2 RES2   0.0000
    70 C32      6.8287  -3.0107   8.0712   C.3       2 RES2   0.0000
    71 H28      7.2181  -2.7205   8.9225   H         2 RES2   0.0000
    72 H29      7.3890  -2.6953   7.3319   H         2 RES2   0.0000
    73 H30      6.7815  -3.9895   8.0496   H         2 RES2   0.0000
    74 C33      3.4200  -1.6840   9.1236   C.3       2 RES2   0.0000
    75 H31      3.6769  -0.7418   8.9556   H         2 RES2   0.0000
    76 H32      2.9735  -1.7183  10.0054   H         2 RES2   0.0000
    77 C34      2.4355  -2.1047   8.0725   C.3       2 RES2   0.0000
    78 H33      2.8095  -1.9266   7.1843   H         2 RES2   0.0000
    79 H34      1.6032  -1.5987   8.1832   H         2 RES2   0.0000
    80 H35      2.2499  -3.0626   8.1629   H         2 RES2   0.0000
    81 N3       4.6319  -2.4912   9.1846   N.4       2 RES2   1.0000
    82 H36      5.0988  -2.1052   9.8323   H         2 RES2   0.0000
@<TRIPOS>BOND
     1     1     2   ar
     2     2     3    1
     3     4     2   ar
     4     5     4    1
     5     6     4   ar
     6     7     6   ar
     7     8     7    1
     8     9     7   ar
     9    10     9    1
    10    11     9   ar
    11    12    11    1
    12    13    11   ar
    13    14    13    1
    14    15     6   ar
    15    16     1   ar
    16    17    16    1
    17    18    17   ar
    18    19    18   ar
    19    20    19    1
    20    21    19   ar
    21    22    21    1
    22    23    21   ar
    23    24    23    1
    24    25    23   ar
    25    26    25    1
    26    27    18   ar
    27    28    27   ar
    28    29    28    1
    29    30    28   ar
    30    31    30    1
    31    32    17   ar
    32    33    34    1
    33    35    33    1
    34    36    33    1
    35    37    38    1
    36    39    37    1
    37    40    37    1
    38    41    42    1
    39    43    41    1
    40    44    41    1
    41    45    46    1
    42    47    45    1
    43    48    45    1
    44    49    50    1
    45    50     1    1
    46    51    32    1
    47    52    36    1
    48    53    36    2
    49    54    40    1
    50    55    40    2
    51    56    44    1
    52    57    44    2
    53    58    48    1
    54    59    48    2
    55    13    15   ar
    56    15    16   ar
    57    25    27   ar
    58    30    32   ar
    59    33    50    1
    60    37    50    1
    61    41    51    1
    62    45    51    1
    63    49    51    1
    64    49    52    1
    65    49    54    1
    66    49    56    1
    67    49    58    1
    68    60    61    1
    69    62    60    1
    70    63    60    1
    71    64    63    1
    72    65    63    1
    73    66    63    1
    74    67    68    1
    75    69    67    1
    76    70    67    1
    77    71    70    1
    78    72    70    1
    79    73    70    1
    80    74    75    1
    81    76    74    1
    82    77    74    1
    83    78    77    1
    84    79    77    1
    85    80    77    1
    86    81    60    1
    87    82    81    1
    88    67    81    1
    89    74    81    1
@<TRIPOS>SUBSTRUCTURE
     1 RES1        1 GROUP             0 ****  ****    0  
     2 RES2       60 GROUP             0 ****  ****    0  
@<TRIPOS>CRYSIN
    8.6072   13.7802   14.2404  113.1400   97.9810  100.9000     2     1
