@<TRIPOS>MOLECULE
MITJIM
    98   103     2     0     0
SMALL
USER_CHARGES
****
Generated from the CSD

@<TRIPOS>ATOM
     1 C1       5.6843  10.6104  17.2289   C.3       1 RES1   0.0000
     2 H1       6.2801  11.2364  17.7124   H         1 RES1   0.0000
     3 H2       5.3652  11.0642  16.4089   H         1 RES1   0.0000
     4 C2       6.4635   9.3698  16.8462   C.3       1 RES1   0.0000
     5 H3       7.2103   9.6197  16.2461   H         1 RES1   0.0000
     6 H4       6.8474   8.9558  17.6592   H         1 RES1   0.0000
     7 C3       3.5930  11.4223  18.1402   C.3       1 RES1   0.0000
     8 H5       4.1169  12.2589  18.2147   H         1 RES1   0.0000
     9 H6       3.0300  11.3445  18.9507   H         1 RES1   0.0000
    10 C4       2.7007  11.5081  16.9287   C.ar      1 RES1   0.0000
    11 C5       1.9561  12.6632  16.6860   C.ar      1 RES1   0.0000
    12 C6       1.0823  12.6449  15.6164   C.ar      1 RES1   0.0000
    13 C7       0.9804  11.5307  14.7913   C.ar      1 RES1   0.0000
    14 C8       1.7643  10.4507  15.1168   C.ar      1 RES1   0.0000
    15 H7       1.7080   9.6802  14.5645   H         1 RES1   0.0000
    16 C9       6.0342   7.0033  16.3997   C.3       1 RES1   0.0000
    17 H8       7.0237   6.9772  16.3909   H         1 RES1   0.0000
    18 H9       5.7076   6.4229  15.6673   H         1 RES1   0.0000
    19 C10      5.5360   6.4692  17.7147   C.ar      1 RES1   0.0000
    20 C11      6.1734   5.3937  18.3463   C.ar      1 RES1   0.0000
    21 C12      5.6115   4.9371  19.5343   C.ar      1 RES1   0.0000
    22 C13      4.4604   5.5158  20.0650   C.ar      1 RES1   0.0000
    23 C14      3.9074   6.5594  19.3503   C.ar      1 RES1   0.0000
    24 H10      3.1220   6.9691  19.6934   H         1 RES1   0.0000
    25 C15      5.5032   8.6349  14.7133   C.3       1 RES1   0.0000
    26 H11      6.3051   8.2590  14.2709   H         1 RES1   0.0000
    27 H12      5.4849   9.6096  14.5406   H         1 RES1   0.0000
    28 C16      4.2619   7.9962  14.1377   C.ar      1 RES1   0.0000
    29 C17      4.1372   7.8031  12.7638   C.ar      1 RES1   0.0000
    30 C18      2.9517   7.2251  12.3113   C.ar      1 RES1   0.0000
    31 C19      1.9492   6.8610  13.2002   C.ar      1 RES1   0.0000
    32 C20      2.1815   7.0930  14.5426   C.ar      1 RES1   0.0000
    33 H13      1.5093   6.8395  15.1641   H         1 RES1   0.0000
    34 C21      3.8048   5.0233  21.3218   C.3       1 RES1   0.0000
    35 H14      2.9524   5.4891  21.4499   H         1 RES1   0.0000
    36 H15      4.3916   5.1988  22.0868   H         1 RES1   0.0000
    37 H16      3.6425   4.0592  21.2494   H         1 RES1   0.0000
    38 C22      7.3069   4.0451  20.9344   C.3       1 RES1   0.0000
    39 H17      7.9614   4.5389  20.3974   H         1 RES1   0.0000
    40 H18      7.6874   3.1825  21.2012   H         1 RES1   0.0000
    41 H19      7.0823   4.5648  21.7345   H         1 RES1   0.0000
    42 C23      7.3747   4.7438  17.7192   C.3       1 RES1   0.0000
    43 H20      7.5922   3.9212  18.2055   H         1 RES1   0.0000
    44 H21      8.1370   5.3583  17.7594   H         1 RES1   0.0000
    45 H22      7.1781   4.5279  16.7837   H         1 RES1   0.0000
    46 C24      0.6557   6.2630  12.7288   C.3       1 RES1   0.0000
    47 H23      0.3643   6.7175  11.9111   H         1 RES1   0.0000
    48 H24     -0.0268   6.3709  13.4237   H         1 RES1   0.0000
    49 H25      0.7850   5.3090  12.5436   H         1 RES1   0.0000
    50 C25      3.2027   5.8628  10.3896   C.3       1 RES1   0.0000
    51 H26      4.1133   5.6798  10.7025   H         1 RES1   0.0000
    52 H27      3.2018   5.9363   9.4124   H         1 RES1   0.0000
    53 H28      2.6107   5.1306  10.6624   H         1 RES1   0.0000
    54 C26      5.2337   8.2062  11.8183   C.3       1 RES1   0.0000
    55 H29      5.9805   7.5761  11.8969   H         1 RES1   0.0000
    56 H30      5.5425   9.1085  12.0419   H         1 RES1   0.0000
    57 H31      4.8929   8.1953  10.8995   H         1 RES1   0.0000
    58 C27      0.0771  11.5174  13.5944   C.3       1 RES1   0.0000
    59 H32     -0.8397  11.7204  13.8750   H         1 RES1   0.0000
    60 H33      0.1020  10.6316  13.1760   H         1 RES1   0.0000
    61 H34      0.3785  12.1916  12.9503   H         1 RES1   0.0000
    62 C28     -0.9170  13.8284  15.9787   C.3       1 RES1   0.0000
    63 H35     -1.4716  13.0696  15.7023   H         1 RES1   0.0000
    64 H36     -1.3677  14.6661  15.7414   H         1 RES1   0.0000
    65 H37     -0.7779  13.7961  16.9482   H         1 RES1   0.0000
    66 C29      2.1179  13.8836  17.5504   C.3       1 RES1   0.0000
    67 H38      1.5137  14.5886  17.2367   H         1 RES1   0.0000
    68 H39      3.0439  14.2001  17.4991   H         1 RES1   0.0000
    69 H40      1.9011  13.6571  18.4790   H         1 RES1   0.0000
    70 C30      4.9619   9.9668  19.4639   C.3       1 RES1   0.0000
    71 H41      5.6004   9.2239  19.4454   H         1 RES1   0.0000
    72 H42      4.1849   9.7170  20.0060   H         1 RES1   0.0000
    73 H43      5.3915  10.7572  19.8535   H         1 RES1   0.0000
    74 C31     -0.4544   9.5219  18.5425   C.3       1 RES1   0.0000
    75 N1       4.5238  10.2738  18.0879   N.3       1 RES1   0.0000
    76 N2       5.5806   8.3929  16.1603   N.3       1 RES1   0.0000
    77 N3       3.3046   7.6573  15.0184   N.ar      1 RES1   0.0000
    78 N4       2.6058  10.4121  16.1642   N.ar      1 RES1   0.0000
    79 N5       4.4139   7.0305  18.1985   N.ar      1 RES1   0.0000
    80 O1       1.8564   8.4888  18.2261   O.3       1 RES1   0.0000
    81 O2       0.2231   7.2185  19.4411   O.2       1 RES1   0.0000
    82 O3       0.0100   7.5093  17.0360   O.2       1 RES1   0.0000
    83 O4       6.1312   3.8272  20.1655   O.3       1 RES1   0.0000
    84 O5       2.7395   7.0878  10.9604   O.3       1 RES1   0.0000
    85 O6       0.3417  13.7631  15.3162   O.3       1 RES1   0.0000
    86 F1      -0.0718  10.1478  19.6286   F         1 RES1   0.0000
    87 F2      -1.7438   9.2419  18.6808   F         1 RES1   0.0000
    88 F3      -0.3536  10.3477  17.5169   F         1 RES1   0.0000
    89 S1       0.4890   7.9957  18.2769   S.o2      1 RES1   0.0000
    90 Fe1      3.5485   8.6041  16.9864   Fe        1 RES1   1.0000
    91 C32      4.3435   3.0925  12.9690   C.3       2 RES2   0.0000
    92 O7       5.1102   3.8854  15.2664   O.3       2 RES2  -1.0000
    93 O8       6.6764   2.6913  13.8589   O.2       2 RES2   0.0000
    94 O9       6.0688   4.9569  13.3182   O.2       2 RES2   0.0000
    95 F4       3.2562   3.8527  13.0540   F         2 RES2   0.0000
    96 F5       3.9901   1.8665  13.3626   F         2 RES2   0.0000
    97 F6       4.6475   3.0108  11.6801   F         2 RES2   0.0000
    98 S2       5.7106   3.7382  13.9705   S.o2      2 RES2   0.0000
@<TRIPOS>BOND
     1     1     2    1
     2     3     1    1
     3     4     1    1
     4     5     4    1
     5     6     4    1
     6     7     8    1
     7     9     7    1
     8    10     7    1
     9    11    10   ar
    10    12    11   ar
    11    13    12   ar
    12    14    13   ar
    13    15    14    1
    14    16    17    1
    15    18    16    1
    16    19    16    1
    17    20    19   ar
    18    21    20   ar
    19    22    21   ar
    20    23    22   ar
    21    24    23    1
    22    25    26    1
    23    27    25    1
    24    28    25    1
    25    29    28   ar
    26    30    29   ar
    27    31    30   ar
    28    32    31   ar
    29    33    32    1
    30    34    22    1
    31    35    34    1
    32    36    34    1
    33    37    34    1
    34    38    39    1
    35    40    38    1
    36    41    38    1
    37    42    20    1
    38    43    42    1
    39    44    42    1
    40    45    42    1
    41    46    31    1
    42    47    46    1
    43    48    46    1
    44    49    46    1
    45    50    51    1
    46    52    50    1
    47    53    50    1
    48    54    29    1
    49    55    54    1
    50    56    54    1
    51    57    54    1
    52    58    13    1
    53    59    58    1
    54    60    58    1
    55    61    58    1
    56    62    63    1
    57    64    62    1
    58    65    62    1
    59    66    11    1
    60    67    66    1
    61    68    66    1
    62    69    66    1
    63    70    71    1
    64    72    70    1
    65    73    70    1
    66    74    86    1
    67    75     1    1
    68    76     4    1
    69    77    28   ar
    70    78    10   ar
    71    79    19   ar
    72    80    89    1
    73    81    89    2
    74    82    89    2
    75    83    21    1
    76    84    30    1
    77    85    12    1
    78    87    74    1
    79    88    74    1
    80    89    74    1
    81    90    75    1
    82     7    75    1
    83    14    78   ar
    84    16    76    1
    85    23    79   ar
    86    25    76    1
    87    32    77   ar
    88    38    83    1
    89    50    84    1
    90    62    85    1
    91    70    75    1
    92    76    90    1
    93    77    90    1
    94    78    90    1
    95    79    90    1
    96    80    90    1
    97    91    95    1
    98    92    98    1
    99    93    98    2
   100    94    98    2
   101    96    91    1
   102    97    91    1
   103    98    91    1
@<TRIPOS>SUBSTRUCTURE
     1 RES1        1 GROUP             0 ****  ****    0  
     2 RES2       91 GROUP             0 ****  ****    0  
@<TRIPOS>CRYSIN
   19.5834    9.5067   22.4103   90.0000  113.2780   90.0000   231     1
