@<TRIPOS>MOLECULE
MITJEI
    78    83     2     0     0
SMALL
USER_CHARGES
****
Generated from the CSD

@<TRIPOS>ATOM
     1 C1       5.6746   4.8090   3.2200   C.ar      1 RES1   0.0000
     2 H1       5.0930   5.2875   3.7989   H         1 RES1   0.0000
     3 C2       6.8405   5.4182   2.8026   C.ar      1 RES1   0.0000
     4 H2       7.0572   6.2963   3.0922   H         1 RES1   0.0000
     5 C3       7.6858   4.7291   1.9581   C.ar      1 RES1   0.0000
     6 H3       8.4867   5.1330   1.6451   H         1 RES1   0.0000
     7 C4       7.3525   3.4421   1.5728   C.ar      1 RES1   0.0000
     8 H4       7.9313   2.9434   1.0080   H         1 RES1   0.0000
     9 C5       6.1637   2.8911   2.0220   C.ar      1 RES1   0.0000
    10 C6       5.7282   1.5033   1.6092   C.3       1 RES1   0.0000
    11 H5       5.2572   1.5430   0.7394   H         1 RES1   0.0000
    12 H6       6.5203   0.9182   1.5074   H         1 RES1   0.0000
    13 C7       3.3938   4.4510   0.4898   C.ar      1 RES1   0.0000
    14 H7       4.1566   4.8657   0.8752   H         1 RES1   0.0000
    15 C8       2.9440   4.9125  -0.7243   C.ar      1 RES1   0.0000
    16 H8       3.3761   5.6393  -1.1574   H         1 RES1   0.0000
    17 C9       1.8495   4.2963  -1.3009   C.ar      1 RES1   0.0000
    18 H9       1.5297   4.5772  -2.1503   H         1 RES1   0.0000
    19 C10      1.2292   3.2692  -0.6234   C.ar      1 RES1   0.0000
    20 H10      0.4726   2.8340  -0.9986   H         1 RES1   0.0000
    21 C11      1.7225   2.8773   0.6112   C.ar      1 RES1   0.0000
    22 C12      1.0261   1.8292   1.4385   C.3       1 RES1   0.0000
    23 H11      0.3379   2.2623   2.0033   H         1 RES1   0.0000
    24 H12      0.5691   1.1887   0.8377   H         1 RES1   0.0000
    25 C13      4.0637  -0.2313   2.1903   C.3       1 RES1   0.0000
    26 H13      3.8228  -0.7878   2.9728   H         1 RES1   0.0000
    27 H14      4.6261  -0.7777   1.5858   H         1 RES1   0.0000
    28 C14      2.8043   0.1938   1.4640   C.3       1 RES1   0.0000
    29 H15      3.0507   0.6580   0.6248   H         1 RES1   0.0000
    30 H16      2.2762  -0.6086   1.2257   H         1 RES1   0.0000
    31 C15      1.2126   0.3424   3.3234   C.3       1 RES1   0.0000
    32 H17      0.6962   0.9670   3.8741   H         1 RES1   0.0000
    33 H18      1.8356  -0.1566   3.8923   H         1 RES1   0.0000
    34 H19      0.6025  -0.2839   2.8803   H         1 RES1   0.0000
    35 C16      5.6021   0.6405   3.8649   C.3       1 RES1   0.0000
    36 H20      6.3215   1.3107   3.9829   H         1 RES1   0.0000
    37 H21      6.0239  -0.2497   3.7699   H         1 RES1   0.0000
    38 C17      4.7063   0.6465   5.0747   C.ar      1 RES1   0.0000
    39 C18      4.9057  -0.2112   6.1545   C.ar      1 RES1   0.0000
    40 C19      3.9975  -0.1208   7.2095   C.ar      1 RES1   0.0000
    41 C20      2.9941   0.8438   7.2294   C.ar      1 RES1   0.0000
    42 C21      2.9162   1.6607   6.1187   C.ar      1 RES1   0.0000
    43 H22      2.2473   2.3356   6.1109   H         1 RES1   0.0000
    44 C22      6.0474  -1.1940   6.2024   C.3       1 RES1   0.0000
    45 H23      5.7619  -2.0458   5.8108   H         1 RES1   0.0000
    46 H24      6.3168  -1.3365   7.1337   H         1 RES1   0.0000
    47 H25      6.8058  -0.8385   5.6936   H         1 RES1   0.0000
    48 C23      3.3094  -2.1299   8.1681   C.3       1 RES1   0.0000
    49 H26      2.3743  -1.8468   8.0967   H         1 RES1   0.0000
    50 H27      3.4228  -2.6855   8.9675   H         1 RES1   0.0000
    51 H28      3.5561  -2.6473   7.3732   H         1 RES1   0.0000
    52 C24      2.0516   1.0263   8.3859   C.3       1 RES1   0.0000
    53 H29      1.5174   1.8358   8.2477   H         1 RES1   0.0000
    54 H30      2.5656   1.1114   9.2160   H         1 RES1   0.0000
    55 H31      1.4571   0.2493   8.4484   H         1 RES1   0.0000
    56 C25      0.4564   5.2827   5.3580   C.3       1 RES1   0.0000
    57 N1       5.3275   3.5638   2.8395   N.ar      1 RES1   0.0000
    58 N2       4.8292   0.9553   2.6421   N.3       1 RES1   0.0000
    59 N3       1.9745   1.0981   2.3001   N.3       1 RES1   0.0000
    60 N4       2.8090   3.4399   1.1616   N.ar      1 RES1   0.0000
    61 N5       3.7227   1.5663   5.0483   N.ar      1 RES1   0.0000
    62 O1       2.0432   3.7974   4.0959   O.3       1 RES1   0.0000
    63 O2       2.7621   6.0491   4.5650   O.2       1 RES1   0.0000
    64 O3       1.0772   5.6563   2.9044   O.2       1 RES1   0.0000
    65 O4       4.1426  -0.9881   8.2653   O.3       1 RES1   0.0000
    66 F1      -0.5848   4.5423   5.0249   F         1 RES1   0.0000
    67 F2       0.8848   4.8203   6.5097   F         1 RES1   0.0000
    68 F3       0.0427   6.5192   5.5524   F         1 RES1   0.0000
    69 S1       1.7177   5.2148   4.0849   S.o2      1 RES1   0.0000
    70 Fe1      3.4127   2.5713   3.1346   Fe        1 RES1   1.0000
    71 C26     11.2231   8.7865   2.7323   C.3       2 RES2   0.0000
    72 O5       8.7440   8.2903   3.2585   O.2       2 RES2   0.0000
    73 O6       9.7954   7.1211   1.4290   O.2       2 RES2   0.0000
    74 O7       9.2862   9.4588   1.1964   O.3       2 RES2  -1.0000
    75 F4      11.2333   9.9640   3.3430   F         2 RES2   0.0000
    76 F5      12.1000   8.8925   1.7425   F         2 RES2   0.0000
    77 F6      11.6802   7.8914   3.5636   F         2 RES2   0.0000
    78 S2       9.5679   8.3686   2.0887   S.o2      2 RES2   0.0000
@<TRIPOS>BOND
     1     1     2    1
     2     3     1   ar
     3     4     3    1
     4     5     3   ar
     5     6     5    1
     6     7     5   ar
     7     8     7    1
     8     9     7   ar
     9    10     9    1
    10    11    10    1
    11    12    10    1
    12    13    14    1
    13    15    13   ar
    14    16    15    1
    15    17    15   ar
    16    18    17    1
    17    19    17   ar
    18    20    19    1
    19    21    19   ar
    20    22    21    1
    21    23    22    1
    22    24    22    1
    23    25    26    1
    24    27    25    1
    25    28    25    1
    26    29    28    1
    27    30    28    1
    28    31    32    1
    29    33    31    1
    30    34    31    1
    31    35    36    1
    32    37    35    1
    33    38    35    1
    34    39    38   ar
    35    40    39   ar
    36    41    40   ar
    37    42    41   ar
    38    43    42    1
    39    44    39    1
    40    45    44    1
    41    46    44    1
    42    47    44    1
    43    48    49    1
    44    50    48    1
    45    51    48    1
    46    52    41    1
    47    53    52    1
    48    54    52    1
    49    55    52    1
    50    56    66    1
    51    57     1   ar
    52    58    10    1
    53    59    22    1
    54    60    13   ar
    55    61    38   ar
    56    62    69    1
    57    63    69    2
    58    64    69    2
    59    65    40    1
    60    67    56    1
    61    68    56    1
    62    69    56    1
    63    70    57    1
    64     9    57   ar
    65    21    60   ar
    66    25    58    1
    67    28    59    1
    68    31    59    1
    69    35    58    1
    70    42    61   ar
    71    48    65    1
    72    58    70    1
    73    59    70    1
    74    60    70    1
    75    61    70    1
    76    62    70    1
    77    71    75    1
    78    72    78    2
    79    73    78    2
    80    74    78    1
    81    76    71    1
    82    77    71    1
    83    78    71    1
@<TRIPOS>SUBSTRUCTURE
     1 RES1        1 GROUP             0 ****  ****    0  
     2 RES2       71 GROUP             0 ****  ****    0  
@<TRIPOS>CRYSIN
   13.9936    8.6900   27.1936   90.0000   98.0260   90.0000    14     1
