@<TRIPOS>MOLECULE
MIVNIS
    79    85     4     0     0
SMALL
USER_CHARGES
****
Generated from the CSD

@<TRIPOS>ATOM
     1 Fe1      5.2167   4.3352  37.2269   Fe        1 RES1   2.0000
     2 N1       3.4788   3.5192  36.7493   N.ar      1 RES1   0.0000
     3 N2       5.5422   4.0226  35.4180   N.ar      1 RES1   0.0000
     4 N3       7.0375   5.0806  37.1138   N.ar      1 RES1   0.0000
     5 N4       5.8785   2.6194  37.9876   N.ar      1 RES1   0.0000
     6 N5       4.8433   4.6483  39.0434   N.ar      1 RES1   0.0000
     7 N6       4.4701   6.1656  37.0768   N.ar      1 RES1   0.0000
     8 C1       2.4172   3.3098  37.5653   C.ar      1 RES1   0.0000
     9 H1       2.4778   3.5831  38.4528   H         1 RES1   0.0000
    10 C2       1.2547   2.7093  37.1379   C.ar      1 RES1   0.0000
    11 H2       0.5470   2.5718  37.7254   H         1 RES1   0.0000
    12 C3       1.1625   2.3174  35.8170   C.ar      1 RES1   0.0000
    13 H3       0.3890   1.9021  35.5088   H         1 RES1   0.0000
    14 C4       2.2100   2.5367  34.9545   C.ar      1 RES1   0.0000
    15 H4       2.1415   2.2922  34.0583   H         1 RES1   0.0000
    16 C5       3.3805   3.1327  35.4365   C.ar      1 RES1   0.0000
    17 C6       4.5746   3.4383  34.6596   C.ar      1 RES1   0.0000
    18 C7       4.7748   3.2001  33.3034   C.ar      1 RES1   0.0000
    19 H5       4.1154   2.7983  32.7843   H         1 RES1   0.0000
    20 C8       5.9917   3.5795  32.7452   C.ar      1 RES1   0.0000
    21 H6       6.1551   3.4159  31.8460   H         1 RES1   0.0000
    22 C9       6.9602   4.1961  33.5139   C.ar      1 RES1   0.0000
    23 H7       7.7636   4.4640  33.1287   H         1 RES1   0.0000
    24 C10      6.7249   4.4119  34.8580   C.ar      1 RES1   0.0000
    25 C11      7.5801   5.0528  35.8454   C.ar      1 RES1   0.0000
    26 C12      8.8138   5.6164  35.5682   C.ar      1 RES1   0.0000
    27 H8       9.1720   5.5777  34.7126   H         1 RES1   0.0000
    28 C13      9.4986   6.2366  36.5887   C.ar      1 RES1   0.0000
    29 H9      10.3205   6.6358  36.4170   H         1 RES1   0.0000
    30 C14      8.9771   6.2699  37.8619   C.ar      1 RES1   0.0000
    31 H10      9.4433   6.6753  38.5561   H         1 RES1   0.0000
    32 C15      7.7364   5.6820  38.0831   C.ar      1 RES1   0.0000
    33 H11      7.3773   5.7072  38.9392   H         1 RES1   0.0000
    34 C16      6.4290   1.5875  37.3252   C.ar      1 RES1   0.0000
    35 H12      6.5028   1.6405  36.3998   H         1 RES1   0.0000
    36 C17      6.8873   0.4557  37.9570   C.ar      1 RES1   0.0000
    37 H13      7.2561  -0.2427  37.4672   H         1 RES1   0.0000
    38 C18      6.7925   0.3686  39.3395   C.ar      1 RES1   0.0000
    39 H14      7.1104  -0.3793  39.7914   H         1 RES1   0.0000
    40 C19      6.2174   1.4122  40.0320   C.ar      1 RES1   0.0000
    41 H15      6.1340   1.3681  40.9578   H         1 RES1   0.0000
    42 C20      5.7643   2.5250  39.3494   C.ar      1 RES1   0.0000
    43 C21      5.1181   3.6954  39.9692   C.ar      1 RES1   0.0000
    44 C22      4.7783   3.8653  41.2940   C.ar      1 RES1   0.0000
    45 H16      4.9706   3.2091  41.9219   H         1 RES1   0.0000
    46 C23      4.1382   5.0510  41.6658   C.ar      1 RES1   0.0000
    47 H17      3.8967   5.1885  42.5546   H         1 RES1   0.0000
    48 C24      3.8651   6.0119  40.7293   C.ar      1 RES1   0.0000
    49 H18      3.4358   6.8012  40.9707   H         1 RES1   0.0000
    50 C25      4.2392   5.7854  39.4195   C.ar      1 RES1   0.0000
    51 C26      4.0513   6.7041  38.2669   C.ar      1 RES1   0.0000
    52 C27      3.5297   7.9850  38.3293   C.ar      1 RES1   0.0000
    53 H19      3.2329   8.3329  39.1372   H         1 RES1   0.0000
    54 C28      3.4568   8.7383  37.1780   C.ar      1 RES1   0.0000
    55 H20      3.1127   9.6022  37.2089   H         1 RES1   0.0000
    56 C29      3.8862   8.2187  35.9952   C.ar      1 RES1   0.0000
    57 H21      3.8265   8.7167  35.2118   H         1 RES1   0.0000
    58 C30      4.4148   6.9378  35.9741   C.ar      1 RES1   0.0000
    59 H22      4.7432   6.5998  35.1731   H         1 RES1   0.0000
    60 P1       7.2182  -0.2923  33.5518   P.3       2 RES2  -1.0000
    61 F1       6.8557  -1.7646  33.0981   F         2 RES2   0.0000
    62 F2       8.7541  -0.6517  33.5905   F         2 RES2   0.0000
    63 F3       7.5046   1.1848  34.0502   F         2 RES2   0.0000
    64 F4       5.6572   0.0755  33.5221   F         2 RES2   0.0000
    65 F5       7.1077  -0.7515  35.0814   F         2 RES2   0.0000
    66 F6       7.3035   0.1645  32.0238   F         2 RES2   0.0000
    67 P2       1.5532   1.2734  41.0004   P.3       3 RES3  -1.0000
    68 F7       1.9712  -0.1564  41.6056   F         3 RES3   0.0000
    69 F8       3.0169   1.4131  40.3385   F         3 RES3   0.0000
    70 F9       1.1283   2.6949  40.3742   F         3 RES3   0.0000
    71 F10      0.1071   1.1335  41.6559   F         3 RES3   0.0000
    72 F11      1.0361   0.5411  39.6662   F         3 RES3   0.0000
    73 F12      2.0932   1.9965  42.3304   F         3 RES3   0.0000
    74 N7       7.5652   6.4371  41.3891   N.1       4 RES4   0.0000
    75 C31      8.2448   5.7584  41.9615   C.1       4 RES4   0.0000
    76 C32      9.1887   4.9449  42.7414   C.3       4 RES4   0.0000
    77 H23      9.7620   5.5211  43.2519   H         4 RES4   0.0000
    78 H24      9.7199   4.4119  42.1457   H         4 RES4   0.0000
    79 H25      8.7014   4.3705  43.3380   H         4 RES4   0.0000
@<TRIPOS>BOND
     1     1     2    1
     2     2     8   ar
     3     3     1    1
     4     4     1    1
     5     5     1    1
     6     6     1    1
     7     7     1    1
     8     8     9    1
     9    10     8   ar
    10    11    10    1
    11    12    10   ar
    12    13    12    1
    13    14    12   ar
    14    15    14    1
    15    16     2   ar
    16    17     3   ar
    17    18    17   ar
    18    19    18    1
    19    20    18   ar
    20    21    20    1
    21    22    20   ar
    22    23    22    1
    23    24     3   ar
    24    25     4   ar
    25    26    25   ar
    26    27    26    1
    27    28    26   ar
    28    29    28    1
    29    30    28   ar
    30    31    30    1
    31    32     4   ar
    32    33    32    1
    33    34     5   ar
    34    35    34    1
    35    36    34   ar
    36    37    36    1
    37    38    36   ar
    38    39    38    1
    39    40    38   ar
    40    41    40    1
    41    42     5   ar
    42    43     6   ar
    43    44    43   ar
    44    45    44    1
    45    46    44   ar
    46    47    46    1
    47    48    46   ar
    48    49    48    1
    49    50     6   ar
    50    51     7   ar
    51    52    51   ar
    52    53    52    1
    53    54    52   ar
    54    55    54    1
    55    56    54   ar
    56    57    56    1
    57    58     7   ar
    58    59    58    1
    59    14    16   ar
    60    16    17    1
    61    22    24   ar
    62    24    25    1
    63    30    32   ar
    64    40    42   ar
    65    42    43    1
    66    48    50   ar
    67    50    51    1
    68    56    58   ar
    69    60    61    1
    70    62    60    1
    71    63    60    1
    72    64    60    1
    73    65    60    1
    74    66    60    1
    75    67    68    1
    76    69    67    1
    77    70    67    1
    78    71    67    1
    79    72    67    1
    80    73    67    1
    81    74    75    3
    82    75    76    1
    83    76    77    1
    84    78    76    1
    85    79    76    1
@<TRIPOS>SUBSTRUCTURE
     1 RES1        1 GROUP             0 ****  ****    0  
     2 RES2       60 GROUP             0 ****  ****    0  
     3 RES3       67 GROUP             0 ****  ****    0  
     4 RES4       74 GROUP             0 ****  ****    0  
@<TRIPOS>CRYSIN
    8.7804    8.9891   43.0410   90.0000   90.0000   90.0000    19     1
