@<TRIPOS>MOLECULE
MIVPEQ
    97   103     4     0     0
SMALL
USER_CHARGES
****
Generated from the CSD

@<TRIPOS>ATOM
     1 Fe1      2.9193  20.6719  10.6495   Fe        1 RES1   2.0000
     2 N1       3.3876  19.2258  11.9104   N.ar      1 RES1   0.0000
     3 N2       1.4040  20.7330  11.7662   N.ar      1 RES1   0.0000
     4 N3       1.8893  22.0702   9.6924   N.ar      1 RES1   0.0000
     5 N4      -1.6003  21.3529  14.5471   N.pl3     1 RES1   0.0000
     6 N5       2.4392  19.3090   9.3102   N.ar      1 RES1   0.0000
     7 N6       4.4420  20.7829   9.5454   N.ar      1 RES1   0.0000
     8 N7       3.9587  21.9935  11.6976   N.ar      1 RES1   0.0000
     9 N8       7.4352  21.5856   6.8038   N.pl3     1 RES1   0.0000
    10 C1       4.4374  18.3834  11.8068   C.ar      1 RES1   0.0000
    11 H1       5.0610  18.5224  11.1319   H         1 RES1   0.0000
    12 C2       4.6139  17.3108  12.6806   C.ar      1 RES1   0.0000
    13 H2       5.3415  16.7397  12.5825   H         1 RES1   0.0000
    14 C3       3.6955  17.1072  13.6957   C.ar      1 RES1   0.0000
    15 H3       3.7943  16.3921  14.2824   H         1 RES1   0.0000
    16 C4       2.6251  17.9836  13.8273   C.ar      1 RES1   0.0000
    17 H4       2.0048  17.8719  14.5107   H         1 RES1   0.0000
    18 C5       2.4953  19.0245  12.9228   C.ar      1 RES1   0.0000
    19 C6       1.3687  19.9923  12.9116   C.ar      1 RES1   0.0000
    20 C7       0.4088  20.1852  13.8694   C.ar      1 RES1   0.0000
    21 H5       0.4183  19.6795  14.6493   H         1 RES1   0.0000
    22 C8      -0.5997  21.1618  13.6649   C.ar      1 RES1   0.0000
    23 C9      -0.5240  21.9347  12.4789   C.ar      1 RES1   0.0000
    24 H6      -1.1486  22.6043  12.3151   H         1 RES1   0.0000
    25 C10      0.4745  21.6886  11.5758   C.ar      1 RES1   0.0000
    26 C11      0.7124  22.4131  10.3057   C.ar      1 RES1   0.0000
    27 C12     -0.1635  23.3194   9.7555   C.ar      1 RES1   0.0000
    28 H7      -0.9530  23.5354  10.1937   H         1 RES1   0.0000
    29 C13      0.1485  23.9078   8.5330   C.ar      1 RES1   0.0000
    30 H8      -0.4360  24.5162   8.1382   H         1 RES1   0.0000
    31 C14      1.3400  23.5801   7.9169   C.ar      1 RES1   0.0000
    32 H9       1.5726  23.9699   7.1048   H         1 RES1   0.0000
    33 C15      2.1793  22.6689   8.5148   C.ar      1 RES1   0.0000
    34 H10      2.9794  22.4553   8.0920   H         1 RES1   0.0000
    35 C16     -1.6173  20.6528  15.8269   C.3       1 RES1   0.0000
    36 H11     -1.7077  19.7093  15.6743   H         1 RES1   0.0000
    37 H12     -2.3580  20.9631  16.3534   H         1 RES1   0.0000
    38 H13     -0.7968  20.8241  16.2960   H         1 RES1   0.0000
    39 C17     -2.6950  22.2716  14.2278   C.3       1 RES1   0.0000
    40 H14     -3.3585  22.2319  14.9209   H         1 RES1   0.0000
    41 H15     -3.0906  22.0184  13.3905   H         1 RES1   0.0000
    42 H16     -2.3532  23.1655  14.1648   H         1 RES1   0.0000
    43 C18      1.3946  18.4594   9.3592   C.ar      1 RES1   0.0000
    44 H17      0.7594  18.5671  10.0299   H         1 RES1   0.0000
    45 C19      1.2326  17.4300   8.4462   C.ar      1 RES1   0.0000
    46 H18      0.5110  16.8490   8.5190   H         1 RES1   0.0000
    47 C20      2.1523  17.2735   7.4269   C.ar      1 RES1   0.0000
    48 H19      2.0553  16.5907   6.8052   H         1 RES1   0.0000
    49 C21      3.2241  18.1570   7.3470   C.ar      1 RES1   0.0000
    50 H20      3.8516  18.0755   6.6665   H         1 RES1   0.0000
    51 C22      3.3439  19.1514   8.2866   C.ar      1 RES1   0.0000
    52 C23      4.4746  20.1088   8.3692   C.ar      1 RES1   0.0000
    53 C24      5.4386  20.3506   7.4171   C.ar      1 RES1   0.0000
    54 H21      5.4294  19.8905   6.6077   H         1 RES1   0.0000
    55 C25      6.4492  21.3107   7.6873   C.ar      1 RES1   0.0000
    56 C26      6.3900  21.9968   8.9251   C.ar      1 RES1   0.0000
    57 H22      7.0241  22.6440   9.1323   H         1 RES1   0.0000
    58 C27      5.3981  21.7030   9.8129   C.ar      1 RES1   0.0000
    59 C28      5.1656  22.3262  11.1333   C.ar      1 RES1   0.0000
    60 C29      6.0859  23.1302  11.7830   C.ar      1 RES1   0.0000
    61 H23      6.8973  23.3393  11.3811   H         1 RES1   0.0000
    62 C30      5.7789  23.6223  13.0488   C.ar      1 RES1   0.0000
    63 H24      6.3923  24.1462  13.5123   H         1 RES1   0.0000
    64 C31      4.5483  23.3244  13.6075   C.ar      1 RES1   0.0000
    65 H25      4.3144  23.6645  14.4406   H         1 RES1   0.0000
    66 C32      3.6669  22.5100  12.9060   C.ar      1 RES1   0.0000
    67 H26      2.8406  22.3138  13.2869   H         1 RES1   0.0000
    68 C33      8.5524  22.4280   7.1902   C.3       1 RES1   0.0000
    69 H27      8.2323  23.3070   7.4003   H         1 RES1   0.0000
    70 H28      9.1800  22.4802   6.4649   H         1 RES1   0.0000
    71 H29      8.9851  22.0531   7.9618   H         1 RES1   0.0000
    72 C34      7.4767  20.9110   5.4945   C.3       1 RES1   0.0000
    73 H30      7.6039  19.9675   5.6234   H         1 RES1   0.0000
    74 H31      8.2039  21.2636   4.9750   H         1 RES1   0.0000
    75 H32      6.6500  21.0600   5.0311   H         1 RES1   0.0000
    76 P1      -2.7462  19.1891  10.6169   P.3       2 RES2  -1.0000
    77 F1      -3.5619  20.3608  11.3195   F         2 RES2   0.0000
    78 F2      -1.7974  19.0870  11.8992   F         2 RES2   0.0000
    79 F3      -1.9351  17.9953   9.9123   F         2 RES2   0.0000
    80 F4      -3.6984  19.2770   9.3284   F         2 RES2   0.0000
    81 F5      -1.7582  20.2458   9.9515   F         2 RES2   0.0000
    82 F6      -3.7306  18.1036  11.2761   F         2 RES2   0.0000
    83 P2       2.9197  13.6741  10.5603   P.3       3 RES3  -1.0000
    84 F7       3.2375  14.4381  11.8950   F         3 RES3   0.0000
    85 F8       3.0002  12.3003  11.3167   F         3 RES3   0.0000
    86 F9       2.6244  12.8689   9.2304   F         3 RES3   0.0000
    87 F10      2.8347  15.0166   9.7737   F         3 RES3   0.0000
    88 F11      1.3567  13.7530  10.8714   F         3 RES3   0.0000
    89 F12      4.4893  13.5802  10.2329   F         3 RES3   0.0000
    90 O1       6.5757  14.2692  12.1457   O.3       4 RES4   0.0000
    91 C35      7.7972  13.9291  11.6556   C.3       4 RES4   0.0000
    92 H33      8.1111  13.2339  12.2563   H         4 RES4   0.0000
    93 H34      8.3532  14.7013  11.8376   H         4 RES4   0.0000
    94 C36      8.2264  13.4697  10.3043   C.3       4 RES4   0.0000
    95 H35      8.5115  12.5560  10.3520   H         4 RES4   0.0000
    96 H36      8.9532  14.0185   9.9977   H         4 RES4   0.0000
    97 H37      7.4902  13.5442   9.6924   H         4 RES4   0.0000
@<TRIPOS>BOND
     1     1     2    1
     2     2    10   ar
     3     3     1    1
     4     4     1    1
     5     5    22    1
     6     6     1    1
     7     7     1    1
     8     8     1    1
     9     9    55    1
    10    10    11    1
    11    12    10   ar
    12    13    12    1
    13    14    12   ar
    14    15    14    1
    15    16    14   ar
    16    17    16    1
    17    18     2   ar
    18    19     3   ar
    19    20    19   ar
    20    21    20    1
    21    22    20   ar
    22    23    22   ar
    23    24    23    1
    24    25     3   ar
    25    26     4   ar
    26    27    26   ar
    27    28    27    1
    28    29    27   ar
    29    30    29    1
    30    31    29   ar
    31    32    31    1
    32    33     4   ar
    33    34    33    1
    34    35     5    1
    35    36    35    1
    36    37    35    1
    37    38    35    1
    38    39     5    1
    39    40    39    1
    40    41    39    1
    41    42    39    1
    42    43     6   ar
    43    44    43    1
    44    45    43   ar
    45    46    45    1
    46    47    45   ar
    47    48    47    1
    48    49    47   ar
    49    50    49    1
    50    51     6   ar
    51    52     7   ar
    52    53    52   ar
    53    54    53    1
    54    55    53   ar
    55    56    55   ar
    56    57    56    1
    57    58     7   ar
    58    59     8   ar
    59    60    59   ar
    60    61    60    1
    61    62    60   ar
    62    63    62    1
    63    64    62   ar
    64    65    64    1
    65    66     8   ar
    66    67    66    1
    67    68     9    1
    68    69    68    1
    69    70    68    1
    70    71    68    1
    71    72     9    1
    72    73    72    1
    73    74    72    1
    74    75    72    1
    75    16    18   ar
    76    18    19    1
    77    23    25   ar
    78    25    26    1
    79    31    33   ar
    80    49    51   ar
    81    51    52    1
    82    56    58   ar
    83    58    59    1
    84    64    66   ar
    85    76    77    1
    86    78    76    1
    87    79    76    1
    88    80    76    1
    89    81    76    1
    90    82    76    1
    91    83    84    1
    92    85    83    1
    93    86    83    1
    94    87    83    1
    95    88    83    1
    96    89    83    1
    97    90    91    1
    98    91    92    1
    99    93    91    1
   100    94    91    1
   101    95    94    1
   102    96    94    1
   103    97    94    1
@<TRIPOS>SUBSTRUCTURE
     1 RES1        1 GROUP             0 ****  ****    0  
     2 RES2       76 GROUP             0 ****  ****    0  
     3 RES3       83 GROUP             0 ****  ****    0  
     4 RES4       90 GROUP             0 ****  ****    0  
@<TRIPOS>CRYSIN
   11.5293   24.8290   14.5542   90.0000  105.8280   90.0000   231     1
