@<TRIPOS>MOLECULE
MIWPIU
    77    83     1     0     0
SMALL
NO_CHARGES
****
Generated from the CSD

@<TRIPOS>ATOM
     1 Fe1      0.3860   4.1822  12.9818   Fe        1 RES1   0.0000
     2 N1       0.4889   2.1663  13.8792   N.3       1 RES1   0.0000
     3 N2      -1.4453   4.2746  14.3741   N.3       1 RES1   0.0000
     4 N3       1.2594   4.6066  14.9813   N.3       1 RES1   0.0000
     5 N4       2.5740   3.5501  12.6435   N.3       1 RES1   0.0000
     6 C1      -0.9430   1.8302  13.9867   C.3       1 RES1   0.0000
     7 H1      -1.0424   0.9341  14.3964   H         1 RES1   0.0000
     8 H2      -1.3452   1.8017  13.0820   H         1 RES1   0.0000
     9 C2      -1.6782   2.8678  14.8401   C.3       1 RES1   0.0000
    10 H3      -2.6492   2.6757  14.8163   H         1 RES1   0.0000
    11 H4      -1.3765   2.7843  15.7793   H         1 RES1   0.0000
    12 C3      -1.0955   5.1966  15.5045   C.3       1 RES1   0.0000
    13 H5      -1.2576   4.7291  16.3620   H         1 RES1   0.0000
    14 H6      -1.6929   5.9852  15.4726   H         1 RES1   0.0000
    15 C4       0.3619   5.6727  15.4628   C.3       1 RES1   0.0000
    16 H7       0.4344   6.4580  14.8642   H         1 RES1   0.0000
    17 H8       0.6416   5.9533  16.3705   H         1 RES1   0.0000
    18 C5       2.5982   5.0916  14.6156   C.3       1 RES1   0.0000
    19 H9       3.1044   5.3195  15.4366   H         1 RES1   0.0000
    20 H10      2.5152   5.9124  14.0674   H         1 RES1   0.0000
    21 C6       3.3557   4.0226  13.8261   C.3       1 RES1   0.0000
    22 H11      4.2204   4.3944  13.5190   H         1 RES1   0.0000
    23 H12      3.5485   3.2533  14.4187   H         1 RES1   0.0000
    24 C7       2.5549   2.0588  12.4783   C.3       1 RES1   0.0000
    25 H13      3.2428   1.6611  13.0683   H         1 RES1   0.0000
    26 H14      2.7956   1.8362  11.5432   H         1 RES1   0.0000
    27 C8       1.1908   1.4270  12.8068   C.3       1 RES1   0.0000
    28 H15      0.6287   1.4209  11.9922   H         1 RES1   0.0000
    29 H16      1.3248   0.4881  13.0906   H         1 RES1   0.0000
    30 C9       1.2068   2.0915  15.1751   C.3       1 RES1   0.0000
    31 H17      2.1236   1.7557  15.0150   H         1 RES1   0.0000
    32 H18      0.7458   1.4401  15.7605   H         1 RES1   0.0000
    33 C10      1.2908   3.4476  15.9065   C.3       1 RES1   0.0000
    34 H19      0.5333   3.5203  16.5402   H         1 RES1   0.0000
    35 H20      2.1287   3.4782  16.4339   H         1 RES1   0.0000
    36 C11     -2.5840   4.7951  13.5524   C.3       1 RES1   0.0000
    37 H21     -2.7112   4.1912  12.7787   H         1 RES1   0.0000
    38 H22     -2.3310   5.6837  13.1969   H         1 RES1   0.0000
    39 C12     -3.9113   4.9306  14.2759   C.ar      1 RES1   0.0000
    40 C13     -4.8410   3.8921  14.2701   C.ar      1 RES1   0.0000
    41 H23     -4.6592   3.1114  13.7606   H         1 RES1   0.0000
    42 C14     -6.0261   3.9699  14.9902   C.ar      1 RES1   0.0000
    43 H24     -6.6397   3.2443  14.9842   H         1 RES1   0.0000
    44 C15     -6.3069   5.1157  15.7192   C.ar      1 RES1   0.0000
    45 H25     -7.1066   5.1687  16.2300   H         1 RES1   0.0000
    46 C16     -5.4282   6.1777  15.7041   C.ar      1 RES1   0.0000
    47 H26     -5.6323   6.9691  16.1872   H         1 RES1   0.0000
    48 C17     -4.2402   6.0897  14.9797   C.ar      1 RES1   0.0000
    49 H27     -3.6458   6.8298  14.9653   H         1 RES1   0.0000
    50 C18      3.0011   4.2728  11.4218   C.3       1 RES1   0.0000
    51 H28      2.8766   5.2415  11.5877   H         1 RES1   0.0000
    52 H29      2.3818   4.0212  10.6915   H         1 RES1   0.0000
    53 C19      4.4252   4.0707  10.9096   C.ar      1 RES1   0.0000
    54 C20      4.8045   4.8872   9.8389   C.ar      1 RES1   0.0000
    55 H30      4.1949   5.5418   9.5176   H         1 RES1   0.0000
    56 C21      6.0463   4.7657   9.2352   C.ar      1 RES1   0.0000
    57 H31      6.2795   5.3246   8.5032   H         1 RES1   0.0000
    58 C22      6.9449   3.8236   9.7084   C.ar      1 RES1   0.0000
    59 H32      7.7954   3.7273   9.2966   H         1 RES1   0.0000
    60 C23      6.6002   3.0240  10.7818   C.ar      1 RES1   0.0000
    61 H33      7.2244   2.3895  11.1148   H         1 RES1   0.0000
    62 C24      5.3437   3.1384  11.3833   C.ar      1 RES1   0.0000
    63 H34      5.1160   2.5786  12.1172   H         1 RES1   0.0000
    64 C25     -0.5713   3.3168  10.1858   C.2       1 RES1   0.0000
    65 C26     -1.8112   3.2484   9.3247   C.3       1 RES1   0.0000
    66 H35     -1.9773   4.1260   8.9213   H         1 RES1   0.0000
    67 H36     -2.5787   2.9913   9.8775   H         1 RES1   0.0000
    68 H37     -1.6812   2.5837   8.6163   H         1 RES1   0.0000
    69 O1      -0.7835   3.5651  11.4196   O.co2     1 RES1   0.0000
    70 O2       0.5383   3.1374   9.6748   O.co2     1 RES1   0.0000
    71 O3       1.6245   7.4859  11.0783   O.co2     1 RES1   0.0000
    72 O4       0.4766   6.1166  12.3959   O.co2     1 RES1   0.0000
    73 C27      0.6406   6.7776  11.3108   C.2       1 RES1   0.0000
    74 C28     -0.4455   6.6839  10.2691   C.3       1 RES1   0.0000
    75 H38     -0.6385   7.5774   9.9169   H         1 RES1   0.0000
    76 H39     -1.2560   6.3111  10.6744   H         1 RES1   0.0000
    77 H40     -0.1476   6.1028   9.5382   H         1 RES1   0.0000
@<TRIPOS>BOND
     1     1     2    1
     2     2     6    1
     3     3     1    1
     4     4     1    1
     5     5     1    1
     6     6     7    1
     7     8     6    1
     8     9     3    1
     9    10     9    1
    10    11     9    1
    11    12     3    1
    12    13    12    1
    13    14    12    1
    14    15     4    1
    15    16    15    1
    16    17    15    1
    17    18     4    1
    18    19    18    1
    19    20    18    1
    20    21     5    1
    21    22    21    1
    22    23    21    1
    23    24     5    1
    24    25    24    1
    25    26    24    1
    26    27     2    1
    27    28    27    1
    28    29    27    1
    29    30     2    1
    30    31    30    1
    31    32    30    1
    32    33     4    1
    33    34    33    1
    34    35    33    1
    35    36     3    1
    36    37    36    1
    37    38    36    1
    38    39    36    1
    39    40    39   ar
    40    41    40    1
    41    42    40   ar
    42    43    42    1
    43    44    42   ar
    44    45    44    1
    45    46    44   ar
    46    47    46    1
    47    48    39   ar
    48    49    48    1
    49    50     5    1
    50    51    50    1
    51    52    50    1
    52    53    50    1
    53    54    53   ar
    54    55    54    1
    55    56    54   ar
    56    57    56    1
    57    58    56   ar
    58    59    58    1
    59    60    58   ar
    60    61    60    1
    61    62    53   ar
    62    63    62    1
    63    64    65    1
    64    65    66    1
    65    67    65    1
    66    68    65    1
    67    69     1    1
    68    70    64    2
    69    71    73    2
    70    72     1    1
    71    73    72    1
    72    74    73    1
    73    75    74    1
    74    76    74    1
    75    77    74    1
    76     6     9    1
    77    12    15    1
    78    18    21    1
    79    24    27    1
    80    30    33    1
    81    46    48   ar
    82    60    62   ar
    83    64    69    1
@<TRIPOS>SUBSTRUCTURE
     1 RES1        1 GROUP             0 ****  ****    0  
@<TRIPOS>CRYSIN
   12.7426   12.7780   17.6223   90.0000  103.4840   90.0000    14     1
