@<TRIPOS>MOLECULE
MIWWOF
   153   161     4     0     0
SMALL
USER_CHARGES
****
Generated from the CSD

@<TRIPOS>ATOM
     1 Fe1     -8.4174   5.1856 -10.8207   Fe        1 RES1   1.0000
     2 P1      -8.3062   7.2327 -10.1858   P.3       1 RES1   0.0000
     3 P2      -6.6094   5.7741 -11.9545   P.3       1 RES1   0.0000
     4 P3     -10.3312   4.6008  -9.9213   P.3       1 RES1   0.0000
     5 P4      -7.9652   3.1179 -10.3990   P.3       1 RES1   0.0000
     6 N1      -7.1975   8.4744 -12.3634   N.3       1 RES1   0.0000
     7 N2      -5.6015   6.7432  -9.5946   N.pl3     1 RES1   0.0000
     8 N3     -10.3771   1.8976 -10.6173   N.3       1 RES1   0.0000
     9 N4      -8.9076   3.6415  -7.7798   N.3       1 RES1   0.0000
    10 N5      -9.3535   5.1961 -12.5283   N.1       1 RES1   0.0000
    11 C1      -8.4026   8.5049 -11.5300   C.3       1 RES1   0.0000
    12 H1      -9.1977   8.3296 -12.0932   H         1 RES1   0.0000
    13 H2      -8.5017   9.4028 -11.1271   H         1 RES1   0.0000
    14 C2      -6.9713   7.2080 -13.0838   C.3       1 RES1   0.0000
    15 H3      -6.2110   7.3236 -13.7066   H         1 RES1   0.0000
    16 H4      -7.7747   6.9959 -13.6226   H         1 RES1   0.0000
    17 C3      -6.6640   7.6869  -9.3870   C.3       1 RES1   0.0000
    18 H5      -6.3752   8.5658  -9.7411   H         1 RES1   0.0000
    19 H6      -6.8056   7.7898  -8.4132   H         1 RES1   0.0000
    20 C4      -5.2181   6.4472 -10.9607   C.3       1 RES1   0.0000
    21 H7      -4.4788   5.7906 -10.9531   H         1 RES1   0.0000
    22 H8      -4.8863   7.2754 -11.3881   H         1 RES1   0.0000
    23 C5     -11.1002   3.1550 -10.8096   C.3       1 RES1   0.0000
    24 H9     -12.0298   3.0407 -10.4906   H         1 RES1   0.0000
    25 H10    -11.1358   3.3570 -11.7788   H         1 RES1   0.0000
    26 C6      -9.0314   1.8430 -11.2186   C.3       1 RES1   0.0000
    27 H11     -9.0858   2.0233 -12.1909   H         1 RES1   0.0000
    28 H12     -8.6392   0.9424 -11.0904   H         1 RES1   0.0000
    29 C7     -10.2600   3.9755  -8.1751   C.3       1 RES1   0.0000
    30 H13    -10.6162   4.6690  -7.5661   H         1 RES1   0.0000
    31 H14    -10.8317   3.1728  -8.0927   H         1 RES1   0.0000
    32 C8      -8.2239   2.6470  -8.6086   C.3       1 RES1   0.0000
    33 H15     -8.7459   1.8074  -8.5796   H         1 RES1   0.0000
    34 H16     -7.3390   2.4603  -8.2056   H         1 RES1   0.0000
    35 C9      -9.4572   7.9003  -8.9245   C.ar      1 RES1   0.0000
    36 C10     -9.4161   7.3592  -7.6516   C.ar      1 RES1   0.0000
    37 H17     -8.8075   6.6530  -7.4669   H         1 RES1   0.0000
    38 C11    -10.2472   7.8266  -6.6350   C.ar      1 RES1   0.0000
    39 H18    -10.2039   7.4481  -5.7650   H         1 RES1   0.0000
    40 C12    -11.1400   8.8529  -6.9159   C.ar      1 RES1   0.0000
    41 H19    -11.7057   9.1882  -6.2290   H         1 RES1   0.0000
    42 C13    -11.2087   9.3914  -8.1934   C.ar      1 RES1   0.0000
    43 H20    -11.8253  10.0875  -8.3873   H         1 RES1   0.0000
    44 C14    -10.3664   8.9037  -9.1901   C.ar      1 RES1   0.0000
    45 H21    -10.4201   9.2669 -10.0663   H         1 RES1   0.0000
    46 C15     -5.7867   4.6462 -13.1403   C.ar      1 RES1   0.0000
    47 C16     -6.5652   4.0111 -14.1095   C.ar      1 RES1   0.0000
    48 H22     -7.4999   4.1724 -14.1401   H         1 RES1   0.0000
    49 C17     -5.9877   3.1436 -15.0315   C.ar      1 RES1   0.0000
    50 H23     -6.5235   2.7422 -15.7046   H         1 RES1   0.0000
    51 C18     -4.6452   2.8680 -14.9735   C.ar      1 RES1   0.0000
    52 H24     -4.2509   2.2596 -15.5886   H         1 RES1   0.0000
    53 C19     -3.8770   3.4827 -14.0164   C.ar      1 RES1   0.0000
    54 H25     -2.9448   3.3011 -13.9768   H         1 RES1   0.0000
    55 C20     -4.4319   4.3540 -13.1159   C.ar      1 RES1   0.0000
    56 H26     -3.8770   4.7668 -12.4626   H         1 RES1   0.0000
    57 C21     -6.9811   9.6505 -13.1251   C.ar      1 RES1   0.0000
    58 C22     -7.9493  10.6374 -13.2868   C.ar      1 RES1   0.0000
    59 H27     -8.8196  10.5028 -12.9297   H         1 RES1   0.0000
    60 C23     -7.6599  11.8098 -13.9615   C.ar      1 RES1   0.0000
    61 H28     -8.3345  12.4715 -14.0607   H         1 RES1   0.0000
    62 C24     -6.4271  12.0257 -14.4835   C.ar      1 RES1   0.0000
    63 H29     -6.2356  12.8398 -14.9353   H         1 RES1   0.0000
    64 C25     -5.4417  11.0489 -14.3568   C.ar      1 RES1   0.0000
    65 H30     -4.5799  11.1887 -14.7323   H         1 RES1   0.0000
    66 C26     -5.7207   9.8830 -13.6867   C.ar      1 RES1   0.0000
    67 H31     -5.0434   9.2212 -13.6028   H         1 RES1   0.0000
    68 C27     -4.7570   6.3355  -8.5567   C.ar      1 RES1   0.0000
    69 C28     -3.4060   6.0255  -8.7765   C.ar      1 RES1   0.0000
    70 H32     -3.0281   6.1869  -9.6343   H         1 RES1   0.0000
    71 C29     -2.6107   5.4921  -7.7859   C.ar      1 RES1   0.0000
    72 H33     -1.7137   5.2469  -7.9813   H         1 RES1   0.0000
    73 C30     -3.1138   5.3130  -6.5022   C.ar      1 RES1   0.0000
    74 H34     -2.5574   4.9853  -5.8047   H         1 RES1   0.0000
    75 C31     -4.4224   5.6204  -6.2657   C.ar      1 RES1   0.0000
    76 H35     -4.7805   5.4794  -5.3972   H         1 RES1   0.0000
    77 C32     -5.2413   6.1284  -7.2532   C.ar      1 RES1   0.0000
    78 H36     -6.1438   6.3431  -7.0487   H         1 RES1   0.0000
    79 C33    -11.8272   5.6801  -9.8846   C.ar      1 RES1   0.0000
    80 C34    -12.7753   5.5721  -8.8727   C.ar      1 RES1   0.0000
    81 H37    -12.6395   4.9497  -8.1675   H         1 RES1   0.0000
    82 C35    -13.8986   6.3482  -8.8788   C.ar      1 RES1   0.0000
    83 H38    -14.5252   6.2707  -8.1690   H         1 RES1   0.0000
    84 C36    -14.1374   7.2461  -9.9029   C.ar      1 RES1   0.0000
    85 H39    -14.9250   7.7758  -9.9167   H         1 RES1   0.0000
    86 C37    -13.1828   7.3465 -10.9164   C.ar      1 RES1   0.0000
    87 H40    -13.3236   7.9574 -11.6308   H         1 RES1   0.0000
    88 C38    -12.0488   6.5806 -10.8996   C.ar      1 RES1   0.0000
    89 H41    -11.4097   6.6720 -11.5941   H         1 RES1   0.0000
    90 C39     -6.2935   2.4666 -10.6463   C.ar      1 RES1   0.0000
    91 C40     -5.9655   1.4975 -11.5926   C.ar      1 RES1   0.0000
    92 H42     -6.6439   1.1596 -12.1665   H         1 RES1   0.0000
    93 C41     -4.6677   1.0136 -11.7132   C.ar      1 RES1   0.0000
    94 H43     -4.4639   0.3518 -12.3634   H         1 RES1   0.0000
    95 C42     -3.6817   1.4950 -10.8859   C.ar      1 RES1   0.0000
    96 H44     -2.7986   1.1507 -10.9485   H         1 RES1   0.0000
    97 C43     -3.9795   2.4958  -9.9503   C.ar      1 RES1   0.0000
    98 H45     -3.2940   2.8515  -9.3962   H         1 RES1   0.0000
    99 C44     -5.2566   2.9556  -9.8388   C.ar      1 RES1   0.0000
   100 H46     -5.4511   3.6262  -9.1947   H         1 RES1   0.0000
   101 C45    -11.1766   0.7405 -10.8020   C.ar      1 RES1   0.0000
   102 C46    -12.3099   0.5766  -9.9869   C.ar      1 RES1   0.0000
   103 H47    -12.5250   1.2270  -9.3290   H         1 RES1   0.0000
   104 C47    -13.1130  -0.5436 -10.1533   C.ar      1 RES1   0.0000
   105 H48    -13.8939  -0.6389  -9.6206   H         1 RES1   0.0000
   106 C48    -12.8036  -1.5165 -11.0706   C.ar      1 RES1   0.0000
   107 H49    -13.3601  -2.2812 -11.1637   H         1 RES1   0.0000
   108 C49    -11.6906  -1.3806 -11.8506   C.ar      1 RES1   0.0000
   109 H50    -11.4650  -2.0564 -12.4809   H         1 RES1   0.0000
   110 C50    -10.8841  -0.2540 -11.7239   C.ar      1 RES1   0.0000
   111 H51    -10.1182  -0.1638 -12.2795   H         1 RES1   0.0000
   112 C51     -8.6684   3.6351  -6.3893   C.ar      1 RES1   0.0000
   113 C52     -9.6854   3.7926  -5.4628   C.ar      1 RES1   0.0000
   114 H52    -10.5857   3.8600  -5.7604   H         1 RES1   0.0000
   115 C53     -9.4079   3.8536  -4.1181   C.ar      1 RES1   0.0000
   116 H53    -10.1244   3.9489  -3.4999   H         1 RES1   0.0000
   117 C54     -8.1272   3.7787  -3.6495   C.ar      1 RES1   0.0000
   118 H54     -7.9457   3.8473  -2.7199   H         1 RES1   0.0000
   119 C55     -7.1079   3.6047  -4.5516   C.ar      1 RES1   0.0000
   120 H55     -6.2157   3.5183  -4.2356   H         1 RES1   0.0000
   121 C56     -7.3530   3.5513  -5.9039   C.ar      1 RES1   0.0000
   122 H56     -6.6303   3.4573  -6.5114   H         1 RES1   0.0000
   123 C57     -9.9145   5.2495 -13.5219   C.1       1 RES1   0.0000
   124 C58    -10.5955   5.2393 -14.8224   C.3       1 RES1   0.0000
   125 H57    -10.1256   4.6322 -15.4314   H         1 RES1   0.0000
   126 H58    -10.5934   6.1449 -15.1978   H         1 RES1   0.0000
   127 H59    -11.5195   4.9358 -14.7048   H         1 RES1   0.0000
   128 H72     -7.7472   5.1441  -9.5549   H         1 RES1   0.0000
   129 O1       0.1802   1.3209 -13.9554   O.3       2 RES2   0.0000
   130 C59     -1.5947   0.2807 -13.9630   C.3       2 RES2   0.0000
   131 H60     -2.0595   1.1380 -14.0699   H         2 RES2   0.0000
   132 H61     -2.1417  -0.3201 -13.4151   H         2 RES2   0.0000
   133 H62     -1.4470  -0.1232 -14.8437   H         2 RES2   0.0000
   134 C60     -0.5927   0.4547 -13.4517   C.3       2 RES2   0.0000
   135 H63     -0.1069  -0.4090 -13.4318   H         2 RES2   0.0000
   136 H64     -0.7700   0.7138 -12.5130   H         2 RES2   0.0000
   137 C61      1.4605   1.6093 -13.6501   C.3       2 RES2   0.0000
   138 H65      1.5499   1.6779 -12.6672   H         2 RES2   0.0000
   139 H66      2.0395   0.8662 -13.9569   H         2 RES2   0.0000
   140 C62      1.7922   2.5034 -14.0882   C.3       2 RES2   0.0000
   141 H67      1.3999   3.2643 -13.6120   H         2 RES2   0.0000
   142 H68      1.5181   2.5288 -15.0284   H         2 RES2   0.0000
   143 H69      2.7693   2.5517 -14.0302   H         2 RES2   0.0000
   144 B1      -1.4753  -4.3934   0.8456   B         3 RES3  -1.0000
   145 F1      -2.1710  -3.2897   1.3004   F         3 RES3   0.0000
   146 F2      -2.1713  -5.5391   1.1753   F         3 RES3   0.0000
   147 F3      -1.3092  -4.3248  -0.5190   F         3 RES3   0.0000
   148 F4      -0.2393  -4.4023   1.4760   F         3 RES3   0.0000
   149 Cl1     -9.4878  13.1047  -2.7381   Cl        4 RES4   0.0000
   150 Cl2    -10.0889  10.5523  -3.9375   Cl        4 RES4   0.0000
   151 C63    -10.5215  11.6891  -2.6879   C.3       4 RES4   0.0000
   152 H70    -10.4385  11.2522  -1.8026   H         4 RES4   0.0000
   153 H71    -11.4639  11.9647  -2.8054   H         4 RES4   0.0000
@<TRIPOS>BOND
     1     1     2    1
     2     2    11    1
     3     3     1    1
     4     4     1    1
     5     5     1    1
     6     6    11    1
     7     7    17    1
     8     8    23    1
     9     9    29    1
    10    10     1    1
    11    11    12    1
    12    13    11    1
    13    14     3    1
    14    15    14    1
    15    16    14    1
    16    17     2    1
    17    18    17    1
    18    19    17    1
    19    20     3    1
    20    21    20    1
    21    22    20    1
    22    23     4    1
    23    24    23    1
    24    25    23    1
    25    26     5    1
    26    27    26    1
    27    28    26    1
    28    29     4    1
    29    30    29    1
    30    31    29    1
    31    32     5    1
    32    33    32    1
    33    34    32    1
    34    35     2    1
    35    36    35   ar
    36    37    36    1
    37    38    36   ar
    38    39    38    1
    39    40    38   ar
    40    41    40    1
    41    42    40   ar
    42    43    42    1
    43    44    35   ar
    44    45    44    1
    45    46     3    1
    46    47    46   ar
    47    48    47    1
    48    49    47   ar
    49    50    49    1
    50    51    49   ar
    51    52    51    1
    52    53    51   ar
    53    54    53    1
    54    55    46   ar
    55    56    55    1
    56    57     6    1
    57    58    57   ar
    58    59    58    1
    59    60    58   ar
    60    61    60    1
    61    62    60   ar
    62    63    62    1
    63    64    62   ar
    64    65    64    1
    65    66    57   ar
    66    67    66    1
    67    68     7    1
    68    69    68   ar
    69    70    69    1
    70    71    69   ar
    71    72    71    1
    72    73    71   ar
    73    74    73    1
    74    75    73   ar
    75    76    75    1
    76    77    68   ar
    77    78    77    1
    78    79     4    1
    79    80    79   ar
    80    81    80    1
    81    82    80   ar
    82    83    82    1
    83    84    82   ar
    84    85    84    1
    85    86    84   ar
    86    87    86    1
    87    88    79   ar
    88    89    88    1
    89    90     5    1
    90    91    90   ar
    91    92    91    1
    92    93    91   ar
    93    94    93    1
    94    95    93   ar
    95    96    95    1
    96    97    95   ar
    97    98    97    1
    98    99    90   ar
    99   100    99    1
   100   101     8    1
   101   102   101   ar
   102   103   102    1
   103   104   102   ar
   104   105   104    1
   105   106   104   ar
   106   107   106    1
   107   108   106   ar
   108   109   108    1
   109   110   101   ar
   110   111   110    1
   111   112     9    1
   112   113   112   ar
   113   114   113    1
   114   115   113   ar
   115   116   115    1
   116   117   115   ar
   117   118   117    1
   118   119   117   ar
   119   120   119    1
   120   121   112   ar
   121   122   121    1
   122   123    10    3
   123   124   123    1
   124   125   124    1
   125   126   124    1
   126   127   124    1
   127   128     1    1
   128     6    14    1
   129     7    20    1
   130     8    26    1
   131     9    32    1
   132    42    44   ar
   133    53    55   ar
   134    64    66   ar
   135    75    77   ar
   136    86    88   ar
   137    97    99   ar
   138   108   110   ar
   139   119   121   ar
   140   129   134    1
   141   130   131    1
   142   132   130    1
   143   133   130    1
   144   134   130    1
   145   135   134    1
   146   136   134    1
   147   137   129    1
   148   138   137    1
   149   139   137    1
   150   140   137    1
   151   141   140    1
   152   142   140    1
   153   143   140    1
   154   144   145    1
   155   146   144    1
   156   147   144    1
   157   148   144    1
   158   149   151    1
   159   150   151    1
   160   151   152    1
   161   153   151    1
@<TRIPOS>SUBSTRUCTURE
     1 RES1        1 GROUP             0 ****  ****    0  
     2 RES2      129 GROUP             0 ****  ****    0  
     3 RES3      144 GROUP             0 ****  ****    0  
     4 RES4      149 GROUP             0 ****  ****    0  
@<TRIPOS>CRYSIN
   15.1619   12.7014   15.8348   90.0000  105.4380   90.0000     4     1
