@<TRIPOS>MOLECULE
MIWWIZ
   270   284     6     0     0
SMALL
USER_CHARGES
****
Generated from the CSD

@<TRIPOS>ATOM
     1 Fe1      7.6204   1.9613   6.1033   Fe        1 RES1   2.0000
     2 C1       7.6550   0.6603   2.8917   C.3       1 RES1   0.0000
     3 H1       6.8334   0.1912   3.1808   H         1 RES1   0.0000
     4 H2       7.5543   0.8820   1.9313   H         1 RES1   0.0000
     5 C2       8.8682  -0.8018   4.3978   C.3       1 RES1   0.0000
     6 H3       9.5626  -1.5080   4.4113   H         1 RES1   0.0000
     7 H4       8.0017  -1.2212   4.6275   H         1 RES1   0.0000
     8 C3       9.5192   2.7546   3.3141   C.3       1 RES1   0.0000
     9 H5       9.7927   2.1896   2.5489   H         1 RES1   0.0000
    10 H6       9.4938   3.6946   3.0050   H         1 RES1   0.0000
    11 C4      10.7716   1.2663   4.8693   C.3       1 RES1   0.0000
    12 H7      11.5085   1.2922   5.5302   H         1 RES1   0.0000
    13 H8      11.0675   0.7031   4.1096   H         1 RES1   0.0000
    14 C5       8.9321   5.1690   5.8223   C.3       1 RES1   0.0000
    15 H9       8.8627   5.9458   6.4328   H         1 RES1   0.0000
    16 H10      9.7800   5.2550   5.3187   H         1 RES1   0.0000
    17 C6       6.4667   5.1597   5.4772   C.3       1 RES1   0.0000
    18 H11      5.7917   5.2458   4.7581   H         1 RES1   0.0000
    19 H12      6.3652   5.9397   6.0789   H         1 RES1   0.0000
    20 C7       8.4646   4.3135   8.4694   C.3       1 RES1   0.0000
    21 H13      8.3284   3.5620   9.1005   H         1 RES1   0.0000
    22 H14      9.2008   4.8726   8.8226   H         1 RES1   0.0000
    23 C8       6.0632   4.3302   8.1420   C.3       1 RES1   0.0000
    24 H15      5.2617   4.9035   8.2335   H         1 RES1   0.0000
    25 H16      5.9883   3.5928   8.7988   H         1 RES1   0.0000
    26 C9       7.3129   1.0513   9.0331   C.1       1 RES1   0.0000
    27 C10      7.1903   0.6054  10.4213   C.3       1 RES1   0.0000
    28 H17      7.9696   0.0617  10.6589   H         1 RES1   0.0000
    29 H18      6.3755   0.0709  10.5211   H         1 RES1   0.0000
    30 H19      7.1434   1.3847  11.0128   H         1 RES1   0.0000
    31 C11      5.3722  -0.0833   5.5610   C.1       1 RES1   0.0000
    32 C12      4.2488  -0.9822   5.3230   C.3       1 RES1   0.0000
    33 H20      3.4102  -0.4780   5.3686   H         1 RES1   0.0000
    34 H21      4.2424  -1.6838   6.0053   H         1 RES1   0.0000
    35 H22      4.3383  -1.3878   4.4351   H         1 RES1   0.0000
    36 C13      6.6732   3.1703   2.7924   C.ar      1 RES1   0.0000
    37 C14      5.3083   2.9418   2.9535   C.ar      1 RES1   0.0000
    38 H23      5.0046   2.3931   3.6678   H         1 RES1   0.0000
    39 C15      4.3899   3.5043   2.0843   C.ar      1 RES1   0.0000
    40 H24      3.4614   3.3368   2.1973   H         1 RES1   0.0000
    41 C16      4.8313   4.3160   1.0421   C.ar      1 RES1   0.0000
    42 H25      4.2060   4.7184   0.4513   H         1 RES1   0.0000
    43 C17      6.1781   4.5294   0.8756   C.ar      1 RES1   0.0000
    44 H26      6.4797   5.0700   0.1568   H         1 RES1   0.0000
    45 C18      7.1010   3.9706   1.7363   C.ar      1 RES1   0.0000
    46 H27      8.0279   4.1325   1.6082   H         1 RES1   0.0000
    47 C19      8.8989  -1.2650   2.0246   C.3       1 RES1   0.0000
    48 H28      8.7119  -0.8697   1.1355   H         1 RES1   0.0000
    49 H29      8.2293  -1.9737   2.1950   H         1 RES1   0.0000
    50 C20     10.2865  -1.8692   2.0273   C.ar      1 RES1   0.0000
    51 C21     11.4024  -1.0482   1.8268   C.ar      1 RES1   0.0000
    52 H30     11.2782  -0.1234   1.6415   H         1 RES1   0.0000
    53 C22     12.6738  -1.5654   1.8964   C.ar      1 RES1   0.0000
    54 H31     13.4234  -0.9930   1.7769   H         1 RES1   0.0000
    55 C23     12.8711  -2.9063   2.1382   C.ar      1 RES1   0.0000
    56 H32     13.7519  -3.2628   2.1736   H         1 RES1   0.0000
    57 C24     11.7822  -3.7291   2.3270   C.ar      1 RES1   0.0000
    58 H33     11.9132  -4.6537   2.4990   H         1 RES1   0.0000
    59 C25     10.4973  -3.2128   2.2674   C.ar      1 RES1   0.0000
    60 H34      9.7526  -3.7902   2.3921   H         1 RES1   0.0000
    61 C26     11.7641   3.3550   4.0794   C.3       1 RES1   0.0000
    62 H35     12.2430   3.5034   4.9339   H         1 RES1   0.0000
    63 H36     11.5154   4.2466   3.7272   H         1 RES1   0.0000
    64 C27     12.7426   2.7299   3.1029   C.ar      1 RES1   0.0000
    65 C28     13.9312   2.2525   3.5922   C.ar      1 RES1   0.0000
    66 H37     14.0785   2.2667   4.5301   H         1 RES1   0.0000
    67 C29     14.9267   1.7492   2.7618   C.ar      1 RES1   0.0000
    68 H38     15.7498   1.4495   3.1285   H         1 RES1   0.0000
    69 C30     14.7126   1.6891   1.4296   C.ar      1 RES1   0.0000
    70 H39     15.3910   1.3446   0.8599   H         1 RES1   0.0000
    71 C31     13.5302   2.1177   0.8906   C.ar      1 RES1   0.0000
    72 H40     13.3825   2.0570  -0.0451   H         1 RES1   0.0000
    73 C32     12.5328   2.6503   1.7308   C.ar      1 RES1   0.0000
    74 H41     11.7137   2.9575   1.3588   H         1 RES1   0.0000
    75 C33      9.8921  -0.6729   6.9281   C.ar      1 RES1   0.0000
    76 C34      8.9304  -1.3890   7.6455   C.ar      1 RES1   0.0000
    77 H42      8.0066  -1.2336   7.4852   H         1 RES1   0.0000
    78 C35      9.3199  -2.3247   8.5879   C.ar      1 RES1   0.0000
    79 H43      8.6603  -2.8033   9.0792   H         1 RES1   0.0000
    80 C36     10.6567  -2.5677   8.8200   C.ar      1 RES1   0.0000
    81 H44     10.9206  -3.2073   9.4735   H         1 RES1   0.0000
    82 C37     11.6151  -1.8760   8.0964   C.ar      1 RES1   0.0000
    83 H45     12.5377  -2.0447   8.2477   H         1 RES1   0.0000
    84 C38     11.2297  -0.9403   7.1552   C.ar      1 RES1   0.0000
    85 H46     11.8918  -0.4749   6.6585   H         1 RES1   0.0000
    86 C39     10.7080   3.3818   7.3576   C.ar      1 RES1   0.0000
    87 C40     11.0014   2.2377   8.0898   C.ar      1 RES1   0.0000
    88 H47     10.3305   1.5790   8.2192   H         1 RES1   0.0000
    89 C41     12.2636   2.0474   8.6326   C.ar      1 RES1   0.0000
    90 H48     12.4597   1.2521   9.1124   H         1 RES1   0.0000
    91 C42     13.2321   3.0124   8.4772   C.ar      1 RES1   0.0000
    92 H49     14.1000   2.8773   8.8392   H         1 RES1   0.0000
    93 C43     12.9424   4.1716   7.7973   C.ar      1 RES1   0.0000
    94 H50     13.6068   4.8449   7.7109   H         1 RES1   0.0000
    95 C44     11.6810   4.3724   7.2336   C.ar      1 RES1   0.0000
    96 H51     11.4882   5.1779   6.7678   H         1 RES1   0.0000
    97 C45      7.1089   5.9261   9.6512   C.3       1 RES1   0.0000
    98 H52      7.0951   5.3352  10.4451   H         1 RES1   0.0000
    99 H53      6.2535   6.4208   9.6208   H         1 RES1   0.0000
   100 C46      8.2517   6.8982   9.7669   C.ar      1 RES1   0.0000
   101 C47      9.0907   6.8812  10.8693   C.ar      1 RES1   0.0000
   102 H54      8.9116   6.2820  11.5829   H         1 RES1   0.0000
   103 C48     10.1922   7.7293  10.9470   C.ar      1 RES1   0.0000
   104 H55     10.7411   7.7314  11.7231   H         1 RES1   0.0000
   105 C49     10.4784   8.5607   9.8966   C.ar      1 RES1   0.0000
   106 H56     11.2470   9.1192   9.9296   H         1 RES1   0.0000
   107 C50      9.6567   8.5894   8.7958   C.ar      1 RES1   0.0000
   108 H57      9.8563   9.1747   8.0743   H         1 RES1   0.0000
   109 C51      8.5402   7.7728   8.7281   C.ar      1 RES1   0.0000
   110 H58      7.9690   7.8116   7.9698   H         1 RES1   0.0000
   111 C52      7.9204   6.3461   3.9448   C.3       1 RES1   0.0000
   112 H59      7.2167   6.2511   3.2544   H         1 RES1   0.0000
   113 H60      8.7939   6.2789   3.4849   H         1 RES1   0.0000
   114 C53      7.8106   7.7382   4.5355   C.ar      1 RES1   0.0000
   115 C54      8.9424   8.4700   4.8237   C.ar      1 RES1   0.0000
   116 H61      9.7995   8.0953   4.6607   H         1 RES1   0.0000
   117 C55      8.8401   9.7551   5.3496   C.ar      1 RES1   0.0000
   118 H62      9.6279  10.2541   5.5254   H         1 RES1   0.0000
   119 C56      7.6137  10.3062   5.6181   C.ar      1 RES1   0.0000
   120 H63      7.5468  11.1762   5.9910   H         1 RES1   0.0000
   121 C57      6.4860   9.5806   5.3399   C.ar      1 RES1   0.0000
   122 H64      5.6316   9.9519   5.5278   H         1 RES1   0.0000
   123 C58      6.5729   8.3220   4.7935   C.ar      1 RES1   0.0000
   124 H65      5.7787   7.8425   4.5895   H         1 RES1   0.0000
   125 C59      4.3254   3.3146   6.2794   C.ar      1 RES1   0.0000
   126 C60      3.8210   2.2957   7.0904   C.ar      1 RES1   0.0000
   127 H66      4.4181   1.7702   7.6111   H         1 RES1   0.0000
   128 C61      2.4584   2.0428   7.1431   C.ar      1 RES1   0.0000
   129 H67      2.1180   1.3569   7.7061   H         1 RES1   0.0000
   130 C62      1.6029   2.7987   6.3701   C.ar      1 RES1   0.0000
   131 H68      0.6714   2.6152   6.3877   H         1 RES1   0.0000
   132 C63      2.0787   3.8195   5.5713   C.ar      1 RES1   0.0000
   133 H69      1.4768   4.3422   5.0527   H         1 RES1   0.0000
   134 C64      3.4527   4.0813   5.5285   C.ar      1 RES1   0.0000
   135 H70      3.7853   4.7863   4.9838   H         1 RES1   0.0000
   136 N1       8.7886  -0.2257   3.0568   N.3       1 RES1   0.0000
   137 N2      10.5110   2.6266   4.3868   N.3       1 RES1   0.0000
   138 N3       7.8039   5.1952   4.8764   N.3       1 RES1   0.0000
   139 N4       7.2528   5.1122   8.4273   N.3       1 RES1   0.0000
   140 N5       7.4394   1.4069   7.9648   N.1       1 RES1   0.0000
   141 N6       6.2344   0.6424   5.7228   N.1       1 RES1   0.0000
   142 P1       7.8302   2.2494   3.8709   P.3       1 RES1   0.0000
   143 P2       9.2796   0.4888   5.6530   P.3       1 RES1   0.0000
   144 P3       8.9760   3.6209   6.8179   P.3       1 RES1   0.0000
   145 P4       6.1197   3.6246   6.4359   P.3       1 RES1   0.0000
   146 C65      7.5547   5.5412  20.6649   C.ar      2 RES2   0.0000
   147 C66      7.5228   6.5784  19.7207   C.ar      2 RES2   0.0000
   148 H71      6.6976   6.7754  19.2938   H         2 RES2   0.0000
   149 C67      8.6407   7.3296  19.3812   C.ar      2 RES2   0.0000
   150 H72      8.5656   8.0152  18.7284   H         2 RES2   0.0000
   151 C68      9.8545   7.0897  19.9806   C.ar      2 RES2   0.0000
   152 H73     10.6223   7.5927  19.7380   H         2 RES2   0.0000
   153 C69      9.9302   6.1105  20.9338   C.ar      2 RES2   0.0000
   154 H74     10.7566   5.9397  21.3700   H         2 RES2   0.0000
   155 C70      8.7977   5.3565  21.2731   C.ar      2 RES2   0.0000
   156 H75      8.8810   4.6907  21.9449   H         2 RES2   0.0000
   157 C71      5.1418   4.5923  19.8573   C.ar      2 RES2   0.0000
   158 C72      3.7490   4.4535  20.0347   C.ar      2 RES2   0.0000
   159 H76      3.3921   4.5303  20.9115   H         2 RES2   0.0000
   160 C73      2.8813   4.2090  18.9852   C.ar      2 RES2   0.0000
   161 H77      1.9489   4.1232  19.1513   H         2 RES2   0.0000
   162 C74      3.3591   4.0899  17.7044   C.ar      2 RES2   0.0000
   163 H78      2.7641   3.9320  16.9801   H         2 RES2   0.0000
   164 C75      4.7222   4.2059  17.4811   C.ar      2 RES2   0.0000
   165 H79      5.0681   4.1201  16.6000   H         2 RES2   0.0000
   166 C76      5.5720   4.4430  18.5324   C.ar      2 RES2   0.0000
   167 H80      6.5029   4.5087  18.3507   H         2 RES2   0.0000
   168 C77      5.5810   5.6889  22.3264   C.ar      2 RES2   0.0000
   169 C78      6.0606   5.5662  23.6322   C.ar      2 RES2   0.0000
   170 H81      6.6752   4.8665  23.8262   H         2 RES2   0.0000
   171 C79      5.6795   6.4195  24.6655   C.ar      2 RES2   0.0000
   172 H82      6.0367   6.3005  25.5366   H         2 RES2   0.0000
   173 C80      4.7804   7.4363  24.4177   C.ar      2 RES2   0.0000
   174 H83      4.5035   8.0213  25.1138   H         2 RES2   0.0000
   175 C81      4.2968   7.5859  23.1421   C.ar      2 RES2   0.0000
   176 H84      3.6714   8.2773  22.9592   H         2 RES2   0.0000
   177 C82      4.7025   6.7464  22.1107   C.ar      2 RES2   0.0000
   178 H85      4.3711   6.8988  21.2346   H         2 RES2   0.0000
   179 C83      6.3991   3.2212  21.6415   C.ar      2 RES2   0.0000
   180 C84      5.4223   2.5847  22.4093   C.ar      2 RES2   0.0000
   181 H86      4.6820   3.0994  22.7098   H         2 RES2   0.0000
   182 C85      5.4751   1.2573  22.7525   C.ar      2 RES2   0.0000
   183 H87      4.7790   0.8758  23.2751   H         2 RES2   0.0000
   184 C86      6.5436   0.4731  22.3392   C.ar      2 RES2   0.0000
   185 H88      6.5872  -0.4472  22.5649   H         2 RES2   0.0000
   186 C87      7.5325   1.0606  21.5933   C.ar      2 RES2   0.0000
   187 H89      8.2744   0.5397  21.3082   H         2 RES2   0.0000
   188 C88      7.4677   2.4092  21.2434   C.ar      2 RES2   0.0000
   189 H90      8.1681   2.7848  20.7215   H         2 RES2   0.0000
   190 B1       6.1812   4.7570  21.1206   B         2 RES2  -1.0000
   191 C89      9.2112   1.7659  15.7327   C.ar      3 RES3   0.0000
   192 C90      8.8147   2.7789  16.6183   C.ar      3 RES3   0.0000
   193 H91      8.2770   3.4879  16.2840   H         3 RES3   0.0000
   194 C91      9.1716   2.7962  17.9623   C.ar      3 RES3   0.0000
   195 H92      8.9089   3.5219  18.5170   H         3 RES3   0.0000
   196 C92      9.9062   1.7548  18.4842   C.ar      3 RES3   0.0000
   197 H93     10.1526   1.7517  19.4007   H         3 RES3   0.0000
   198 C93     10.2800   0.7155  17.6590   C.ar      3 RES3   0.0000
   199 H94     10.7681  -0.0185  18.0158   H         3 RES3   0.0000
   200 C94      9.9474   0.7358  16.3016   C.ar      3 RES3   0.0000
   201 H95     10.2346   0.0185  15.7496   H         3 RES3   0.0000
   202 C95      7.3571   2.4036  13.8893   C.ar      3 RES3   0.0000
   203 C96      6.2947   1.8923  14.6687   C.ar      3 RES3   0.0000
   204 H96      6.4925   1.2644  15.3552   H         3 RES3   0.0000
   205 C97      4.9678   2.2719  14.4711   C.ar      3 RES3   0.0000
   206 H97      4.2851   1.8905  15.0084   H         3 RES3   0.0000
   207 C98      4.6409   3.1943  13.5064   C.ar      3 RES3   0.0000
   208 H98      3.7364   3.4571  13.3764   H         3 RES3   0.0000
   209 C99      5.6492   3.7347  12.7265   C.ar      3 RES3   0.0000
   210 H99      5.4421   4.3699  12.0509   H         3 RES3   0.0000
   211 C100     6.9734   3.3424  12.9389   C.ar      3 RES3   0.0000
   212 H100     7.6486   3.7408  12.4025   H         3 RES3   0.0000
   213 C101     9.0917   0.3904  13.4209   C.ar      3 RES3   0.0000
   214 C102    10.3182  -0.0327  12.8804   C.ar      3 RES3   0.0000
   215 H101    11.0530   0.5705  12.8895   H         3 RES3   0.0000
   216 C103    10.5005  -1.3002  12.3331   C.ar      3 RES3   0.0000
   217 H102    11.3455  -1.5420  11.9725   H         3 RES3   0.0000
   218 C104     9.4648  -2.2019  12.3115   C.ar      3 RES3   0.0000
   219 H103     9.5871  -3.0654  11.9321   H         3 RES3   0.0000
   220 C105     8.2471  -1.8414  12.8441   C.ar      3 RES3   0.0000
   221 H104     7.5273  -2.4641  12.8491   H         3 RES3   0.0000
   222 C106     8.0692  -0.5647  13.3752   C.ar      3 RES3   0.0000
   223 H105     7.2167  -0.3331  13.7209   H         3 RES3   0.0000
   224 C107     9.9633   2.9482  13.4427   C.ar      3 RES3   0.0000
   225 C108    10.1746   2.9927  12.0578   C.ar      3 RES3   0.0000
   226 H106     9.6732   2.4086  11.5022   H         3 RES3   0.0000
   227 C109    11.0922   3.8602  11.4611   C.ar      3 RES3   0.0000
   228 H107    11.2024   3.8642  10.5163   H         3 RES3   0.0000
   229 C110    11.8397   4.7129  12.2478   C.ar      3 RES3   0.0000
   230 H108    12.4903   5.2828  11.8537   H         3 RES3   0.0000
   231 C111    11.6326   4.7308  13.6019   C.ar      3 RES3   0.0000
   232 H109    12.1200   5.3383  14.1461   H         3 RES3   0.0000
   233 C112    10.7174   3.8700  14.1777   C.ar      3 RES3   0.0000
   234 H110    10.5944   3.9043  15.1200   H         3 RES3   0.0000
   235 B2       8.8968   1.8775  14.1088   B         3 RES3  -1.0000
   236 C113     1.5777   5.4388   9.3761   C.3       4 RES4   0.0000
   237 H111     1.7407   4.7554   8.6943   H         4 RES4   0.0000
   238 H112     1.3465   6.2851   8.9438   H         4 RES4   0.0000
   239 H113     0.8379   5.1533   9.9533   H         4 RES4   0.0000
   240 C114     2.8033   5.6217  10.1987   C.2       4 RES4   0.0000
   241 C115     2.8532   6.7455  11.1328   C.3       4 RES4   0.0000
   242 H114     3.6892   6.7076  11.6447   H         4 RES4   0.0000
   243 H115     2.0920   6.6921  11.7468   H         4 RES4   0.0000
   244 H116     2.8130   7.5865  10.6327   H         4 RES4   0.0000
   245 O1       3.7315   4.8513  10.0871   O.2       4 RES4   0.0000
   246 C116    12.8537   8.4469   3.3352   C.3       5 RES5   0.0000
   247 H117    12.1098   8.3143   2.7128   H         5 RES5   0.0000
   248 H118    13.7032   8.3236   2.8625   H         5 RES5   0.0000
   249 H119    12.8131   9.3567   3.7010   H         5 RES5   0.0000
   250 C117    12.7552   7.4489   4.4564   C.2       5 RES5   0.0000
   251 C118    13.7860   7.5186   5.5349   C.3       5 RES5   0.0000
   252 H120    13.5769   6.8587   6.2286   H         5 RES5   0.0000
   253 H121    13.7874   8.4161   5.9269   H         5 RES5   0.0000
   254 H122    14.6678   7.3274   5.1572   H         5 RES5   0.0000
   255 O2      11.8649   6.6406   4.4963   O.2       5 RES5   0.0000
   256 C119    14.7656   5.6159   1.4039   C.3       6 RES6   0.0000
   257 H123    14.9042   5.1594   2.2615   H         6 RES6   0.0000
   258 H124    14.8675   4.9713   0.6723   H         6 RES6   0.0000
   259 H125    13.8655   5.9983   1.3778   H         6 RES6   0.0000
   260 C120    15.7988   6.7322   1.2471   C.3       6 RES6   0.0000
   261 H126    16.5634   6.4115   0.7103   H         6 RES6   0.0000
   262 H127    15.3917   7.5032   0.7839   H         6 RES6   0.0000
   263 C121    17.4054   7.5557   3.2426   C.3       6 RES6   0.0000
   264 H128    17.5115   7.0098   4.0621   H         6 RES6   0.0000
   265 H129    18.2085   7.4261   2.6796   H         6 RES6   0.0000
   266 C122    17.3057   8.8756   3.5870   C.3       6 RES6   0.0000
   267 H130    17.0331   9.3998   2.8055   H         6 RES6   0.0000
   268 H131    18.1733   9.1963   3.9101   H         6 RES6   0.0000
   269 H132    16.6367   8.9804   4.2973   H         6 RES6   0.0000
   270 O3      16.2361   7.1146   2.5204   O.3       6 RES6   0.0000
@<TRIPOS>BOND
     1     1   140    1
     2     2     3    1
     3     4     2    1
     4     5     6    1
     5     7     5    1
     6     8     9    1
     7    10     8    1
     8    11    12    1
     9    13    11    1
    10    14    15    1
    11    16    14    1
    12    17    18    1
    13    19    17    1
    14    20    21    1
    15    22    20    1
    16    23    24    1
    17    25    23    1
    18    26    27    1
    19    27    28    1
    20    29    27    1
    21    30    27    1
    22    31    32    1
    23    32    33    1
    24    34    32    1
    25    35    32    1
    26    36    37   ar
    27    37    38    1
    28    39    37   ar
    29    40    39    1
    30    41    39   ar
    31    42    41    1
    32    43    41   ar
    33    44    43    1
    34    45    36   ar
    35    46    45    1
    36    47    48    1
    37    49    47    1
    38    50    47    1
    39    51    50   ar
    40    52    51    1
    41    53    51   ar
    42    54    53    1
    43    55    53   ar
    44    56    55    1
    45    57    55   ar
    46    58    57    1
    47    59    50   ar
    48    60    59    1
    49    61    62    1
    50    63    61    1
    51    64    61    1
    52    65    64   ar
    53    66    65    1
    54    67    65   ar
    55    68    67    1
    56    69    67   ar
    57    70    69    1
    58    71    69   ar
    59    72    71    1
    60    73    64   ar
    61    74    73    1
    62    75    76   ar
    63    76    77    1
    64    78    76   ar
    65    79    78    1
    66    80    78   ar
    67    81    80    1
    68    82    80   ar
    69    83    82    1
    70    84    75   ar
    71    85    84    1
    72    86    87   ar
    73    87    88    1
    74    89    87   ar
    75    90    89    1
    76    91    89   ar
    77    92    91    1
    78    93    91   ar
    79    94    93    1
    80    95    86   ar
    81    96    95    1
    82    97    98    1
    83    99    97    1
    84   100    97    1
    85   101   100   ar
    86   102   101    1
    87   103   101   ar
    88   104   103    1
    89   105   103   ar
    90   106   105    1
    91   107   105   ar
    92   108   107    1
    93   109   100   ar
    94   110   109    1
    95   111   112    1
    96   113   111    1
    97   114   111    1
    98   115   114   ar
    99   116   115    1
   100   117   115   ar
   101   118   117    1
   102   119   117   ar
   103   120   119    1
   104   121   119   ar
   105   122   121    1
   106   123   114   ar
   107   124   123    1
   108   125   126   ar
   109   126   127    1
   110   128   126   ar
   111   129   128    1
   112   130   128   ar
   113   131   130    1
   114   132   130   ar
   115   133   132    1
   116   134   125   ar
   117   135   134    1
   118   136     2    1
   119   137     8    1
   120   138    14    1
   121   139    20    1
   122   140    26    3
   123   141     1    1
   124   142     1    1
   125   143     1    1
   126   144     1    1
   127   145     1    1
   128     2   142    1
   129     5   136    1
   130     5   143    1
   131     8   142    1
   132    11   137    1
   133    11   143    1
   134    14   144    1
   135    17   138    1
   136    17   145    1
   137    20   144    1
   138    23   139    1
   139    23   145    1
   140    31   141    3
   141    36   142    1
   142    43    45   ar
   143    47   136    1
   144    57    59   ar
   145    61   137    1
   146    71    73   ar
   147    75   143    1
   148    82    84   ar
   149    86   144    1
   150    93    95   ar
   151    97   139    1
   152   107   109   ar
   153   111   138    1
   154   121   123   ar
   155   125   145    1
   156   132   134   ar
   157   146   147   ar
   158   147   148    1
   159   149   147   ar
   160   150   149    1
   161   151   149   ar
   162   152   151    1
   163   153   151   ar
   164   154   153    1
   165   155   146   ar
   166   156   155    1
   167   157   158   ar
   168   158   159    1
   169   160   158   ar
   170   161   160    1
   171   162   160   ar
   172   163   162    1
   173   164   162   ar
   174   165   164    1
   175   166   157   ar
   176   167   166    1
   177   168   169   ar
   178   169   170    1
   179   171   169   ar
   180   172   171    1
   181   173   171   ar
   182   174   173    1
   183   175   173   ar
   184   176   175    1
   185   177   168   ar
   186   178   177    1
   187   179   180   ar
   188   180   181    1
   189   182   180   ar
   190   183   182    1
   191   184   182   ar
   192   185   184    1
   193   186   184   ar
   194   187   186    1
   195   188   179   ar
   196   189   188    1
   197   190   146    1
   198   153   155   ar
   199   157   190    1
   200   164   166   ar
   201   168   190    1
   202   175   177   ar
   203   179   190    1
   204   186   188   ar
   205   191   192   ar
   206   192   193    1
   207   194   192   ar
   208   195   194    1
   209   196   194   ar
   210   197   196    1
   211   198   196   ar
   212   199   198    1
   213   200   191   ar
   214   201   200    1
   215   202   203   ar
   216   203   204    1
   217   205   203   ar
   218   206   205    1
   219   207   205   ar
   220   208   207    1
   221   209   207   ar
   222   210   209    1
   223   211   202   ar
   224   212   211    1
   225   213   214   ar
   226   214   215    1
   227   216   214   ar
   228   217   216    1
   229   218   216   ar
   230   219   218    1
   231   220   218   ar
   232   221   220    1
   233   222   213   ar
   234   223   222    1
   235   224   225   ar
   236   225   226    1
   237   227   225   ar
   238   228   227    1
   239   229   227   ar
   240   230   229    1
   241   231   229   ar
   242   232   231    1
   243   233   224   ar
   244   234   233    1
   245   235   191    1
   246   198   200   ar
   247   202   235    1
   248   209   211   ar
   249   213   235    1
   250   220   222   ar
   251   224   235    1
   252   231   233   ar
   253   236   237    1
   254   238   236    1
   255   239   236    1
   256   240   236    1
   257   241   240    1
   258   242   241    1
   259   243   241    1
   260   244   241    1
   261   245   240    2
   262   246   247    1
   263   248   246    1
   264   249   246    1
   265   250   246    1
   266   251   250    1
   267   252   251    1
   268   253   251    1
   269   254   251    1
   270   255   250    2
   271   256   257    1
   272   258   256    1
   273   259   256    1
   274   260   256    1
   275   261   260    1
   276   262   260    1
   277   263   264    1
   278   265   263    1
   279   266   263    1
   280   267   266    1
   281   268   266    1
   282   269   266    1
   283   270   260    1
   284   263   270    1
@<TRIPOS>SUBSTRUCTURE
     1 RES1        1 GROUP             0 ****  ****    0  
     2 RES2      146 GROUP             0 ****  ****    0  
     3 RES3      191 GROUP             0 ****  ****    0  
     4 RES4      236 GROUP             0 ****  ****    0  
     5 RES5      246 GROUP             0 ****  ****    0  
     6 RES6      256 GROUP             0 ****  ****    0  
@<TRIPOS>CRYSIN
   14.6422   30.8394   24.1506   90.0000  100.3850   90.0000   231     1
