@<TRIPOS>MOLECULE
MIYBUU
    78    81     5     0     0
SMALL
USER_CHARGES
****
Generated from the CSD

@<TRIPOS>ATOM
     1 Fe1     -1.0472  13.2826  10.0994   Fe        1 RES1   2.0000
     2 N1       0.7466  12.5433   9.4586   N.ar      1 RES1   0.0000
     3 N2      -2.9563  13.6459  10.4852   N.ar      1 RES1   0.0000
     4 N3      -0.9945  11.8165  11.5294   N.ar      1 RES1   0.0000
     5 N4      -0.3619  14.7396  11.1642   N.1       1 RES1   0.0000
     6 N5      -1.7545  11.8129   8.9990   N.3       1 RES1   0.0000
     7 N6      -1.2793  14.3638   8.4641   N.ar      1 RES1   0.0000
     8 C1      -3.7963  12.7046  10.0239   C.ar      1 RES1   0.0000
     9 C2      -3.4838  14.7360  11.0761   C.ar      1 RES1   0.0000
    10 H1      -2.9104  15.4043  11.3756   H         1 RES1   0.0000
    11 C3      -0.9466  10.6129  10.9176   C.ar      1 RES1   0.0000
    12 C4       0.5775  11.2280   9.1543   C.ar      1 RES1   0.0000
    13 C5       1.9771  13.0857   9.2552   C.ar      1 RES1   0.0000
    14 C6      -0.7993  10.7299   9.4218   C.3       1 RES1   0.0000
    15 H2      -0.9786   9.8808   8.9653   H         1 RES1   0.0000
    16 C7      -1.6369  13.6405   7.3766   C.ar      1 RES1   0.0000
    17 C8      -4.8393  14.8991  11.2555   C.ar      1 RES1   0.0000
    18 H3      -5.1733  15.6631  11.6671   H         1 RES1   0.0000
    19 C9      -1.0692  11.8183  12.8875   C.ar      1 RES1   0.0000
    20 C10     -5.1598  12.8198  10.1825   C.ar      1 RES1   0.0000
    21 H4      -5.7230  12.1533   9.8606   H         1 RES1   0.0000
    22 C11     -3.1611  11.5116   9.3721   C.3       1 RES1   0.0000
    23 H5      -3.1815  10.7582   9.9823   H         1 RES1   0.0000
    24 H6      -3.6628  11.2705   8.5778   H         1 RES1   0.0000
    25 C12     -0.9304   9.4021  11.5774   C.ar      1 RES1   0.0000
    26 H7      -0.8806   8.5991  11.1114   H         1 RES1   0.0000
    27 C13     -5.6883  13.9135  10.8167   C.ar      1 RES1   0.0000
    28 H8      -6.6064  13.9880  10.9464   H         1 RES1   0.0000
    29 C14      1.5908  10.4161   8.7043   C.ar      1 RES1   0.0000
    30 H9       1.4330   9.5191   8.5121   H         1 RES1   0.0000
    31 C15     -1.6268  12.1675   7.5528   C.3       1 RES1   0.0000
    32 H10     -0.7991  11.8041   7.2021   H         1 RES1   0.0000
    33 H11     -2.3621  11.7775   7.0563   H         1 RES1   0.0000
    34 C16      2.1867  14.5304   9.4970   C.3       1 RES1   0.0000
    35 H12      1.4462  15.0268   9.1399   H         1 RES1   0.0000
    36 H13      2.9984  14.8123   9.0678   H         1 RES1   0.0000
    37 H14      2.2522  14.6917  10.4419   H         1 RES1   0.0000
    38 C17      0.0375  15.6383  11.7920   C.1       1 RES1   0.0000
    39 C18     -1.2491  15.7057   8.3471   C.ar      1 RES1   0.0000
    40 H15     -1.0262  16.2162   9.0919   H         1 RES1   0.0000
    41 C19      2.8453  10.9621   8.5425   C.ar      1 RES1   0.0000
    42 H16      3.5651  10.4356   8.2767   H         1 RES1   0.0000
    43 C20     -1.9438  14.2468   6.1771   C.ar      1 RES1   0.0000
    44 H17     -2.1981  13.7327   5.4452   H         1 RES1   0.0000
    45 C21      3.0023  12.2969   8.7844   C.ar      1 RES1   0.0000
    46 H18      3.8315  12.6869   8.6242   H         1 RES1   0.0000
    47 C22     -1.0506  10.6288  13.5937   C.ar      1 RES1   0.0000
    48 H19     -1.0789  10.6465  14.5226   H         1 RES1   0.0000
    49 C23     -1.5334  16.3509   7.1700   C.ar      1 RES1   0.0000
    50 H20     -1.4956  17.2780   7.1220   H         1 RES1   0.0000
    51 C24     -0.9887   9.4323  12.9451   C.ar      1 RES1   0.0000
    52 H21     -0.9861   8.6381  13.4288   H         1 RES1   0.0000
    53 C25     -1.8742  15.6170   6.0714   C.ar      1 RES1   0.0000
    54 H22     -2.0556  16.0372   5.2610   H         1 RES1   0.0000
    55 C26     -1.1713  13.1194  13.6178   C.3       1 RES1   0.0000
    56 H23     -0.3234  13.5696  13.5889   H         1 RES1   0.0000
    57 H24     -1.4164  12.9563  14.5306   H         1 RES1   0.0000
    58 H25     -1.8391  13.6689  13.1998   H         1 RES1   0.0000
    59 C27      0.5384  16.6948  12.6056   C.3       1 RES1   0.0000
    60 H26      0.7723  16.3509  13.4704   H         1 RES1   0.0000
    61 H27     -0.1351  17.3720  12.7017   H         1 RES1   0.0000
    62 H28      1.3171  17.0759  12.1908   H         1 RES1   0.0000
    63 F1       5.7666   7.4522  10.3571   F         2 RES2   0.0000
    64 B1       6.2855   8.6860  10.4868   B         2 RES2  -1.0000
    65 F2       5.6536   9.6024   9.8414   F         2 RES2   0.0000
    66 F3       6.5641   8.9980  11.6062   F         2 RES2   0.0000
    67 F4       7.4794   8.5849   9.8910   F         2 RES2   0.0000
    68 F5       6.3794  11.6091   4.7902   F         3 RES3   0.0000
    69 F6       5.9443  10.6714   6.6655   F         3 RES3   0.0000
    70 F7       6.9030  12.6620   6.5775   F         3 RES3   0.0000
    71 F8       4.9590  12.4316   5.9529   F         3 RES3   0.0000
    72 B2       6.1369  11.8112   6.0249   B         3 RES3  -1.0000
    73 O1       5.8067  15.7394   5.3395   O.3       4 RES4   0.0000
    74 H29      5.0643  16.0691   5.5829   H         4 RES4   0.0000
    75 H30      6.2627  15.5249   6.0265   H         4 RES4   0.0000
    76 O2       5.1995  16.7781   7.1412   O.3       5 RES5   0.0000
    77 H31      5.4088  16.2729   6.4894   H         5 RES5   0.0000
    78 H32      5.3661  16.3793   7.8731   H         5 RES5   0.0000
@<TRIPOS>BOND
     1     1     2    1
     2     2    12   ar
     3     3     1    1
     4     4     1    1
     5     5     1    1
     6     6     1    1
     7     7     1    1
     8     8     3   ar
     9     9     3   ar
    10    10     9    1
    11    11     4   ar
    12    12    14    1
    13    13     2   ar
    14    14     6    1
    15    15    14    1
    16    16     7   ar
    17    17     9   ar
    18    18    17    1
    19    19     4   ar
    20    20     8   ar
    21    21    20    1
    22    22     6    1
    23    23    22    1
    24    24    22    1
    25    25    11   ar
    26    26    25    1
    27    27    17   ar
    28    28    27    1
    29    29    12   ar
    30    30    29    1
    31    31     6    1
    32    32    31    1
    33    33    31    1
    34    34    13    1
    35    35    34    1
    36    36    34    1
    37    37    34    1
    38    38     5    3
    39    39     7   ar
    40    40    39    1
    41    41    29   ar
    42    42    41    1
    43    43    16   ar
    44    44    43    1
    45    45    13   ar
    46    46    45    1
    47    47    19   ar
    48    48    47    1
    49    49    39   ar
    50    50    49    1
    51    51    25   ar
    52    52    51    1
    53    53    43   ar
    54    54    53    1
    55    55    19    1
    56    56    55    1
    57    57    55    1
    58    58    55    1
    59    59    38    1
    60    60    59    1
    61    61    59    1
    62    62    59    1
    63     8    22    1
    64    11    14    1
    65    16    31    1
    66    20    27   ar
    67    41    45   ar
    68    47    51   ar
    69    49    53   ar
    70    63    64    1
    71    64    65    1
    72    66    64    1
    73    67    64    1
    74    68    72    1
    75    69    72    1
    76    70    72    1
    77    71    72    1
    78    73    74    1
    79    75    73    1
    80    76    77    1
    81    78    76    1
@<TRIPOS>SUBSTRUCTURE
     1 RES1        1 GROUP             0 ****  ****    0  
     2 RES2       63 GROUP             0 ****  ****    0  
     3 RES3       68 GROUP             0 ****  ****    0  
     4 RES4       73 GROUP             0 ****  ****    0  
     5 RES5       76 GROUP             0 ****  ****    0  
@<TRIPOS>CRYSIN
   11.7022   17.7265   16.9574   90.0000  109.1890   90.0000    14     1
