@<TRIPOS>MOLECULE
MOBJET
   122   127     2     0     0
SMALL
USER_CHARGES
****
Generated from the CSD

@<TRIPOS>ATOM
     1 Fe1      8.6782   5.5497   7.4759   Fe        1 RES1   1.0000
     2 P1       8.6266   7.8359   7.3983   P.3       1 RES1   0.0000
     3 P2       6.9463   5.7277   8.8137   P.3       1 RES1   0.0000
     4 O1       7.6021   5.6567   5.7292   O.co2     1 RES1   0.0000
     5 C1       9.1988  10.4070   8.5435   C.3       1 RES1   0.0000
     6 H1       9.4644  10.7553   7.6772   H         1 RES1   0.0000
     7 H2       9.6952  10.8618   9.2400   H         1 RES1   0.0000
     8 H3       8.2477  10.5555   8.6750   H         1 RES1   0.0000
     9 C2       9.4922   8.9092   8.6034   C.3       1 RES1   0.0000
    10 H4       9.2717   8.5931   9.5045   H         1 RES1   0.0000
    11 H5      10.4572   8.7862   8.4802   H         1 RES1   0.0000
    12 C3       8.9663   8.6564   5.7984   C.3       1 RES1   0.0000
    13 H6       8.4803   8.1824   5.0925   H         1 RES1   0.0000
    14 H7       8.6191   9.5721   5.8354   H         1 RES1   0.0000
    15 C4      10.4416   8.7092   5.4228   C.3       1 RES1   0.0000
    16 H8      10.9241   9.2369   6.0783   H         1 RES1   0.0000
    17 H9      10.5387   9.1148   4.5467   H         1 RES1   0.0000
    18 H10     10.8026   7.8095   5.4026   H         1 RES1   0.0000
    19 C5       6.8696   8.2262   7.7120   C.3       1 RES1   0.0000
    20 H11      6.7481   9.1925   7.8239   H         1 RES1   0.0000
    21 H12      6.3125   7.9249   6.9631   H         1 RES1   0.0000
    22 C6       6.4843   7.4861   8.9960   C.3       1 RES1   0.0000
    23 H13      5.5210   7.5653   9.1511   H         1 RES1   0.0000
    24 H14      6.9547   7.8783   9.7618   H         1 RES1   0.0000
    25 C7       6.9981   5.0835  10.5545   C.3       1 RES1   0.0000
    26 H15      7.4615   4.2200  10.5408   H         1 RES1   0.0000
    27 H16      7.5483   5.6984  11.0866   H         1 RES1   0.0000
    28 C8       5.7449   4.9037  11.2429   C.3       1 RES1   0.0000
    29 H17      5.2260   5.7228  11.1900   H         1 RES1   0.0000
    30 H18      5.9133   4.6884  12.1734   H         1 RES1   0.0000
    31 H19      5.2503   4.1800  10.8269   H         1 RES1   0.0000
    32 C9       5.4822   4.9605   8.0112   C.3       1 RES1   0.0000
    33 H20      5.6720   4.8993   7.0520   H         1 RES1   0.0000
    34 H21      5.4100   4.0424   8.3480   H         1 RES1   0.0000
    35 C10      4.1273   5.6030   8.1605   C.3       1 RES1   0.0000
    36 H22      3.8705   5.6030   9.0958   H         1 RES1   0.0000
    37 H23      3.4747   5.1035   7.6459   H         1 RES1   0.0000
    38 H24      4.1638   6.5153   7.8359   H         1 RES1   0.0000
    39 C11      8.6782   5.5497   5.0869   C.2       1 RES1   0.0000
    40 C12      8.6782   5.5497   3.5897   C.3       1 RES1   0.0000
    41 P1B      8.7297   3.2634   7.3983   P.3       1 RES1   0.0000
    42 P2B     10.4100   5.3716   8.8137   P.3       1 RES1   0.0000
    43 O1B      9.7542   5.4427   5.7292   O.co2     1 RES1   0.0000
    44 C1B      8.1575   0.6924   8.5435   C.3       1 RES1   0.0000
    45 H1B      7.8919   0.3441   7.6772   H         1 RES1   0.0000
    46 H2B      7.6611   0.2375   9.2400   H         1 RES1   0.0000
    47 H3B      9.1086   0.5439   8.6750   H         1 RES1   0.0000
    48 C2B      7.8641   2.1901   8.6034   C.3       1 RES1   0.0000
    49 H4B      8.0846   2.5062   9.5045   H         1 RES1   0.0000
    50 H5B      6.8991   2.3131   8.4802   H         1 RES1   0.0000
    51 C3B      8.3900   2.4430   5.7984   C.3       1 RES1   0.0000
    52 H6B      8.8760   2.9169   5.0925   H         1 RES1   0.0000
    53 H7B      8.7372   1.5273   5.8354   H         1 RES1   0.0000
    54 C4B      6.9147   2.3901   5.4228   C.3       1 RES1   0.0000
    55 H8B      6.4322   1.8625   6.0783   H         1 RES1   0.0000
    56 H9B      6.8176   1.9846   4.5467   H         1 RES1   0.0000
    57 H10B     6.5537   3.2898   5.4026   H         1 RES1   0.0000
    58 C5B     10.4867   2.8732   7.7120   C.3       1 RES1   0.0000
    59 H11B    10.6082   1.9069   7.8239   H         1 RES1   0.0000
    60 H12B    11.0438   3.1744   6.9631   H         1 RES1   0.0000
    61 C6B     10.8720   3.6133   8.9960   C.3       1 RES1   0.0000
    62 H13B    11.8353   3.5340   9.1511   H         1 RES1   0.0000
    63 H14B    10.4016   3.2210   9.7618   H         1 RES1   0.0000
    64 C7B     10.3582   6.0158  10.5545   C.3       1 RES1   0.0000
    65 H15B     9.8948   6.8794  10.5408   H         1 RES1   0.0000
    66 H16B     9.8080   5.4009  11.0866   H         1 RES1   0.0000
    67 C8B     11.6114   6.1957  11.2429   C.3       1 RES1   0.0000
    68 H17B    12.1303   5.3765  11.1900   H         1 RES1   0.0000
    69 H18B    11.4430   6.4110  12.1734   H         1 RES1   0.0000
    70 H19B    12.1060   6.9193  10.8269   H         1 RES1   0.0000
    71 C9B     11.8741   6.1388   8.0112   C.3       1 RES1   0.0000
    72 H20B    11.6843   6.2001   7.0520   H         1 RES1   0.0000
    73 H21B    11.9463   7.0570   8.3480   H         1 RES1   0.0000
    74 C10B    13.2290   5.4964   8.1605   C.3       1 RES1   0.0000
    75 H22B    13.4858   5.4964   9.0958   H         1 RES1   0.0000
    76 H23B    13.8816   5.9959   7.6459   H         1 RES1   0.0000
    77 H24B    13.1925   4.5840   7.8359   H         1 RES1   0.0000
    78 C13      4.6098  11.4994  10.6829   C.ar      2 RES2   0.0000
    79 C14      4.2367  11.0902   9.4014   C.ar      2 RES2   0.0000
    80 H28      3.7264  10.3069   9.3098   H         2 RES2   0.0000
    81 C15      4.5890  11.7875   8.2612   C.ar      2 RES2   0.0000
    82 H29      4.3235  11.4723   7.4175   H         2 RES2   0.0000
    83 C16      5.3232  12.9374   8.3559   C.ar      2 RES2   0.0000
    84 H30      5.5644  13.4102   7.5810   H         2 RES2   0.0000
    85 C17      5.7068  13.3994   9.5959   C.ar      2 RES2   0.0000
    86 H31      6.2066  14.1916   9.6728   H         2 RES2   0.0000
    87 C18      5.3509  12.6861  10.7360   C.ar      2 RES2   0.0000
    88 H32      5.6165  13.0151  11.5747   H         2 RES2   0.0000
    89 C19      3.0122   9.6460  11.7728   C.ar      2 RES2   0.0000
    90 C20      3.0792   8.4590  11.0366   C.ar      2 RES2   0.0000
    91 H33      3.9208   8.1602  10.7452   H         2 RES2   0.0000
    92 C21      1.9630   7.7047  10.7178   C.ar      2 RES2   0.0000
    93 H34      2.0585   6.9127  10.2186   H         2 RES2   0.0000
    94 C22      0.7123   8.1096  11.1289   C.ar      2 RES2   0.0000
    95 H35     -0.0503   7.6097  10.9015   H         2 RES2   0.0000
    96 C23      0.6007   9.2555  11.8764   C.ar      2 RES2   0.0000
    97 H36     -0.2447   9.5410  12.1710   H         2 RES2   0.0000
    98 C24      1.7278   9.9934  12.2001   C.ar      2 RES2   0.0000
    99 H37      1.6245  10.7619  12.7312   H         2 RES2   0.0000
   100 B1       4.3391  10.5821  12.0219   B         2 RES2  -1.0000
   101 C13D     4.0683  11.4994  13.3609   C.ar      2 RES2   0.0000
   102 C14D     4.4415  11.0902  14.6424   C.ar      2 RES2   0.0000
   103 H28D     4.9518  10.3069  14.7340   H         2 RES2   0.0000
   104 C15D     4.0891  11.7875  15.7826   C.ar      2 RES2   0.0000
   105 H29D     4.3547  11.4723  16.6263   H         2 RES2   0.0000
   106 C16D     3.3550  12.9374  15.6879   C.ar      2 RES2   0.0000
   107 H30D     3.1137  13.4102  16.4628   H         2 RES2   0.0000
   108 C17D     2.9714  13.3994  14.4479   C.ar      2 RES2   0.0000
   109 H31D     2.4715  14.1916  14.3710   H         2 RES2   0.0000
   110 C18D     3.3272  12.6861  13.3078   C.ar      2 RES2   0.0000
   111 H32D     3.0617  13.0151  12.4691   H         2 RES2   0.0000
   112 C19D     5.6660   9.6460  12.2710   C.ar      2 RES2   0.0000
   113 C20D     5.5990   8.4590  13.0072   C.ar      2 RES2   0.0000
   114 H33D     4.7574   8.1602  13.2986   H         2 RES2   0.0000
   115 C21D     6.7152   7.7047  13.3260   C.ar      2 RES2   0.0000
   116 H34D     6.6197   6.9127  13.8252   H         2 RES2   0.0000
   117 C22D     7.9658   8.1096  12.9149   C.ar      2 RES2   0.0000
   118 H35D     8.7285   7.6097  13.1423   H         2 RES2   0.0000
   119 C23D     8.0774   9.2555  12.1674   C.ar      2 RES2   0.0000
   120 H36D     8.9229   9.5410  11.8728   H         2 RES2   0.0000
   121 C24D     6.9503   9.9934  11.8437   C.ar      2 RES2   0.0000
   122 H37D     7.0536  10.7619  11.3126   H         2 RES2   0.0000
@<TRIPOS>BOND
     1     1     2    1
     2     2     9    1
     3     3     1    1
     4     4     1    1
     5     5     6    1
     6     7     5    1
     7     8     5    1
     8     9     5    1
     9    10     9    1
    10    11     9    1
    11    12     2    1
    12    13    12    1
    13    14    12    1
    14    15    12    1
    15    16    15    1
    16    17    15    1
    17    18    15    1
    18    19     2    1
    19    20    19    1
    20    21    19    1
    21    22     3    1
    22    23    22    1
    23    24    22    1
    24    25     3    1
    25    26    25    1
    26    27    25    1
    27    28    25    1
    28    29    28    1
    29    30    28    1
    30    31    28    1
    31    32     3    1
    32    33    32    1
    33    34    32    1
    34    35    32    1
    35    36    35    1
    36    37    35    1
    37    38    35    1
    38    39     4   un
    39    40    39    1
    40    41     1    1
    41    42     1    1
    42    43     1    1
    43    44    45    1
    44    46    44    1
    45    47    44    1
    46    48    41    1
    47    49    48    1
    48    50    48    1
    49    51    41    1
    50    52    51    1
    51    53    51    1
    52    54    51    1
    53    55    54    1
    54    56    54    1
    55    57    54    1
    56    58    41    1
    57    59    58    1
    58    60    58    1
    59    61    42    1
    60    62    61    1
    61    63    61    1
    62    64    42    1
    63    65    64    1
    64    66    64    1
    65    67    64    1
    66    68    67    1
    67    69    67    1
    68    70    67    1
    69    71    42    1
    70    72    71    1
    71    73    71    1
    72    74    71    1
    73    75    74    1
    74    76    74    1
    75    77    74    1
    76    19    22    1
    77    39    43   un
    78    44    48    1
    79    58    61    1
    80    78    79   ar
    81    79    80    1
    82    81    79   ar
    83    82    81    1
    84    83    81   ar
    85    84    83    1
    86    85    83   ar
    87    86    85    1
    88    87    78   ar
    89    88    87    1
    90    89    90   ar
    91    90    91    1
    92    92    90   ar
    93    93    92    1
    94    94    92   ar
    95    95    94    1
    96    96    94   ar
    97    97    96    1
    98    98    89   ar
    99    99    98    1
   100   100    78    1
   101   101   100    1
   102   102   101   ar
   103   103   102    1
   104   104   102   ar
   105   105   104    1
   106   106   104   ar
   107   107   106    1
   108   108   106   ar
   109   109   108    1
   110   110   101   ar
   111   111   110    1
   112   112   100    1
   113   113   112   ar
   114   114   113    1
   115   115   113   ar
   116   116   115    1
   117   117   115   ar
   118   118   117    1
   119   119   117   ar
   120   120   119    1
   121   121   112   ar
   122   122   121    1
   123    85    87   ar
   124    89   100    1
   125    96    98   ar
   126   108   110   ar
   127   119   121   ar
@<TRIPOS>SUBSTRUCTURE
     1 RES1        1 GROUP             0 ****  ****    0  
     2 RES2       78 GROUP             0 ****  ****    0  
@<TRIPOS>CRYSIN
   17.3563   22.1987   24.0438   90.0000   90.0000   90.0000    73     1
