@<TRIPOS>MOLECULE
MOFRAA
    90    98     2     0     0
SMALL
USER_CHARGES
****
Generated from the CSD

@<TRIPOS>ATOM
     1 Fe1      0.2308   2.3197  10.2379   Fe        1 RES1   2.0000
     2 N1       1.3639   2.4995   8.4125   N.ar      1 RES1   0.0000
     3 N2       1.8800   1.3282   7.9118   N.ar      1 RES1   0.0000
     4 N3       1.7228   0.7916  10.7651   N.ar      1 RES1   0.0000
     5 N4       1.9665  -0.1424   9.7874   N.ar      1 RES1   0.0000
     6 N5      -0.7810   0.7205   9.1639   N.ar      1 RES1   0.0000
     7 N6       0.0143  -0.1106   8.4217   N.ar      1 RES1   0.0000
     8 C1       1.9486   3.4640   7.7173   C.ar      1 RES1   0.0000
     9 C2       2.8444   2.9256   6.7816   C.ar      1 RES1   0.0000
    10 H1       3.3747   3.3991   6.1827   H         1 RES1   0.0000
    11 C3       2.7852   1.5693   6.9239   C.ar      1 RES1   0.0000
    12 C4       1.6396   4.9040   7.9538   C.3       1 RES1   0.0000
    13 H2       0.9691   4.9789   8.6377   H         1 RES1   0.0000
    14 H3       1.3132   5.2988   7.1419   H         1 RES1   0.0000
    15 H4       2.4349   5.3601   8.2353   H         1 RES1   0.0000
    16 C5       3.4912   0.4905   6.1714   C.3       1 RES1   0.0000
    17 H5       4.0800   0.8845   5.5233   H         1 RES1   0.0000
    18 H6       2.8464  -0.0631   5.7240   H         1 RES1   0.0000
    19 H7       4.0020  -0.0458   6.7836   H         1 RES1   0.0000
    20 C6       2.2930   0.3005  11.8677   C.ar      1 RES1   0.0000
    21 C7       2.8730  -0.9392  11.6087   C.ar      1 RES1   0.0000
    22 H8       3.3240  -1.4781  12.2189   H         1 RES1   0.0000
    23 C8       2.6532  -1.2165  10.2850   C.ar      1 RES1   0.0000
    24 C9       2.2811   1.0614  13.1577   C.3       1 RES1   0.0000
    25 H9       1.8063   1.8868  13.0379   H         1 RES1   0.0000
    26 H10      3.1828   1.2466  13.4290   H         1 RES1   0.0000
    27 H11      1.8446   0.5371  13.8344   H         1 RES1   0.0000
    28 C10      3.0337  -2.3898   9.4475   C.3       1 RES1   0.0000
    29 H12      2.7287  -2.2530   8.5476   H         1 RES1   0.0000
    30 H13      2.6277  -3.1838   9.8058   H         1 RES1   0.0000
    31 H14      3.9878  -2.4900   9.4516   H         1 RES1   0.0000
    32 C11     -2.0260   0.2745   8.9755   C.ar      1 RES1   0.0000
    33 C12     -2.0201  -0.8355   8.1227   C.ar      1 RES1   0.0000
    34 H15     -2.7614  -1.3205   7.8391   H         1 RES1   0.0000
    35 C13     -0.7139  -1.0709   7.7880   C.ar      1 RES1   0.0000
    36 C14     -3.1888   0.9540   9.6185   C.3       1 RES1   0.0000
    37 H16     -2.8752   1.6821  10.1590   H         1 RES1   0.0000
    38 H17     -3.6617   0.3266  10.1703   H         1 RES1   0.0000
    39 H18     -3.7780   1.2908   8.9387   H         1 RES1   0.0000
    40 C15     -0.1219  -2.1215   6.9157   C.3       1 RES1   0.0000
    41 H19     -0.8215  -2.6793   6.5666   H         1 RES1   0.0000
    42 H20      0.4878  -2.6580   7.4296   H         1 RES1   0.0000
    43 H21      0.3502  -1.7066   6.1908   H         1 RES1   0.0000
    44 C16      1.4512   0.0599   8.4514   C.3       1 RES1   0.0000
    45 H22      1.8180  -0.5433   8.0367   H         1 RES1   0.0000
    46 N1A     -0.9023   2.1398  12.0633   N.ar      1 RES1   0.0000
    47 N2A     -1.4184   3.3111  12.5639   N.ar      1 RES1   0.0000
    48 C3A     -2.3235   3.0700  13.5519   C.ar      1 RES1   0.0000
    49 C2A     -2.3827   1.7137  13.6942   C.ar      1 RES1   0.0000
    50 C1A     -1.4870   1.1753  12.7584   C.ar      1 RES1   0.0000
    51 C4A     -1.1779  -0.2647  12.5219   C.3       1 RES1   0.0000
    52 H2A     -0.5075  -0.3396  11.8381   H         1 RES1   0.0000
    53 H3A     -0.8516  -0.6594  13.3338   H         1 RES1   0.0000
    54 H4A     -1.9733  -0.7208  12.2404   H         1 RES1   0.0000
    55 H1A     -2.9131   1.2402  14.2931   H         1 RES1   0.0000
    56 C5A     -3.0296   4.1488  14.3044   C.3       1 RES1   0.0000
    57 H5A     -3.6184   3.7549  14.9524   H         1 RES1   0.0000
    58 H6A     -2.3847   4.7025  14.7518   H         1 RES1   0.0000
    59 H7A     -3.5403   4.6851  13.6921   H         1 RES1   0.0000
    60 C16A    -0.9896   4.5795  12.0244   C.3       1 RES1   0.0000
    61 N4A     -1.5048   4.7817  10.6883   N.ar      1 RES1   0.0000
    62 N3A     -1.2611   3.8478   9.7106   N.ar      1 RES1   0.0000
    63 N5A      1.2427   3.9188  11.3118   N.ar      1 RES1   0.0000
    64 N6A      0.4473   4.7499  12.0541   N.ar      1 RES1   0.0000
    65 C13A     1.1756   5.7102  12.6878   C.ar      1 RES1   0.0000
    66 C12A     2.4818   5.4748  12.3530   C.ar      1 RES1   0.0000
    67 C11A     2.4876   4.3649  11.5002   C.ar      1 RES1   0.0000
    68 C14A     3.6505   3.6853  10.8573   C.3       1 RES1   0.0000
    69 H16A     3.3369   2.9573  10.3167   H         1 RES1   0.0000
    70 H17A     4.1234   4.3127  10.3054   H         1 RES1   0.0000
    71 H18A     4.2397   3.3486  11.5371   H         1 RES1   0.0000
    72 H15A     3.2231   5.9598  12.6366   H         1 RES1   0.0000
    73 C15A     0.5836   6.7608  13.5601   C.3       1 RES1   0.0000
    74 H19A     1.2831   7.3186  13.9092   H         1 RES1   0.0000
    75 H20A    -0.0261   7.2973  13.0461   H         1 RES1   0.0000
    76 H21A     0.1114   6.3459  14.2849   H         1 RES1   0.0000
    77 H22A    -1.3564   5.1826  12.4390   H         1 RES1   0.0000
    78 C6A     -1.8313   4.3388   8.6080   C.ar      1 RES1   0.0000
    79 C7A     -2.4114   5.5785   8.8670   C.ar      1 RES1   0.0000
    80 H8A     -2.8623   6.1174   8.2568   H         1 RES1   0.0000
    81 C8A     -2.1916   5.8558  10.1908   C.ar      1 RES1   0.0000
    82 C10A    -2.5720   7.0291  11.0282   C.3       1 RES1   0.0000
    83 H12A    -2.2670   6.8924  11.9281   H         1 RES1   0.0000
    84 H13A    -2.1661   7.8231  10.6699   H         1 RES1   0.0000
    85 H14A    -3.5261   7.1293  11.0241   H         1 RES1   0.0000
    86 C9A     -1.8194   3.5779   7.3180   C.3       1 RES1   0.0000
    87 H9A     -1.3446   2.7525   7.4378   H         1 RES1   0.0000
    88 H10A    -2.7212   3.3927   7.0467   H         1 RES1   0.0000
    89 H11A    -1.3829   4.1022   6.6413   H         1 RES1   0.0000
    90 I1       4.8171  -3.6190   5.8661   I         2 RES2  -1.0000
@<TRIPOS>BOND
     1     1     2    1
     2     2     3   ar
     3     3    11   ar
     4     4     1    1
     5     5     4   ar
     6     6     1    1
     7     7     6   ar
     8     8     2   ar
     9     9     8   ar
    10    10     9    1
    11    11     9   ar
    12    12     8    1
    13    13    12    1
    14    14    12    1
    15    15    12    1
    16    16    11    1
    17    17    16    1
    18    18    16    1
    19    19    16    1
    20    20     4   ar
    21    21    20   ar
    22    22    21    1
    23    23     5   ar
    24    24    20    1
    25    25    24    1
    26    26    24    1
    27    27    24    1
    28    28    23    1
    29    29    28    1
    30    30    28    1
    31    31    28    1
    32    32     6   ar
    33    33    32   ar
    34    34    33    1
    35    35     7   ar
    36    36    32    1
    37    37    36    1
    38    38    36    1
    39    39    36    1
    40    40    35    1
    41    41    40    1
    42    42    40    1
    43    43    40    1
    44    44     3    1
    45    45    44    1
    46    46     1    1
    47    47    46   ar
    48    48    47   ar
    49    49    48   ar
    50    50    46   ar
    51    51    50    1
    52    52    51    1
    53    53    51    1
    54    54    51    1
    55    55    49    1
    56    56    48    1
    57    57    56    1
    58    58    56    1
    59    59    56    1
    60    60    47    1
    61    61    60    1
    62    62     1    1
    63    63     1    1
    64    64    60    1
    65    65    64   ar
    66    66    65   ar
    67    67    63   ar
    68    68    67    1
    69    69    68    1
    70    70    68    1
    71    71    68    1
    72    72    66    1
    73    73    65    1
    74    74    73    1
    75    75    73    1
    76    76    73    1
    77    77    60    1
    78    78    62   ar
    79    79    78   ar
    80    80    79    1
    81    81    61   ar
    82    82    81    1
    83    83    82    1
    84    84    82    1
    85    85    82    1
    86    86    78    1
    87    87    86    1
    88    88    86    1
    89    89    86    1
    90     5    44    1
    91     7    44    1
    92    21    23   ar
    93    33    35   ar
    94    49    50   ar
    95    61    62   ar
    96    63    64   ar
    97    66    67   ar
    98    79    81   ar
@<TRIPOS>SUBSTRUCTURE
     1 RES1        1 GROUP             0 ****  ****    0  
     2 RES2       90 GROUP             0 ****  ****    0  
@<TRIPOS>CRYSIN
    8.8062   10.5421   11.3549  104.0769  110.2473   92.6385     2     1
