@<TRIPOS>MOLECULE
MOFREE
   100   106     4     0     0
SMALL
USER_CHARGES
****
Generated from the CSD

@<TRIPOS>ATOM
     1 Fe1     10.3214  12.7753   0.0000   Fe        1 RES1   2.0000
     2 C1       8.1870  11.3841   1.8093   C.3       1 RES1   0.0000
     3 H1       7.5067  10.9420   2.3950   H         1 RES1   0.0000
     4 C2       9.8182  10.0427   3.2022   C.ar      1 RES1   0.0000
     5 C3      11.1653   9.8063   3.0680   C.ar      1 RES1   0.0000
     6 H2      11.7055   9.2851   3.6505   H         1 RES1   0.0000
     7 C4      11.5948  10.4706   1.9208   C.ar      1 RES1   0.0000
     8 C5       8.8566   9.5598   4.2293   C.3       1 RES1   0.0000
     9 H3       8.4591  10.3263   4.6898   H         1 RES1   0.0000
    10 H4       9.3270   8.9951   4.8781   H         1 RES1   0.0000
    11 H5       8.1493   9.0372   3.7947   H         1 RES1   0.0000
    12 C6      12.9584  10.4987   1.3194   C.3       1 RES1   0.0000
    13 H6      13.1044   9.6798   0.8010   H         1 RES1   0.0000
    14 H7      13.6288  10.5588   2.0325   H         1 RES1   0.0000
    15 H8      13.0396  11.2768   0.7289   H         1 RES1   0.0000
    16 C7       6.9251  10.2164  -0.0503   C.ar      1 RES1   0.0000
    17 C8       6.9501  10.3582  -1.4090   C.ar      1 RES1   0.0000
    18 H9       6.4107   9.8932  -2.0365   H         1 RES1   0.0000
    19 C9       7.9284  11.3240  -1.6969   C.ar      1 RES1   0.0000
    20 C10      6.1521   9.2953   0.8380   C.3       1 RES1   0.0000
    21 H10      5.4315   8.8750   0.3244   H         1 RES1   0.0000
    22 H11      5.7678   9.8050   1.5820   H         1 RES1   0.0000
    23 H12      6.7497   8.6029   1.1895   H         1 RES1   0.0000
    24 C11      8.3381  11.8555  -3.0296   C.3       1 RES1   0.0000
    25 H13      7.8361  12.6757  -3.2220   H         1 RES1   0.0000
    26 H14      8.1477  11.1873  -3.7206   H         1 RES1   0.0000
    27 H15      9.2969  12.0535  -3.0218   H         1 RES1   0.0000
    28 C12      7.1387  13.5086   2.6801   C.ar      1 RES1   0.0000
    29 C13      7.5399  14.8104   2.6513   C.ar      1 RES1   0.0000
    30 H16      7.0716  15.5527   3.0158   H         1 RES1   0.0000
    31 C14      8.7674  14.8538   1.9859   C.ar      1 RES1   0.0000
    32 C15      5.8943  12.8558   3.1840   C.3       1 RES1   0.0000
    33 H17      5.3641  12.5338   2.4250   H         1 RES1   0.0000
    34 H18      5.3693  13.5060   3.6966   H         1 RES1   0.0000
    35 H19      6.1318  12.1008   3.7607   H         1 RES1   0.0000
    36 C16      9.6192  16.0394   1.6721   C.3       1 RES1   0.0000
    37 H20     10.1694  16.2604   2.4511   H         1 RES1   0.0000
    38 H21      9.0471  16.8021   1.4478   H         1 RES1   0.0000
    39 H22     10.1998  15.8312   0.9111   H         1 RES1   0.0000
    40 N1      10.5681  11.1236   1.3649   N.ar      1 RES1   0.0000
    41 N2       9.4872  10.8400   2.1545   N.ar      1 RES1   0.0000
    42 N3       8.4801  11.7686  -0.5697   N.ar      1 RES1   0.0000
    43 N4       7.8495  11.0846   0.4359   N.ar      1 RES1   0.0000
    44 N5       9.1271  13.6278   1.6000   N.ar      1 RES1   0.0000
    45 N6       8.1299  12.8076   2.0612   N.ar      1 RES1   0.0000
    46 N1B     10.0747  14.4270  -1.3649   N.ar      1 RES1   0.0000
    47 C4B      9.0480  15.0800  -1.9208   C.ar      1 RES1   0.0000
    48 C3B      9.4775  15.7443  -3.0680   C.ar      1 RES1   0.0000
    49 C2B     10.8246  15.5079  -3.2022   C.ar      1 RES1   0.0000
    50 C5B     11.7862  15.9908  -4.2293   C.3       1 RES1   0.0000
    51 H3B     12.1837  15.2243  -4.6898   H         1 RES1   0.0000
    52 H4B     11.3158  16.5555  -4.8781   H         1 RES1   0.0000
    53 H5B     12.4935  16.5134  -3.7947   H         1 RES1   0.0000
    54 N2B     11.1556  14.7106  -2.1545   N.ar      1 RES1   0.0000
    55 C1B     12.4558  14.1665  -1.8093   C.3       1 RES1   0.0000
    56 H1B     13.1361  14.6086  -2.3950   H         1 RES1   0.0000
    57 N4B     12.7933  14.4660  -0.4359   N.ar      1 RES1   0.0000
    58 C7B     13.7177  15.3342   0.0503   C.ar      1 RES1   0.0000
    59 C8B     13.6927  15.1924   1.4090   C.ar      1 RES1   0.0000
    60 H9B     14.2321  15.6574   2.0365   H         1 RES1   0.0000
    61 C9B     12.7144  14.2266   1.6969   C.ar      1 RES1   0.0000
    62 C11B    12.3047  13.6951   3.0296   C.3       1 RES1   0.0000
    63 H13B    12.8067  12.8749   3.2220   H         1 RES1   0.0000
    64 H14B    12.4951  14.3633   3.7206   H         1 RES1   0.0000
    65 H15B    11.3459  13.4971   3.0218   H         1 RES1   0.0000
    66 N3B     12.1627  13.7820   0.5697   N.ar      1 RES1   0.0000
    67 N5B     11.5157  11.9228  -1.6000   N.ar      1 RES1   0.0000
    68 C14B    11.8754  10.6968  -1.9859   C.ar      1 RES1   0.0000
    69 C13B    13.1029  10.7402  -2.6513   C.ar      1 RES1   0.0000
    70 C12B    13.5041  12.0420  -2.6801   C.ar      1 RES1   0.0000
    71 C15B    14.7485  12.6948  -3.1840   C.3       1 RES1   0.0000
    72 H17B    15.2787  13.0168  -2.4250   H         1 RES1   0.0000
    73 H18B    15.2735  12.0446  -3.6966   H         1 RES1   0.0000
    74 H19B    14.5110  13.4498  -3.7607   H         1 RES1   0.0000
    75 N6B     12.5129  12.7430  -2.0612   N.ar      1 RES1   0.0000
    76 H16B    13.5712   9.9979  -3.0158   H         1 RES1   0.0000
    77 C16B    11.0236   9.5112  -1.6721   C.3       1 RES1   0.0000
    78 H20B    10.4734   9.2902  -2.4511   H         1 RES1   0.0000
    79 H21B    11.5957   8.7485  -1.4478   H         1 RES1   0.0000
    80 H22B    10.4430   9.7194  -0.9111   H         1 RES1   0.0000
    81 C10B    14.4907  16.2553  -0.8380   C.3       1 RES1   0.0000
    82 H10B    15.2113  16.6756  -0.3244   H         1 RES1   0.0000
    83 H11B    14.8750  15.7456  -1.5820   H         1 RES1   0.0000
    84 H12B    13.8931  16.9477  -1.1895   H         1 RES1   0.0000
    85 H2B      8.9373  16.2655  -3.6505   H         1 RES1   0.0000
    86 C6B      7.6844  15.0519  -1.3194   C.3       1 RES1   0.0000
    87 H6B      7.5384  15.8708  -0.8010   H         1 RES1   0.0000
    88 H7B      7.0140  14.9918  -2.0325   H         1 RES1   0.0000
    89 H8B      7.6032  14.2738  -0.7289   H         1 RES1   0.0000
    90 I1       4.6737   9.4901   4.6422   I         2 RES2  -1.0000
    91 C17      5.1855   6.5486  17.0893   C.3       3 RES3   0.0000
    92 H23      4.7256   7.4058  16.9071   H         3 RES3   0.0000
    93 H24      4.5978   5.8166  16.7729   H         3 RES3   0.0000
    94 Cl1      6.6675   6.5029  16.1990   Cl        3 RES3   0.0000
    95 Cl2      5.4192   6.3865  18.7940   Cl        3 RES3   0.0000
    96 C18      6.2816   5.9673   3.5644   C.3       4 RES4   0.0000
    97 H25      5.9490   6.8706   3.8007   H         4 RES4   0.0000
    98 H26      5.8265   5.3120   4.1492   H         4 RES4   0.0000
    99 Cl3      5.8851   5.6225   1.8841   Cl        4 RES4   0.0000
   100 Cl4      7.9924   5.8947   3.8420   Cl        4 RES4   0.0000
@<TRIPOS>BOND
     1     1    40    1
     2     2     3    1
     3     4     5   ar
     4     5     6    1
     5     7     5   ar
     6     8     4    1
     7     9     8    1
     8    10     8    1
     9    11     8    1
    10    12     7    1
    11    13    12    1
    12    14    12    1
    13    15    12    1
    14    16    17   ar
    15    17    18    1
    16    19    17   ar
    17    20    16    1
    18    21    20    1
    19    22    20    1
    20    23    20    1
    21    24    19    1
    22    25    24    1
    23    26    24    1
    24    27    24    1
    25    28    29   ar
    26    29    30    1
    27    31    29   ar
    28    32    28    1
    29    33    32    1
    30    34    32    1
    31    35    32    1
    32    36    31    1
    33    37    36    1
    34    38    36    1
    35    39    36    1
    36    40     7   ar
    37    41     2    1
    38    42     1    1
    39    43     2    1
    40    44     1    1
    41    45     2    1
    42    46     1    1
    43    47    46   ar
    44    48    47   ar
    45    49    48   ar
    46    50    49    1
    47    51    50    1
    48    52    50    1
    49    53    50    1
    50    54    46   ar
    51    55    54    1
    52    56    55    1
    53    57    55    1
    54    58    57   ar
    55    59    58   ar
    56    60    59    1
    57    61    59   ar
    58    62    61    1
    59    63    62    1
    60    64    62    1
    61    65    62    1
    62    66     1    1
    63    67     1    1
    64    68    67   ar
    65    69    68   ar
    66    70    69   ar
    67    71    70    1
    68    72    71    1
    69    73    71    1
    70    74    71    1
    71    75    55    1
    72    76    69    1
    73    77    68    1
    74    78    77    1
    75    79    77    1
    76    80    77    1
    77    81    58    1
    78    82    81    1
    79    83    81    1
    80    84    81    1
    81    85    48    1
    82    86    47    1
    83    87    86    1
    84    88    86    1
    85    89    86    1
    86     4    41   ar
    87    16    43   ar
    88    19    42   ar
    89    28    45   ar
    90    31    44   ar
    91    40    41   ar
    92    42    43   ar
    93    44    45   ar
    94    49    54   ar
    95    57    66   ar
    96    61    66   ar
    97    67    75   ar
    98    70    75   ar
    99    91    92    1
   100    93    91    1
   101    94    91    1
   102    95    91    1
   103    96    97    1
   104    98    96    1
   105    99    96    1
   106   100    96    1
@<TRIPOS>SUBSTRUCTURE
     1 RES1        1 GROUP             0 ****  ****    0  
     2 RES2       90 GROUP             0 ****  ****    0  
     3 RES3       91 GROUP             0 ****  ****    0  
     4 RES4       96 GROUP             0 ****  ****    0  
@<TRIPOS>CRYSIN
   10.3214   12.7753   20.1995   90.0000   97.5380   90.0000    14     1
