@<TRIPOS>MOLECULE
MOGWIO
    77    78     3     0     0
SMALL
NO_CHARGES
****
Generated from the CSD

@<TRIPOS>ATOM
     1 Dy1      0.3625   2.8061   3.5726   Dy        1 RES1   0.0000
     2 Fe1     -2.7003  -1.7275   3.5916   Fe        1 RES1   0.0000
     3 O1      -0.3937   2.4333   5.7847   O.2       1 RES1   0.0000
     4 O2       1.1062   4.6765   4.7501   O.2       1 RES1   0.0000
     5 O3      -1.8172   3.7148   3.6582   O.2       1 RES1   0.0000
     6 O4      -0.3913   2.3703   1.4114   O.2       1 RES1   0.0000
     7 O5       2.2685   2.1990   2.2697   O.3       1 RES1   0.0000
     8 O6       0.6854   4.7146   2.1436   O.3       1 RES1   0.0000
     9 O7       2.0799   1.8156   4.8848   O.3       1 RES1   0.0000
    10 N1      -0.5878   0.5470   3.5837   N.1       1 RES1   0.0000
    11 N2      -4.8044   0.5537   3.5092   N.1       1 RES1   0.0000
    12 N3      -2.4492  -2.0967   0.5359   N.1       1 RES1   0.0000
    13 N4      -4.9149  -3.8718   3.5737   N.1       1 RES1   0.0000
    14 N5      -0.4884  -3.8815   3.7313   N.1       1 RES1   0.0000
    15 N6      -2.7108  -1.6613   6.6731   N.1       1 RES1   0.0000
    16 N7      -2.6418   1.9943   5.9423   N.am      1 RES1   0.0000
    17 N8       1.4801   4.5670   6.9941   N.am      1 RES1   0.0000
    18 N9      -2.3493   5.3139   2.1508   N.am      1 RES1   0.0000
    19 N10     -0.7490   1.5847  -0.6878   N.am      1 RES1   0.0000
    20 C1      -1.3480  -0.3261   3.5737   C.1       1 RES1   0.0000
    21 C2      -4.0427  -0.3097   3.5207   C.1       1 RES1   0.0000
    22 C3      -2.5831  -1.9097   1.6593   C.1       1 RES1   0.0000
    23 C4      -4.0974  -3.0839   3.5966   C.1       1 RES1   0.0000
    24 C5      -1.3172  -3.0931   3.6855   C.1       1 RES1   0.0000
    25 C6      -2.7275  -1.6669   5.5311   C.1       1 RES1   0.0000
    26 C7      -1.4075   2.1006   6.4381   C.2       1 RES1   0.0000
    27 C8      -1.4365   1.7663   7.8596   C.3       1 RES1   0.0000
    28 C9      -2.9463   1.6937   8.1748   C.3       1 RES1   0.0000
    29 C10     -3.6698   1.6669   6.9009   C.3       1 RES1   0.0000
    30 C11      1.4021   5.1733   5.8291   C.2       1 RES1   0.0000
    31 C12      1.7297   6.6270   6.0598   C.3       1 RES1   0.0000
    32 C13      2.0041   6.7411   7.5372   C.3       1 RES1   0.0000
    33 C14      1.9156   5.3817   8.1118   C.3       1 RES1   0.0000
    34 C15     -2.6126   4.4073   3.0507   C.2       1 RES1   0.0000
    35 C16     -4.1010   4.3520   3.1882   C.3       1 RES1   0.0000
    36 C17     -4.6307   5.1825   2.0706   C.3       1 RES1   0.0000
    37 C18     -3.5125   5.9877   1.5590   C.3       1 RES1   0.0000
    38 C19     -1.1606   1.9894   0.5159   C.2       1 RES1   0.0000
    39 C20     -2.6337   1.9165   0.5302   C.3       1 RES1   0.0000
    40 C21     -3.0278   1.3275  -0.7752   C.3       1 RES1   0.0000
    41 C22     -1.7786   1.2780  -1.6206   C.3       1 RES1   0.0000
    42 H1      -2.8012   2.1336   5.2588   H         1 RES1   0.0000
    43 H2       1.5581   3.6632   6.9640   H         1 RES1   0.0000
    44 H3      -1.7863   5.5364   1.9058   H         1 RES1   0.0000
    45 H4       0.0690   1.6466  -0.9027   H         1 RES1   0.0000
    46 H5       2.2564   2.1472   1.5762   H         1 RES1   0.0000
    47 H6       2.9008   1.8207   2.4073   H         1 RES1   0.0000
    48 H7       0.7066   4.7148   1.2323   H         1 RES1   0.0000
    49 H8       1.1874   5.2991   2.3213   H         1 RES1   0.0000
    50 H9       2.7612   1.5458   4.6570   H         1 RES1   0.0000
    51 H10      2.1276   1.7377   5.4308   H         1 RES1   0.0000
    52 H11     -1.0226   0.9302   8.0215   H         1 RES1   0.0000
    53 H12     -1.0170   2.4409   8.3768   H         1 RES1   0.0000
    54 H13     -3.1242   0.9133   8.6735   H         1 RES1   0.0000
    55 H14     -3.1940   2.4623   8.6763   H         1 RES1   0.0000
    56 H15     -4.3624   2.3132   6.8981   H         1 RES1   0.0000
    57 H16     -4.0285   0.8060   6.7433   H         1 RES1   0.0000
    58 H17      2.4756   6.8883   5.5569   H         1 RES1   0.0000
    59 H18      0.9738   7.1700   5.8248   H         1 RES1   0.0000
    60 H19      2.8714   7.0954   7.6733   H         1 RES1   0.0000
    61 H20      1.3589   7.3043   7.9498   H         1 RES1   0.0000
    62 H21      1.2922   5.3520   8.8239   H         1 RES1   0.0000
    63 H22      2.7689   5.0934   8.4241   H         1 RES1   0.0000
    64 H23     -4.4099   3.4535   3.1166   H         1 RES1   0.0000
    65 H24     -4.3727   4.7099   4.0265   H         1 RES1   0.0000
    66 H25     -4.9672   4.6188   1.3770   H         1 RES1   0.0000
    67 H26     -5.3271   5.7464   2.3786   H         1 RES1   0.0000
    68 H27     -3.5775   6.8884   1.8542   H         1 RES1   0.0000
    69 H28     -3.4759   5.9660   0.6104   H         1 RES1   0.0000
    70 H29     -2.9253   1.3589   1.2481   H         1 RES1   0.0000
    71 H30     -3.0091   2.7815   0.6376   H         1 RES1   0.0000
    72 H31     -3.3803   0.4523  -0.6520   H         1 RES1   0.0000
    73 H32     -3.6873   1.8731  -1.1951   H         1 RES1   0.0000
    74 H33     -1.8124   1.9193  -2.3199   H         1 RES1   0.0000
    75 H34     -1.6505   0.4123  -1.9889   H         1 RES1   0.0000
    76 O8       1.7426  -5.0123   2.4904   O.3       2 RES2   0.0000
    77 O9      -0.5151  -4.8153   0.6018   O.3       3 RES3   0.0000
@<TRIPOS>BOND
     1     1     3    1
     2     2    20    1
     3     3    26    2
     4     4     1    1
     5     5     1    1
     6     6     1    1
     7     7     1    1
     8     8     1    1
     9     9     1    1
    10    10     1    1
    11    11    21    3
    12    12    22    3
    13    13    23    3
    14    14    24    3
    15    15    25    3
    16    16    26   am
    17    17    30   am
    18    18    34   am
    19    19    38   am
    20    20    10    3
    21    21     2    1
    22    22     2    1
    23    23     2    1
    24    24     2    1
    25    25     2    1
    26    26    27    1
    27    27    28    1
    28    28    29    1
    29    29    16    1
    30    30     4    2
    31    31    30    1
    32    32    31    1
    33    33    17    1
    34    34     5    2
    35    35    34    1
    36    36    35    1
    37    37    18    1
    38    38     6    2
    39    39    38    1
    40    40    39    1
    41    41    19    1
    42    42    16    1
    43    43    17    1
    44    44    18    1
    45    45    19    1
    46    46     7    1
    47    47     7    1
    48    48     8    1
    49    49     8    1
    50    50     9    1
    51    51     9    1
    52    52    27    1
    53    53    27    1
    54    54    28    1
    55    55    28    1
    56    56    29    1
    57    57    29    1
    58    58    31    1
    59    59    31    1
    60    60    32    1
    61    61    32    1
    62    62    33    1
    63    63    33    1
    64    64    35    1
    65    65    35    1
    66    66    36    1
    67    67    36    1
    68    68    37    1
    69    69    37    1
    70    70    39    1
    71    71    39    1
    72    72    40    1
    73    73    40    1
    74    74    41    1
    75    75    41    1
    76    32    33    1
    77    36    37    1
    78    40    41    1
@<TRIPOS>SUBSTRUCTURE
     1 RES1        1 GROUP             0 ****  ****    0  
     2 RES2       76 GROUP             0 ****  ****    0  
     3 RES3       77 GROUP             0 ****  ****    0  
@<TRIPOS>CRYSIN
    9.0760   12.3350   14.3410   90.3600   92.2900   91.0700     2     1
