@<TRIPOS>MOLECULE
MOGWOU
    81    82     3     0     0
SMALL
NO_CHARGES
****
Generated from the CSD

@<TRIPOS>ATOM
     1 Gd1     -0.6374  -2.8591  -3.5941   Gd        1 RES1   0.0000
     2 Fe1      2.4192   1.6982  -3.5780   Fe        1 RES1   0.0000
     3 O1       0.1197  -2.4832  -1.3556   O.2       1 RES1   0.0000
     4 O2      -1.3834  -4.7563  -2.4097   O.2       1 RES1   0.0000
     5 O3       1.5673  -3.7746  -3.4996   O.2       1 RES1   0.0000
     6 O4       0.1456  -2.4107  -5.7571   O.2       1 RES1   0.0000
     7 O5      -2.5538  -2.2307  -4.9199   O.3       1 RES1   0.0000
     8 O6      -0.9590  -4.7792  -5.0319   O.3       1 RES1   0.0000
     9 O7      -2.3959  -1.8764  -2.2661   O.3       1 RES1   0.0000
    10 N1       0.3227  -0.5694  -3.5944   N.1       1 RES1   0.0000
    11 N2       4.5258  -0.5796  -3.6734   N.1       1 RES1   0.0000
    12 N3       2.1684   2.0703  -6.6316   N.1       1 RES1   0.0000
    13 N4       4.6459   3.8410  -3.6045   N.1       1 RES1   0.0000
    14 N5       0.1964   3.8417  -3.4364   N.1       1 RES1   0.0000
    15 N6       2.4353   1.6440  -0.4983   N.1       1 RES1   0.0000
    16 N7       2.3650  -2.0339  -1.1862   N.am      1 RES1   0.0000
    17 N8      -1.7448  -4.6398  -0.1738   N.am      1 RES1   0.0000
    18 N9       2.1055  -5.3723  -5.0146   N.am      1 RES1   0.0000
    19 N10      0.4823  -1.6122  -7.8408   N.am      1 RES1   0.0000
    20 C1       1.0719   0.3031  -3.5958   C.1       1 RES1   0.0000
    21 C2       3.7603   0.2855  -3.6518   C.1       1 RES1   0.0000
    22 C3       2.3022   1.8796  -5.5086   C.1       1 RES1   0.0000
    23 C4       3.8123   3.0453  -3.5743   C.1       1 RES1   0.0000
    24 C5       1.0383   3.0605  -3.4781   C.1       1 RES1   0.0000
    25 C6       2.4557   1.6456  -1.6471   C.1       1 RES1   0.0000
    26 C7       1.1170  -2.1543  -0.6950   C.2       1 RES1   0.0000
    27 C8       1.1248  -1.8371   0.7195   C.3       1 RES1   0.0000
    28 C9       2.6218  -1.7406   1.0698   C.3       1 RES1   0.0000
    29 C10      3.3612  -1.6951  -0.2154   C.3       1 RES1   0.0000
    30 C11     -1.6861  -5.2548  -1.3183   C.2       1 RES1   0.0000
    31 C12     -2.0010  -6.6925  -1.1158   C.3       1 RES1   0.0000
    32 C13     -2.3062  -6.8014   0.3619   C.3       1 RES1   0.0000
    33 C14     -2.1714  -5.4632   0.9492   C.3       1 RES1   0.0000
    34 C15      2.3765  -4.4592  -4.1200   C.2       1 RES1   0.0000
    35 C16      3.8637  -4.3906  -3.9735   C.3       1 RES1   0.0000
    36 C17      4.3979  -5.2072  -5.1166   C.3       1 RES1   0.0000
    37 C18      3.2596  -6.0273  -5.6293   C.3       1 RES1   0.0000
    38 C19      0.8901  -2.0252  -6.6790   C.2       1 RES1   0.0000
    39 C20      2.3614  -1.9645  -6.6417   C.3       1 RES1   0.0000
    40 C21      2.7711  -1.3569  -7.9600   C.3       1 RES1   0.0000
    41 C22      1.5181  -1.3084  -8.8015   C.3       1 RES1   0.0000
    42 H1       2.4853  -2.3810  -2.0535   H         1 RES1   0.0000
    43 H2      -1.6580  -3.8807  -0.1005   H         1 RES1   0.0000
    44 H3       1.4257  -5.6806  -5.1554   H         1 RES1   0.0000
    45 H4      -0.2598  -1.5893  -7.9844   H         1 RES1   0.0000
    46 H5      -3.2375  -1.7985  -4.7102   H         1 RES1   0.0000
    47 H6      -2.5628  -2.2348  -5.6293   H         1 RES1   0.0000
    48 H7      -1.2337  -5.5802  -4.7676   H         1 RES1   0.0000
    49 H8      -1.0010  -4.7554  -5.5431   H         1 RES1   0.0000
    50 H9      -2.3432  -1.6866  -1.4648   H         1 RES1   0.0000
    51 H10     -2.9881  -1.4559  -2.4987   H         1 RES1   0.0000
    52 H15      0.7031  -2.5308   1.2221   H         1 RES1   0.0000
    53 H16      0.6832  -1.0159   0.8903   H         1 RES1   0.0000
    54 H17      2.8888  -2.5072   1.5696   H         1 RES1   0.0000
    55 H18      2.7892  -0.9588   1.5753   H         1 RES1   0.0000
    56 H19      3.7059  -0.8220  -0.3648   H         1 RES1   0.0000
    57 H20      4.0684  -2.3229  -0.2168   H         1 RES1   0.0000
    58 H21     -1.2685  -7.2347  -1.3527   H         1 RES1   0.0000
    59 H22     -2.7657  -6.9405  -1.6328   H         1 RES1   0.0000
    60 H23     -1.6894  -7.3966   0.7740   H         1 RES1   0.0000
    61 H24     -3.1907  -7.1234   0.4926   H         1 RES1   0.0000
    62 H25     -3.0042  -5.1578   1.2939   H         1 RES1   0.0000
    63 H26     -1.5217  -5.4567   1.6400   H         1 RES1   0.0000
    64 H27      4.1360  -4.7580  -3.1392   H         1 RES1   0.0000
    65 H28      4.1665  -3.4937  -4.0381   H         1 RES1   0.0000
    66 H29      5.0960  -5.7793  -4.7978   H         1 RES1   0.0000
    67 H30      4.7351  -4.6427  -5.7901   H         1 RES1   0.0000
    68 H31      3.2134  -5.9903  -6.5742   H         1 RES1   0.0000
    69 H32      3.3288  -6.9332  -5.3478   H         1 RES1   0.0000
    70 H33      2.7271  -2.8391  -6.5498   H         1 RES1   0.0000
    71 H34      2.6537  -1.4240  -5.9194   H         1 RES1   0.0000
    72 H35      3.4291  -1.8949  -8.3822   H         1 RES1   0.0000
    73 H36      3.1110  -0.4814  -7.8278   H         1 RES1   0.0000
    74 H37      1.3935  -0.4486  -9.1792   H         1 RES1   0.0000
    75 H38      1.5468  -1.9600  -9.4937   H         1 RES1   0.0000
    76 O8       1.4833  -5.0352  -9.6602   O.3       2 RES2   0.0000
    77 H11      2.0239  -4.7852  -9.8656   H         2 RES2   0.0000
    78 H12      0.8861  -4.6386 -10.2964   H         2 RES2   0.0000
    79 O9      -0.7601  -4.8571  -7.7862   O.3       3 RES3   0.0000
    80 H13     -1.2127  -5.2055  -6.8355   H         3 RES3   0.0000
    81 H14     -1.1175  -4.4808  -7.9413   H         3 RES3   0.0000
@<TRIPOS>BOND
     1     1     3    1
     2     2    20    1
     3     3    26    2
     4     4     1    1
     5     5     1    1
     6     6     1    1
     7     7     1    1
     8     8     1    1
     9     9     1    1
    10    10     1    1
    11    11    21    3
    12    12    22    3
    13    13    23    3
    14    14    24    3
    15    15    25    3
    16    16    26   am
    17    17    30   am
    18    18    34   am
    19    19    38   am
    20    20    10    3
    21    21     2    1
    22    22     2    1
    23    23     2    1
    24    24     2    1
    25    25     2    1
    26    26    27    1
    27    27    28    1
    28    28    29    1
    29    29    16    1
    30    30     4    2
    31    31    30    1
    32    32    31    1
    33    33    17    1
    34    34     5    2
    35    35    34    1
    36    36    35    1
    37    37    18    1
    38    38     6    2
    39    39    38    1
    40    40    39    1
    41    41    19    1
    42    42    16    1
    43    43    17    1
    44    44    18    1
    45    45    19    1
    46    46     7    1
    47    47     7    1
    48    48     8    1
    49    49     8    1
    50    50     9    1
    51    51     9    1
    52    52    27    1
    53    53    27    1
    54    54    28    1
    55    55    28    1
    56    56    29    1
    57    57    29    1
    58    58    31    1
    59    59    31    1
    60    60    32    1
    61    61    32    1
    62    62    33    1
    63    63    33    1
    64    64    35    1
    65    65    35    1
    66    66    36    1
    67    67    36    1
    68    68    37    1
    69    69    37    1
    70    70    39    1
    71    71    39    1
    72    72    40    1
    73    73    40    1
    74    74    41    1
    75    75    41    1
    76    32    33    1
    77    36    37    1
    78    40    41    1
    79    76    77    1
    80    78    76    1
    81    79    80    1
    82    81    79    1
@<TRIPOS>SUBSTRUCTURE
     1 RES1        1 GROUP             0 ****  ****    0  
     2 RES2       76 GROUP             0 ****  ****    0  
     3 RES3       79 GROUP             0 ****  ****    0  
@<TRIPOS>CRYSIN
    9.0880   12.3610   14.3710   89.8200   87.8100   91.3400     2     1
