@<TRIPOS>MOLECULE
MOGWUA
    81    82     3     0     0
SMALL
NO_CHARGES
****
Generated from the CSD

@<TRIPOS>ATOM
     1 Sm1      0.3891   2.8506   3.6043   Sm        1 RES1   0.0000
     2 Fe1     -2.6964  -1.7270   3.6147   Fe        1 RES1   0.0000
     3 O1      -0.3598   2.4793   5.8613   O.2       1 RES1   0.0000
     4 O2       1.1490   4.7641   4.7910   O.2       1 RES1   0.0000
     5 O3      -1.8180   3.7765   3.7164   O.2       1 RES1   0.0000
     6 O4      -0.4256   2.3940   1.4289   O.2       1 RES1   0.0000
     7 O5       2.3084   2.2065   2.2500   O.3       1 RES1   0.0000
     8 O6       0.7126   4.7737   2.1333   O.3       1 RES1   0.0000
     9 O7       2.1697   1.8801   4.9350   O.3       1 RES1   0.0000
    10 N1      -0.5836   0.5252   3.6127   N.1       1 RES1   0.0000
    11 N2      -4.7808   0.5476   3.5119   N.1       1 RES1   0.0000
    12 N3      -2.4489  -2.0913   0.5603   N.1       1 RES1   0.0000
    13 N4      -4.9336  -3.8507   3.5853   N.1       1 RES1   0.0000
    14 N5      -0.4979  -3.8681   3.7625   N.1       1 RES1   0.0000
    15 N6      -2.7237  -1.6858   6.6996   N.1       1 RES1   0.0000
    16 N7      -2.6070   2.0016   6.0586   N.am      1 RES1   0.0000
    17 N8       1.5396   4.6694   7.0266   N.am      1 RES1   0.0000
    18 N9      -2.3597   5.3675   2.1809   N.am      1 RES1   0.0000
    19 N10     -0.7501   1.5804  -0.6569   N.am      1 RES1   0.0000
    20 C1      -1.3397  -0.3359   3.6055   C.1       1 RES1   0.0000
    21 C2      -4.0242  -0.3123   3.5392   C.1       1 RES1   0.0000
    22 C3      -2.5854  -1.9017   1.6825   C.1       1 RES1   0.0000
    23 C4      -4.0970  -3.0626   3.6098   C.1       1 RES1   0.0000
    24 C5      -1.3276  -3.0899   3.7150   C.1       1 RES1   0.0000
    25 C6      -2.7334  -1.6761   5.5544   C.1       1 RES1   0.0000
    26 C7      -1.3456   2.1410   6.5455   C.2       1 RES1   0.0000
    27 C8      -1.3227   1.8528   7.9514   C.3       1 RES1   0.0000
    28 C9      -2.7903   1.7139   8.3518   C.3       1 RES1   0.0000
    29 C10     -3.5550   1.6753   7.0986   C.3       1 RES1   0.0000
    30 C11      1.4628   5.2766   5.8930   C.2       1 RES1   0.0000
    31 C12      1.7656   6.7103   6.0917   C.3       1 RES1   0.0000
    32 C13      2.0898   6.8241   7.5668   C.3       1 RES1   0.0000
    33 C14      1.9442   5.4726   8.1530   C.3       1 RES1   0.0000
    34 C15     -2.6315   4.4624   3.0927   C.2       1 RES1   0.0000
    35 C16     -4.1113   4.3744   3.2252   C.3       1 RES1   0.0000
    36 C17     -4.6501   5.1981   2.0829   C.3       1 RES1   0.0000
    37 C18     -3.5098   6.0126   1.5744   C.3       1 RES1   0.0000
    38 C19     -1.1644   2.0112   0.5186   C.2       1 RES1   0.0000
    39 C20     -2.6323   1.9432   0.5359   C.3       1 RES1   0.0000
    40 C21     -3.0236   1.3319  -0.7807   C.3       1 RES1   0.0000
    41 C22     -1.7893   1.2658  -1.6047   C.3       1 RES1   0.0000
    42 H1      -2.7973   2.2597   5.1857   H         1 RES1   0.0000
    43 H2       1.3766   3.9406   7.1159   H         1 RES1   0.0000
    44 H3      -1.6384   5.6027   2.0167   H         1 RES1   0.0000
    45 H4       0.0286   1.5101  -0.8211   H         1 RES1   0.0000
    46 H5       2.9085   1.7794   2.4920   H         1 RES1   0.0000
    47 H6       2.3267   2.2009   1.5413   H         1 RES1   0.0000
    48 H7       0.6519   4.7620   1.3540   H         1 RES1   0.0000
    49 H8       1.0199   5.4416   2.3768   H         1 RES1   0.0000
    50 H9       2.1578   1.7643   5.7043   H         1 RES1   0.0000
    51 H10      2.6883   1.5177   4.7103   H         1 RES1   0.0000
    52 H15     -0.8525   1.0447   8.1170   H         1 RES1   0.0000
    53 H16     -0.9112   2.5625   8.4296   H         1 RES1   0.0000
    54 H17     -2.9148   0.9105   8.8474   H         1 RES1   0.0000
    55 H18     -3.0521   2.4557   8.8862   H         1 RES1   0.0000
    56 H19     -4.2559   2.3149   7.1260   H         1 RES1   0.0000
    57 H20     -3.9179   0.8106   6.9632   H         1 RES1   0.0000
    58 H21      2.5094   6.9730   5.5645   H         1 RES1   0.0000
    59 H22      1.0131   7.2462   5.8685   H         1 RES1   0.0000
    60 H23      2.9764   7.1382   7.6835   H         1 RES1   0.0000
    61 H24      1.4826   7.4262   7.9874   H         1 RES1   0.0000
    62 H25      1.2836   5.4634   8.8344   H         1 RES1   0.0000
    63 H26      2.7720   5.1679   8.5103   H         1 RES1   0.0000
    64 H27     -4.4005   3.4726   3.1546   H         1 RES1   0.0000
    65 H28     -4.3922   4.7325   4.0592   H         1 RES1   0.0000
    66 H29     -4.9825   4.6296   1.3987   H         1 RES1   0.0000
    67 H30     -5.3488   5.7645   2.3897   H         1 RES1   0.0000
    68 H31     -3.5831   6.9168   1.8539   H         1 RES1   0.0000
    69 H32     -3.4614   5.9763   0.6252   H         1 RES1   0.0000
    70 H33     -2.9303   1.4007   1.2561   H         1 RES1   0.0000
    71 H34     -3.0028   2.8141   0.6208   H         1 RES1   0.0000
    72 H35     -3.3752   0.4595  -0.6453   H         1 RES1   0.0000
    73 H36     -3.6762   1.8716  -1.2129   H         1 RES1   0.0000
    74 H37     -1.8149   1.9023  -2.3076   H         1 RES1   0.0000
    75 H38     -1.6692   0.3963  -1.9677   H         1 RES1   0.0000
    76 O8       1.7311  -4.9929   2.4834   O.3       2 RES2   0.0000
    77 H11      1.3128  -4.6296   2.9962   H         2 RES2   0.0000
    78 H12      2.3861  -4.7655   2.7513   H         2 RES2   0.0000
    79 O9      -0.5309  -4.8255   0.6108   O.3       3 RES3   0.0000
    80 H13     -1.1117  -4.5409   0.4609   H         3 RES3   0.0000
    81 H14      0.1241  -4.7022   1.0083   H         3 RES3   0.0000
@<TRIPOS>BOND
     1     1     3    1
     2     2    20    1
     3     3    26    2
     4     4     1    1
     5     5     1    1
     6     6     1    1
     7     7     1    1
     8     8     1    1
     9     9     1    1
    10    10     1    1
    11    11    21    3
    12    12    22    3
    13    13    23    3
    14    14    24    3
    15    15    25    3
    16    16    26   am
    17    17    30   am
    18    18    34   am
    19    19    38   am
    20    20    10    3
    21    21     2    1
    22    22     2    1
    23    23     2    1
    24    24     2    1
    25    25     2    1
    26    26    27    1
    27    27    28    1
    28    28    29    1
    29    29    16    1
    30    30     4    2
    31    31    30    1
    32    32    31    1
    33    33    17    1
    34    34     5    2
    35    35    34    1
    36    36    35    1
    37    37    18    1
    38    38     6    2
    39    39    38    1
    40    40    39    1
    41    41    19    1
    42    42    16    1
    43    43    17    1
    44    44    18    1
    45    45    19    1
    46    46     7    1
    47    47     7    1
    48    48     8    1
    49    49     8    1
    50    50     9    1
    51    51     9    1
    52    52    27    1
    53    53    27    1
    54    54    28    1
    55    55    28    1
    56    56    29    1
    57    57    29    1
    58    58    31    1
    59    59    31    1
    60    60    32    1
    61    61    32    1
    62    62    33    1
    63    63    33    1
    64    64    35    1
    65    65    35    1
    66    66    36    1
    67    67    36    1
    68    68    37    1
    69    69    37    1
    70    70    39    1
    71    71    39    1
    72    72    40    1
    73    73    40    1
    74    74    41    1
    75    75    41    1
    76    32    33    1
    77    36    37    1
    78    40    41    1
    79    76    77    1
    80    78    76    1
    81    79    80    1
    82    81    79    1
@<TRIPOS>SUBSTRUCTURE
     1 RES1        1 GROUP             0 ****  ****    0  
     2 RES2       76 GROUP             0 ****  ****    0  
     3 RES3       79 GROUP             0 ****  ****    0  
@<TRIPOS>CRYSIN
    9.0760   12.3740   14.4140   90.0100   92.0600   91.0700     2     1
