@<TRIPOS>MOLECULE
MOMQIP
    76    87     1     0     0
SMALL
NO_CHARGES
****
Generated from the CSD

@<TRIPOS>ATOM
     1 Fe1      1.5926   3.6277   7.7525   Fe        1 RES1   0.0000
     2 N1      -0.1392   4.5456   7.5480   N.2       1 RES1   0.0000
     3 N2       2.5419   5.2187   7.0882   N.2       1 RES1   0.0000
     4 N3       1.8031   4.3748   9.5705   N.2       1 RES1   0.0000
     5 N4       3.2750   2.6208   7.9518   N.2       1 RES1   0.0000
     6 N5       0.6892   2.0065   8.4085   N.2       1 RES1   0.0000
     7 N6       1.3578   3.0127   5.8951   N.2       1 RES1   0.0000
     8 C1      -1.3486   4.0246   7.8742   C.2       1 RES1   0.0000
     9 H1      -1.4924   3.1390   8.1165   H         1 RES1   0.0000
    10 C2      -2.3509   4.9977   7.7996   C.2       1 RES1   0.0000
    11 H2      -3.2570   4.8757   7.9689   H         1 RES1   0.0000
    12 C3      -1.7413   6.1545   7.4315   C.2       1 RES1   0.0000
    13 H3      -2.1593   6.9769   7.3196   H         1 RES1   0.0000
    14 C4      -0.3726   5.8962   7.2482   C.2       1 RES1   0.0000
    15 C5       0.6360   6.7803   6.8505   C.2       1 RES1   0.0000
    16 C6       1.9899   6.4445   6.7045   C.2       1 RES1   0.0000
    17 C7       3.0197   7.2353   6.1235   C.2       1 RES1   0.0000
    18 H4       2.9334   8.0993   5.7895   H         1 RES1   0.0000
    19 C8       4.1603   6.4861   6.1468   C.2       1 RES1   0.0000
    20 H5       4.9930   6.7315   5.8159   H         1 RES1   0.0000
    21 C9       3.8300   5.2718   6.7697   C.2       1 RES1   0.0000
    22 H6       4.4380   4.5886   6.9375   H         1 RES1   0.0000
    23 S1       0.8684   9.4807   7.4010   S.3       1 RES1   0.0000
    24 C10      0.2114   8.1611   6.5584   C.2       1 RES1   0.0000
    25 C11     -0.8225   8.6175   5.6777   C.2       1 RES1   0.0000
    26 H7      -1.3045   8.0706   5.0998   H         1 RES1   0.0000
    27 C12     -1.0015   9.9695   5.8019   C.2       1 RES1   0.0000
    28 H8      -1.6345  10.4389   5.3080   H         1 RES1   0.0000
    29 C13     -0.1946  10.5680   6.6951   C.2       1 RES1   0.0000
    30 H9      -0.2224  11.4751   6.8971   H         1 RES1   0.0000
    31 C14      1.0125   5.2575  10.1483   C.2       1 RES1   0.0000
    32 H10      0.2502   5.6134   9.7522   H         1 RES1   0.0000
    33 C15      1.4644   5.5948  11.4315   C.2       1 RES1   0.0000
    34 H11      1.0727   6.1990  12.0202   H         1 RES1   0.0000
    35 C16      2.5870   4.8628  11.6443   C.2       1 RES1   0.0000
    36 H12      3.1019   4.8656  12.4194   H         1 RES1   0.0000
    37 C17      2.8380   4.1006  10.4963   C.2       1 RES1   0.0000
    38 C18      3.8773   3.2366  10.2571   C.2       1 RES1   0.0000
    39 C19      4.1165   2.5304   9.0687   C.2       1 RES1   0.0000
    40 C20      5.1847   1.6649   8.7363   C.2       1 RES1   0.0000
    41 H13      5.8827   1.4252   9.3002   H         1 RES1   0.0000
    42 C21      5.0209   1.2473   7.4656   C.2       1 RES1   0.0000
    43 H14      5.5802   0.6818   6.9841   H         1 RES1   0.0000
    44 C22      3.8276   1.8429   7.0245   C.2       1 RES1   0.0000
    45 H15      3.4657   1.7080   6.1779   H         1 RES1   0.0000
    46 S2       4.8883   1.6276  12.2377   S.3       1 RES1   0.0000
    47 C23      4.8701   3.0399  11.3569   C.2       1 RES1   0.0000
    48 C24      5.9394   4.1552  11.8198   C.2       1 RES1   0.0000
    49 H16      6.1007   5.0178  11.5138   H         1 RES1   0.0000
    50 C25      6.6083   3.3198  12.9351   C.2       1 RES1   0.0000
    51 H17      7.3382   3.6514  13.4058   H         1 RES1   0.0000
    52 C26      6.1190   2.1314  13.2023   C.2       1 RES1   0.0000
    53 H18      6.4496   1.6075  13.8951   H         1 RES1   0.0000
    54 C27      0.6071   1.6405   9.6979   C.2       1 RES1   0.0000
    55 H19      0.9962   2.1027  10.4047   H         1 RES1   0.0000
    56 C28     -0.1484   0.4550   9.8315   C.2       1 RES1   0.0000
    57 H20     -0.3374   0.0086  10.6252   H         1 RES1   0.0000
    58 C29     -0.5518   0.0861   8.5717   C.2       1 RES1   0.0000
    59 H21     -1.0670  -0.6559   8.3495   H         1 RES1   0.0000
    60 C30     -0.0254   1.0664   7.6707   C.2       1 RES1   0.0000
    61 C31     -0.1204   1.0822   6.2757   C.2       1 RES1   0.0000
    62 C32      0.5429   1.9635   5.4447   C.2       1 RES1   0.0000
    63 C33      0.5383   2.0151   4.0109   C.2       1 RES1   0.0000
    64 H22      0.0699   1.4439   3.4454   H         1 RES1   0.0000
    65 C34      1.3295   3.0299   3.6303   C.2       1 RES1   0.0000
    66 H23      1.5192   3.2768   2.7542   H         1 RES1   0.0000
    67 C35      1.8203   3.6528   4.7907   C.2       1 RES1   0.0000
    68 H24      2.3799   4.3949   4.8000   H         1 RES1   0.0000
    69 S3      -2.7113   0.1530   5.9866   S.3       1 RES1   0.0000
    70 C36     -1.0201   0.1163   5.6326   C.2       1 RES1   0.0000
    71 C37     -0.7375  -0.8239   4.6074   C.2       1 RES1   0.0000
    72 H25      0.1044  -0.9932   4.2485   H         1 RES1   0.0000
    73 C38     -1.9512  -1.4697   4.2128   C.2       1 RES1   0.0000
    74 H26     -1.9702  -2.1415   3.5697   H         1 RES1   0.0000
    75 C39     -3.0503  -1.0463   4.8249   C.2       1 RES1   0.0000
    76 H27     -3.9039  -1.3664   4.6416   H         1 RES1   0.0000
@<TRIPOS>BOND
     1     1     2    1
     2     2     8    1
     3     3     1    1
     4     4     1    1
     5     5     1    1
     6     6     1    1
     7     7     1    1
     8     8     9    1
     9    10     8    2
    10    11    10    1
    11    12    10    1
    12    13    12    1
    13    14     2    1
    14    15    14    1
    15    16     3    1
    16    17    16    1
    17    18    17    1
    18    19    17    2
    19    20    19    1
    20    21     3    2
    21    22    21    1
    22    23    24    1
    23    24    15    1
    24    25    24    2
    25    26    25    1
    26    27    25    1
    27    28    27    1
    28    29    23    1
    29    30    29    1
    30    31     4    1
    31    32    31    1
    32    33    31    2
    33    34    33    1
    34    35    33    1
    35    36    35    1
    36    37     4    1
    37    38    37    1
    38    39     5    1
    39    40    39    1
    40    41    40    1
    41    42    40    2
    42    43    42    1
    43    44     5    2
    44    45    44    1
    45    46    47    1
    46    47    38    1
    47    48    47    2
    48    49    48    1
    49    50    48    1
    50    51    50    1
    51    52    46    1
    52    53    52    1
    53    54     6    1
    54    55    54    1
    55    56    54    2
    56    57    56    1
    57    58    56    1
    58    59    58    1
    59    60     6    1
    60    61    60    1
    61    62     7    1
    62    63    62    1
    63    64    63    1
    64    65    63    2
    65    66    65    1
    66    67     7    2
    67    68    67    1
    68    69    70    1
    69    70    61    1
    70    71    70    2
    71    72    71    1
    72    73    71    1
    73    74    73    1
    74    75    69    1
    75    76    75    1
    76    12    14    2
    77    15    16    2
    78    19    21    1
    79    27    29    2
    80    35    37    2
    81    38    39    2
    82    42    44    1
    83    50    52    2
    84    58    60    2
    85    61    62    2
    86    65    67    1
    87    73    75    2
@<TRIPOS>SUBSTRUCTURE
     1 RES1        1 GROUP             0 ****  ****    0  
@<TRIPOS>CRYSIN
   14.6785   14.3529   16.9461   90.0000  113.5560   90.0000    14     1
