@<TRIPOS>MOLECULE
MONFOL01
    76    86     2     0     0
SMALL
NO_CHARGES
****
Generated from the CSD

@<TRIPOS>ATOM
     1 Fe1     12.3280   6.3095   8.3886   Fe        1 RES1   0.0000
     2 O1      10.6778   7.2141   9.1168   O.3       1 RES1   0.0000
     3 O2      11.4023   4.6993   7.6142   O.3       1 RES1   0.0000
     4 N1      14.2452   5.2749   8.3013   N.ar      1 RES1   0.0000
     5 N2      12.6792   5.6914  10.4042   N.2       1 RES1   0.0000
     6 N3      13.4675   8.1821   8.5345   N.ar      1 RES1   0.0000
     7 N4      12.3848   7.0379   6.3752   N.2       1 RES1   0.0000
     8 C1      15.0036   5.0726   7.2313   C.ar      1 RES1   0.0000
     9 C2      16.1857   4.3159   7.2279   C.ar      1 RES1   0.0000
    10 C3      16.5766   3.7380   8.3700   C.ar      1 RES1   0.0000
    11 C4      15.8232   3.9172   9.5504   C.ar      1 RES1   0.0000
    12 C5      16.1625   3.3158  10.7815   C.ar      1 RES1   0.0000
    13 C6      15.3664   3.5033  11.8505   C.ar      1 RES1   0.0000
    14 C7      14.1949   4.2487  11.7784   C.ar      1 RES1   0.0000
    15 C8      13.8336   4.8910  10.6148   C.ar      1 RES1   0.0000
    16 C9      14.6544   4.6906   9.4829   C.ar      1 RES1   0.0000
    17 C10     11.9304   5.9904  11.4360   C.2       1 RES1   0.0000
    18 C11     10.7464   6.7595  11.4607   C.ar      1 RES1   0.0000
    19 C12     10.0408   6.9249  12.7335   C.ar      1 RES1   0.0000
    20 C13     10.4539   6.3211  13.9444   C.ar      1 RES1   0.0000
    21 C14      9.7598   6.4875  15.1124   C.ar      1 RES1   0.0000
    22 C15      8.6170   7.2562  15.1597   C.ar      1 RES1   0.0000
    23 C16      8.1482   7.8430  14.0221   C.ar      1 RES1   0.0000
    24 C17      8.8521   7.6721  12.7977   C.ar      1 RES1   0.0000
    25 C18      8.3501   8.2643  11.6083   C.ar      1 RES1   0.0000
    26 C19      8.9714   8.1031  10.4245   C.ar      1 RES1   0.0000
    27 C20     10.1725   7.3382  10.3006   C.ar      1 RES1   0.0000
    28 C21     13.9794   8.7165   9.6045   C.ar      1 RES1   0.0000
    29 C22     14.6626   9.9502   9.6574   C.ar      1 RES1   0.0000
    30 C23     14.7602  10.6664   8.4860   C.ar      1 RES1   0.0000
    31 C24     14.1939  10.1438   7.3146   C.ar      1 RES1   0.0000
    32 C25     14.2623  10.8391   6.0779   C.ar      1 RES1   0.0000
    33 C26     13.6901  10.3002   4.9954   C.ar      1 RES1   0.0000
    34 C27     13.0403   9.0431   5.0281   C.ar      1 RES1   0.0000
    35 C28     13.5610   8.8934   7.3597   C.ar      1 RES1   0.0000
    36 C29     12.9876   8.3173   6.2029   C.ar      1 RES1   0.0000
    37 C30     11.9558   6.4075   5.3221   C.2       1 RES1   0.0000
    38 C31     11.3700   5.1219   5.2376   C.ar      1 RES1   0.0000
    39 C32     10.9745   4.6059   3.9502   C.ar      1 RES1   0.0000
    40 C33     11.0076   5.3557   2.7483   C.ar      1 RES1   0.0000
    41 C34     10.6832   4.7978   1.5420   C.ar      1 RES1   0.0000
    42 C35     10.2660   3.4806   1.4496   C.ar      1 RES1   0.0000
    43 C36     10.1627   2.7420   2.5681   C.ar      1 RES1   0.0000
    44 C37     10.5074   3.2719   3.8308   C.ar      1 RES1   0.0000
    45 C38     10.3900   2.4777   5.0022   C.ar      1 RES1   0.0000
    46 C39     10.6595   2.9784   6.2265   C.ar      1 RES1   0.0000
    47 C40     11.1606   4.3097   6.4158   C.ar      1 RES1   0.0000
    48 H1      14.7330   5.4582   6.4282   H         1 RES1   0.0000
    49 H2      16.6856   4.2174   6.4496   H         1 RES1   0.0000
    50 H3      17.3474   3.2175   8.3869   H         1 RES1   0.0000
    51 H4      16.9303   2.7958  10.8536   H         1 RES1   0.0000
    52 H5      15.6084   3.1229  12.6648   H         1 RES1   0.0000
    53 H6      13.6467   4.3135  12.5263   H         1 RES1   0.0000
    54 H7      12.2148   5.6552  12.2560   H         1 RES1   0.0000
    55 H8      11.2194   5.7934  13.9478   H         1 RES1   0.0000
    56 H9      10.0639   6.0738  15.8874   H         1 RES1   0.0000
    57 H10      8.1682   7.3751  15.9651   H         1 RES1   0.0000
    58 H11      7.3707   8.3527  14.0458   H         1 RES1   0.0000
    59 H12      7.5727   8.7736  11.6477   H         1 RES1   0.0000
    60 H13      8.6095   8.5007   9.6653   H         1 RES1   0.0000
    61 H14     13.8871   8.2457  10.4008   H         1 RES1   0.0000
    62 H15     15.0313  10.2649  10.4504   H         1 RES1   0.0000
    63 H16     15.1955  11.4878   8.4725   H         1 RES1   0.0000
    64 H17     14.7003  11.6585   6.0215   H         1 RES1   0.0000
    65 H18     13.7190  10.7686   4.1923   H         1 RES1   0.0000
    66 H19     12.6474   8.7032   4.2554   H         1 RES1   0.0000
    67 H20     12.0455   6.8631   4.5167   H         1 RES1   0.0000
    68 H21     11.2567   6.2511   2.7810   H         1 RES1   0.0000
    69 H22     10.7450   5.3134   0.7704   H         1 RES1   0.0000
    70 H23     10.0584   3.1115   0.6218   H         1 RES1   0.0000
    71 H24      9.8584   1.8645   2.5084   H         1 RES1   0.0000
    72 H25     10.1208   1.5902   4.9245   H         1 RES1   0.0000
    73 H26     10.5151   2.4420   6.9733   H         1 RES1   0.0000
    74 Cl1     17.9665   9.2832   7.3428   Cl        2 RES2   0.0000
    75 Cl2     17.5328   7.2279   9.2598   Cl        2 RES2   0.0000
    76 C41     17.2309   7.8228   7.6063   C.3       2 RES2   0.0000
@<TRIPOS>BOND
     1     1     2    1
     2     2    27    1
     3     3     1    1
     4     4     1    1
     5     5     1    1
     6     6     1    1
     7     7     1    1
     8     8     4   ar
     9     9     8   ar
    10    10     9   ar
    11    11    10   ar
    12    12    11   ar
    13    13    12   ar
    14    14    13   ar
    15    15     5    1
    16    16     4   ar
    17    17     5    2
    18    18    17    1
    19    19    18   ar
    20    20    19   ar
    21    21    20   ar
    22    22    21   ar
    23    23    22   ar
    24    24    19   ar
    25    25    24   ar
    26    26    25   ar
    27    27    18   ar
    28    28     6   ar
    29    29    28   ar
    30    30    29   ar
    31    31    30   ar
    32    32    31   ar
    33    33    32   ar
    34    34    33   ar
    35    35     6   ar
    36    36     7    1
    37    37     7    2
    38    38    37    1
    39    39    38   ar
    40    40    39   ar
    41    41    40   ar
    42    42    41   ar
    43    43    42   ar
    44    44    39   ar
    45    45    44   ar
    46    46    45   ar
    47    47     3    1
    48    48     8    1
    49    49     9    1
    50    50    10    1
    51    51    12    1
    52    52    13    1
    53    53    14    1
    54    54    17    1
    55    55    20    1
    56    56    21    1
    57    57    22    1
    58    58    23    1
    59    59    25    1
    60    60    26    1
    61    61    28    1
    62    62    29    1
    63    63    30    1
    64    64    32    1
    65    65    33    1
    66    66    34    1
    67    67    37    1
    68    68    40    1
    69    69    41    1
    70    70    42    1
    71    71    43    1
    72    72    45    1
    73    73    46    1
    74    11    16   ar
    75    14    15   ar
    76    15    16   ar
    77    23    24   ar
    78    26    27   ar
    79    31    35   ar
    80    34    36   ar
    81    35    36   ar
    82    38    47   ar
    83    43    44   ar
    84    46    47   ar
    85    74    76    1
    86    75    76    1
@<TRIPOS>SUBSTRUCTURE
     1 RES1        1 GROUP             0 ****  ****    0  
     2 RES2       74 GROUP             0 ****  ****    0  
@<TRIPOS>CRYSIN
   11.9880   12.6310   13.2890   64.9400   64.1200   71.7000     2     1
