@<TRIPOS>MOLECULE
MONFOL
    76    86     2     0     0
SMALL
NO_CHARGES
****
Generated from the CSD

@<TRIPOS>ATOM
     1 Fe1     -3.5807   0.2674   8.2130   Fe        1 RES1   0.0000
     2 O1      -2.5750  -1.3503   8.6022   O.3       1 RES1   0.0000
     3 O2      -1.9175   1.1728   7.7969   O.3       1 RES1   0.0000
     4 N1      -4.5953   1.9184   7.9549   N.ar      1 RES1   0.0000
     5 N2      -3.4196   0.9127  10.0287   N.2       1 RES1   0.0000
     6 N3      -5.2398  -0.7106   8.5183   N.ar      1 RES1   0.0000
     7 N4      -3.8003  -0.3542   6.3956   N.2       1 RES1   0.0000
     8 C1      -5.2035   2.3879   6.8587   C.ar      1 RES1   0.0000
     9 C2      -5.9449   3.5862   6.8423   C.ar      1 RES1   0.0000
    10 C3      -6.0540   4.3307   7.9691   C.ar      1 RES1   0.0000
    11 C4      -5.4342   3.8912   9.1689   C.ar      1 RES1   0.0000
    12 C5      -5.4660   4.5856  10.3828   C.ar      1 RES1   0.0000
    13 C6      -4.8032   4.1013  11.4747   C.ar      1 RES1   0.0000
    14 C7      -4.0761   2.8905  11.4388   C.ar      1 RES1   0.0000
    15 C8      -4.0515   2.1668  10.2499   C.ar      1 RES1   0.0000
    16 C9      -4.7034   2.6650   9.1046   C.ar      1 RES1   0.0000
    17 C10     -2.8439   0.2839  11.0301   C.2       1 RES1   0.0000
    18 C11     -2.2595  -0.9904  10.9811   C.ar      1 RES1   0.0000
    19 C12     -1.7208  -1.5570  12.2310   C.ar      1 RES1   0.0000
    20 C13     -1.6767  -0.8439  13.4580   C.ar      1 RES1   0.0000
    21 C14     -1.2709  -1.4590  14.6098   C.ar      1 RES1   0.0000
    22 C15     -0.8510  -2.7965  14.6262   C.ar      1 RES1   0.0000
    23 C16     -0.8361  -3.4859  13.4624   C.ar      1 RES1   0.0000
    24 C17     -1.2488  -2.8956  12.2375   C.ar      1 RES1   0.0000
    25 C18     -1.2184  -3.6135  11.0203   C.ar      1 RES1   0.0000
    26 C19     -1.6159  -3.0717   9.8467   C.ar      1 RES1   0.0000
    27 C20     -2.1798  -1.7485   9.7704   C.ar      1 RES1   0.0000
    28 C21     -5.9258  -0.8588   9.6418   C.ar      1 RES1   0.0000
    29 C22     -7.1257  -1.5921   9.7301   C.ar      1 RES1   0.0000
    30 C23     -7.6224  -2.2006   8.6088   C.ar      1 RES1   0.0000
    31 C24     -6.9214  -2.0769   7.3828   C.ar      1 RES1   0.0000
    32 C25     -7.3382  -2.6619   6.1634   C.ar      1 RES1   0.0000
    33 C26     -6.5725  -2.5042   5.0269   C.ar      1 RES1   0.0000
    34 C27     -5.3827  -1.7660   5.0334   C.ar      1 RES1   0.0000
    35 C28     -4.9536  -1.1591   6.2005   C.ar      1 RES1   0.0000
    36 C29     -5.7311  -1.3161   7.3763   C.ar      1 RES1   0.0000
    37 C30     -2.9918  -0.1084   5.3810   C.2       1 RES1   0.0000
    38 C31     -1.8274   0.6969   5.4257   C.ar      1 RES1   0.0000
    39 C32     -1.0627   0.8692   4.1802   C.ar      1 RES1   0.0000
    40 C33     -1.4310   0.3245   2.9411   C.ar      1 RES1   0.0000
    41 C34     -0.7041   0.5213   1.7882   C.ar      1 RES1   0.0000
    42 C35      0.4794   1.2788   1.8285   C.ar      1 RES1   0.0000
    43 C36      0.8854   1.8072   3.0163   C.ar      1 RES1   0.0000
    44 C37      0.1445   1.6321   4.1965   C.ar      1 RES1   0.0000
    45 C38      0.5899   2.1662   5.4355   C.ar      1 RES1   0.0000
    46 C39     -0.1070   1.9993   6.5873   C.ar      1 RES1   0.0000
    47 C40     -1.3423   1.2649   6.6342   C.ar      1 RES1   0.0000
    48 H1      -5.1329   1.8997   6.0708   H         1 RES1   0.0000
    49 H2      -6.3602   3.8653   6.0588   H         1 RES1   0.0000
    50 H3      -6.5330   5.1288   7.9571   H         1 RES1   0.0000
    51 H4      -5.9417   5.3826  10.4471   H         1 RES1   0.0000
    52 H5      -4.8319   4.5851  12.2680   H         1 RES1   0.0000
    53 H6      -3.6247   2.5850  12.1918   H         1 RES1   0.0000
    54 H7      -2.8197   0.7258  11.8474   H         1 RES1   0.0000
    55 H8      -1.9275   0.0518  13.4787   H         1 RES1   0.0000
    56 H9      -1.2736  -0.9771  15.4053   H         1 RES1   0.0000
    57 H10     -0.5884  -3.2022  15.4206   H         1 RES1   0.0000
    58 H11     -0.5464  -4.3708  13.4635   H         1 RES1   0.0000
    59 H12     -0.9147  -4.4934  11.0269   H         1 RES1   0.0000
    60 H13     -1.5227  -3.5671   9.0654   H         1 RES1   0.0000
    61 H14     -5.5964  -0.4577  10.4133   H         1 RES1   0.0000
    62 H15     -7.5746  -1.6619  10.5408   H         1 RES1   0.0000
    63 H16     -8.4119  -2.6904   8.6513   H         1 RES1   0.0000
    64 H17     -8.1265  -3.1521   6.1275   H         1 RES1   0.0000
    65 H18     -6.8541  -2.8995   4.2336   H         1 RES1   0.0000
    66 H19     -4.8815  -1.6831   4.2543   H         1 RES1   0.0000
    67 H20     -3.2058  -0.5000   4.5648   H         1 RES1   0.0000
    68 H21     -2.2035  -0.1932   2.8965   H         1 RES1   0.0000
    69 H22     -0.9956   0.1544   0.9851   H         1 RES1   0.0000
    70 H23      0.9790   1.4162   1.0548   H         1 RES1   0.0000
    71 H24      1.6754   2.2959   3.0468   H         1 RES1   0.0000
    72 H25      1.3863   2.6448   5.4584   H         1 RES1   0.0000
    73 H26      0.2249   2.3731   7.3719   H         1 RES1   0.0000
    74 Cl1     -8.6486   0.9212   7.1998   Cl        2 RES2   0.0000
    75 Cl2     -9.2921   3.2395   8.8180   Cl        2 RES2   0.0000
    76 C41     -8.4516   1.6786   8.7886   C.3       2 RES2   0.0000
@<TRIPOS>BOND
     1     1     2    1
     2     2    27    1
     3     3     1    1
     4     4     1    1
     5     5     1    1
     6     6     1    1
     7     7     1    1
     8     8     4   ar
     9     9     8   ar
    10    10     9   ar
    11    11    10   ar
    12    12    11   ar
    13    13    12   ar
    14    14    13   ar
    15    15     5    1
    16    16     4   ar
    17    17     5    2
    18    18    17    1
    19    19    18   ar
    20    20    19   ar
    21    21    20   ar
    22    22    21   ar
    23    23    22   ar
    24    24    19   ar
    25    25    24   ar
    26    26    25   ar
    27    27    18   ar
    28    28     6   ar
    29    29    28   ar
    30    30    29   ar
    31    31    30   ar
    32    32    31   ar
    33    33    32   ar
    34    34    33   ar
    35    35     7    1
    36    36     6   ar
    37    37     7    2
    38    38    37    1
    39    39    38   ar
    40    40    39   ar
    41    41    40   ar
    42    42    41   ar
    43    43    42   ar
    44    44    39   ar
    45    45    44   ar
    46    46    45   ar
    47    47     3    1
    48    48     8    1
    49    49     9    1
    50    50    10    1
    51    51    12    1
    52    52    13    1
    53    53    14    1
    54    54    17    1
    55    55    20    1
    56    56    21    1
    57    57    22    1
    58    58    23    1
    59    59    25    1
    60    60    26    1
    61    61    28    1
    62    62    29    1
    63    63    30    1
    64    64    32    1
    65    65    33    1
    66    66    34    1
    67    67    37    1
    68    68    40    1
    69    69    41    1
    70    70    42    1
    71    71    43    1
    72    72    45    1
    73    73    46    1
    74    11    16   ar
    75    14    15   ar
    76    15    16   ar
    77    23    24   ar
    78    26    27   ar
    79    31    36   ar
    80    34    35   ar
    81    35    36   ar
    82    38    47   ar
    83    43    44   ar
    84    46    47   ar
    85    74    76    1
    86    75    76    1
@<TRIPOS>SUBSTRUCTURE
     1 RES1        1 GROUP             0 ****  ****    0  
     2 RES2       74 GROUP             0 ****  ****    0  
@<TRIPOS>CRYSIN
   12.2010   12.5500   12.9850   98.0640  116.4690  110.0040     2     1
