@<TRIPOS>MOLECULE
MOPYIB
    83    90     2     0     0
SMALL
USER_CHARGES
****
Generated from the CSD

@<TRIPOS>ATOM
     1 Fe1      7.7088   7.7169  21.1196   Fe        1 RES1   1.0000
     2 Br1      5.8207   6.1765  21.1408   Br        1 RES1   0.0000
     3 P1       7.9869   7.2118  23.2124   P.3       1 RES1   0.0000
     4 P2       9.0182   5.9421  20.7201   P.3       1 RES1   0.0000
     5 N1       8.9657   9.1799  21.1188   N.2       1 RES1   0.0000
     6 N2       7.8643   7.8951  19.1244   N.2       1 RES1   0.0000
     7 C1       9.8719   9.5468  21.9614   C.2       1 RES1   0.0000
     8 H1      10.3723  10.3190  21.7264   H         1 RES1   0.0000
     9 C2      10.2202   8.9268  23.2211   C.ar      1 RES1   0.0000
    10 C3      11.3854   9.4475  23.8563   C.ar      1 RES1   0.0000
    11 H2      11.8960  10.1091  23.4032   H         1 RES1   0.0000
    12 C4      11.7902   9.0357  25.0758   C.ar      1 RES1   0.0000
    13 H3      12.5814   9.3978  25.4590   H         1 RES1   0.0000
    14 C5      11.0679   8.0985  25.7660   C.ar      1 RES1   0.0000
    15 H4      11.3474   7.8117  26.6255   H         1 RES1   0.0000
    16 C6       9.9243   7.5762  25.1880   C.ar      1 RES1   0.0000
    17 H5       9.4209   6.9338  25.6728   H         1 RES1   0.0000
    18 C7       9.4794   7.9591  23.9198   C.ar      1 RES1   0.0000
    19 C8       6.7073   7.5618  24.4491   C.ar      1 RES1   0.0000
    20 C9       6.6734   8.8323  25.0652   C.ar      1 RES1   0.0000
    21 H6       7.3279   9.4827  24.8408   H         1 RES1   0.0000
    22 C10      5.6973   9.1319  25.9840   C.ar      1 RES1   0.0000
    23 H7       5.6768   9.9890  26.3948   H         1 RES1   0.0000
    24 C11      4.7479   8.1834  26.3143   C.ar      1 RES1   0.0000
    25 H8       4.0893   8.3869  26.9685   H         1 RES1   0.0000
    26 C12      4.7438   6.9594  25.7130   C.ar      1 RES1   0.0000
    27 H9       4.0780   6.3218  25.9438   H         1 RES1   0.0000
    28 C13      5.6963   6.6454  24.7772   C.ar      1 RES1   0.0000
    29 H10      5.6706   5.7979  24.3453   H         1 RES1   0.0000
    30 C14      8.2999   5.4198  23.3397   C.3       1 RES1   0.0000
    31 H11      8.6482   5.2036  24.2395   H         1 RES1   0.0000
    32 H12      7.4553   4.9216  23.2042   H         1 RES1   0.0000
    33 C15      9.3284   5.0065  22.2663   C.3       1 RES1   0.0000
    34 H13      9.2554   4.0356  22.0884   H         1 RES1   0.0000
    35 H14     10.2449   5.1939  22.5902   H         1 RES1   0.0000
    36 C16     10.6610   6.1248  19.9437   C.ar      1 RES1   0.0000
    37 C17     10.9847   5.5240  18.7497   C.ar      1 RES1   0.0000
    38 H15     10.3477   4.9809  18.3008   H         1 RES1   0.0000
    39 C18     12.2659   5.7178  18.1950   C.ar      1 RES1   0.0000
    40 H16     12.4910   5.2869  17.3798   H         1 RES1   0.0000
    41 C19     13.1794   6.5044  18.8047   C.ar      1 RES1   0.0000
    42 H17     14.0301   6.6454  18.4067   H         1 RES1   0.0000
    43 C20     12.8670   7.1132  20.0242   C.ar      1 RES1   0.0000
    44 H18     13.5164   7.6435  20.4709   H         1 RES1   0.0000
    45 C21     11.6094   6.9402  20.5810   C.ar      1 RES1   0.0000
    46 H19     11.3885   7.3744  21.3961   H         1 RES1   0.0000
    47 C22      8.1242   4.9264  19.4949   C.ar      1 RES1   0.0000
    48 C23      7.4492   2.8052  18.5888   C.ar      1 RES1   0.0000
    49 H20      7.4070   1.8584  18.6523   H         1 RES1   0.0000
    50 C24      6.8707   3.4461  17.5196   C.ar      1 RES1   0.0000
    51 H21      6.4525   2.9318  16.8379   H         1 RES1   0.0000
    52 C25      6.8851   4.8191  17.4158   C.ar      1 RES1   0.0000
    53 H22      6.4772   5.2468  16.6727   H         1 RES1   0.0000
    54 C26      7.5026   5.5800  18.4109   C.ar      1 RES1   0.0000
    55 C27      8.0954   3.5374  19.5732   C.ar      1 RES1   0.0000
    56 H23      8.5157   3.0920  20.3015   H         1 RES1   0.0000
    57 C28      7.6916   7.0347  18.2119   C.2       1 RES1   0.0000
    58 H24      7.6824   7.3519  17.3163   H         1 RES1   0.0000
    59 C29      8.5927   9.1623  18.7327   C.3       1 RES1   0.0000
    60 H25      9.5308   8.8980  18.5104   H         1 RES1   0.0000
    61 C30      8.6677  10.0627  19.9416   C.3       1 RES1   0.0000
    62 H26      7.7564  10.4472  20.0835   H         1 RES1   0.0000
    63 C31      9.6140  11.2274  19.6791   C.3       1 RES1   0.0000
    64 H27      9.6685  11.8073  20.4794   H         1 RES1   0.0000
    65 H28     10.5223  10.8877  19.4780   H         1 RES1   0.0000
    66 C32      9.0808  12.0204  18.4956   C.3       1 RES1   0.0000
    67 H29      9.7034  12.7638  18.2923   H         1 RES1   0.0000
    68 H30      8.2043  12.4145  18.7327   H         1 RES1   0.0000
    69 C33      8.9225  11.1425  17.2592   C.3       1 RES1   0.0000
    70 H31      9.8164  10.8493  16.9522   H         1 RES1   0.0000
    71 H32      8.5136  11.6776  16.5309   H         1 RES1   0.0000
    72 C34      8.0502   9.9073  17.5281   C.3       1 RES1   0.0000
    73 H33      7.1163  10.1876  17.6995   H         1 RES1   0.0000
    74 H34      8.0554   9.3145  16.7362   H         1 RES1   0.0000
    75 C35      6.3611   8.8964  21.5062   C.1       1 RES1   0.0000
    76 O1       5.5021   9.5548  21.8492   O.2       1 RES1   0.0000
    77 Sb1      3.9074  10.8603  18.5293   Sb        2 RES2  -1.0000
    78 F1       2.9673  10.4664  20.0962   F         2 RES2   0.0000
    79 F2       3.1615  12.5427  18.4871   F         2 RES2   0.0000
    80 F3       2.4998  10.1764  17.5048   F         2 RES2   0.0000
    81 F4       4.8753  11.2210  16.9585   F         2 RES2   0.0000
    82 F5       4.6945   9.1527  18.5570   F         2 RES2   0.0000
    83 F6       5.3603  11.5093  19.5288   F         2 RES2   0.0000
@<TRIPOS>BOND
     1     1     2    1
     2     3     1    1
     3     4     1    1
     4     5     1    1
     5     6     1    1
     6     7     5    2
     7     8     7    1
     8     9     7    1
     9    10     9   ar
    10    11    10    1
    11    12    10   ar
    12    13    12    1
    13    14    12   ar
    14    15    14    1
    15    16    14   ar
    16    17    16    1
    17    18     3    1
    18    19     3    1
    19    20    19   ar
    20    21    20    1
    21    22    20   ar
    22    23    22    1
    23    24    22   ar
    24    25    24    1
    25    26    24   ar
    26    27    26    1
    27    28    19   ar
    28    29    28    1
    29    30     3    1
    30    31    30    1
    31    32    30    1
    32    33     4    1
    33    34    33    1
    34    35    33    1
    35    36     4    1
    36    37    36   ar
    37    38    37    1
    38    39    37   ar
    39    40    39    1
    40    41    39   ar
    41    42    41    1
    42    43    41   ar
    43    44    43    1
    44    45    36   ar
    45    46    45    1
    46    47     4    1
    47    48    49    1
    48    50    48   ar
    49    51    50    1
    50    52    50   ar
    51    53    52    1
    52    54    47   ar
    53    55    47   ar
    54    56    55    1
    55    57     6    2
    56    58    57    1
    57    59     6    1
    58    60    59    1
    59    61     5    1
    60    62    61    1
    61    63    61    1
    62    64    63    1
    63    65    63    1
    64    66    63    1
    65    67    66    1
    66    68    66    1
    67    69    66    1
    68    70    69    1
    69    71    69    1
    70    72    59    1
    71    73    72    1
    72    74    72    1
    73    75     1    1
    74    76    75    3
    75     9    18   ar
    76    16    18   ar
    77    26    28   ar
    78    30    33    1
    79    43    45   ar
    80    48    55   ar
    81    52    54   ar
    82    54    57    1
    83    59    61    1
    84    69    72    1
    85    77    78    1
    86    79    77    1
    87    80    77    1
    88    81    77    1
    89    82    77    1
    90    83    77    1
@<TRIPOS>SUBSTRUCTURE
     1 RES1        1 GROUP             0 ****  ****    0  
     2 RES2       77 GROUP             0 ****  ****    0  
@<TRIPOS>CRYSIN
   10.2747   16.0208   21.1717   90.0000   90.0000   90.0000    19     1
