@<TRIPOS>MOLECULE
MOQLOV
    91    95     5     0     0
SMALL
USER_CHARGES
****
Generated from the CSD

@<TRIPOS>ATOM
     1 Fe1      4.5075   6.7738   1.9338   Fe        1 RES1   2.0000
     2 C1       4.6672   8.9259   3.7620   C.ar      1 RES1   0.0000
     3 C2       2.8620   9.2173   2.3385   C.ar      1 RES1   0.0000
     4 H1       2.2989   8.8906   1.6463   H         1 RES1   0.0000
     5 C3       2.6087  10.4636   2.8644   C.ar      1 RES1   0.0000
     6 H2       1.8879  10.9857   2.5320   H         1 RES1   0.0000
     7 C4       3.4054  10.9462   3.8734   C.ar      1 RES1   0.0000
     8 H3       3.2421  11.8026   4.2489   H         1 RES1   0.0000
     9 C5       4.4447  10.1655   4.3331   C.ar      1 RES1   0.0000
    10 H4       5.0035  10.4757   5.0367   H         1 RES1   0.0000
    11 C6       5.7905   8.0538   4.1035   C.ar      1 RES1   0.0000
    12 C7       7.0760   6.2740   3.3720   C.ar      1 RES1   0.0000
    13 H5       7.2378   5.5745   2.7486   H         1 RES1   0.0000
    14 C8       7.9650   6.4579   4.4116   C.ar      1 RES1   0.0000
    15 H6       8.7375   5.9101   4.4799   H         1 RES1   0.0000
    16 C9       7.7283   7.4396   5.3494   C.ar      1 RES1   0.0000
    17 H7       8.3182   7.5615   6.0845   H         1 RES1   0.0000
    18 C10      6.6162   8.2411   5.1978   C.ar      1 RES1   0.0000
    19 H8       6.4190   8.9149   5.8390   H         1 RES1   0.0000
    20 C11      4.7225   3.9726   1.8032   C.ar      1 RES1   0.0000
    21 C12      5.9542   4.9411   0.0897   C.ar      1 RES1   0.0000
    22 H9       6.2976   5.7180  -0.3370   H         1 RES1   0.0000
    23 C13      6.2514   3.7039  -0.4461   C.ar      1 RES1   0.0000
    24 H10      6.7993   3.6317  -1.2179   H         1 RES1   0.0000
    25 C14      5.7391   2.5791   0.1574   C.ar      1 RES1   0.0000
    26 H11      5.9154   1.7176  -0.2038   H         1 RES1   0.0000
    27 C15      4.9691   2.7127   1.2917   C.ar      1 RES1   0.0000
    28 H12      4.6100   1.9450   1.7185   H         1 RES1   0.0000
    29 C16      3.9448   4.2397   3.0185   C.ar      1 RES1   0.0000
    30 C17      2.9793   5.8984   4.3259   C.ar      1 RES1   0.0000
    31 H13      2.8082   6.8197   4.4879   H         1 RES1   0.0000
    32 C18      2.4714   4.9740   5.2037   C.ar      1 RES1   0.0000
    33 H14      1.9580   5.2522   5.9529   H         1 RES1   0.0000
    34 C19      2.7182   3.6379   4.9807   C.ar      1 RES1   0.0000
    35 H15      2.3838   2.9804   5.5790   H         1 RES1   0.0000
    36 C20      3.4582   3.2668   3.8769   C.ar      1 RES1   0.0000
    37 H16      3.6333   2.3490   3.7065   H         1 RES1   0.0000
    38 C21      4.3306   8.1375  -0.5183   C.ar      1 RES1   0.0000
    39 C22      6.3554   8.6027   0.5046   C.ar      1 RES1   0.0000
    40 H17      6.9777   8.4468   1.2050   H         1 RES1   0.0000
    41 C23      6.6672   9.5297  -0.4727   C.ar      1 RES1   0.0000
    42 H18      7.5034   9.9790  -0.4573   H         1 RES1   0.0000
    43 C24      5.7554   9.7957  -1.4650   C.ar      1 RES1   0.0000
    44 H19      5.9421  10.4536  -2.1244   H         1 RES1   0.0000
    45 C25      4.5642   9.0946  -1.4909   C.ar      1 RES1   0.0000
    46 H20      3.9168   9.2659  -2.1645   H         1 RES1   0.0000
    47 C26      3.1365   7.2825  -0.4793   C.ar      1 RES1   0.0000
    48 C27      1.9582   5.7390   0.7761   C.ar      1 RES1   0.0000
    49 H21      1.8454   5.2522   1.5837   H         1 RES1   0.0000
    50 C28      1.0415   5.5531  -0.2359   C.ar      1 RES1   0.0000
    51 H22      0.3242   4.9387  -0.1300   H         1 RES1   0.0000
    52 C29      1.1820   6.2720  -1.4030   C.ar      1 RES1   0.0000
    53 H23      0.5626   6.1618  -2.1148   H         1 RES1   0.0000
    54 C30      2.2345   7.1513  -1.5226   C.ar      1 RES1   0.0000
    55 H24      2.3417   7.6653  -2.3154   H         1 RES1   0.0000
    56 N1       3.8777   8.4409   2.7667   N.ar      1 RES1   0.0000
    57 N2       5.9866   7.0502   3.2096   N.ar      1 RES1   0.0000
    58 N3       5.1938   5.0902   1.1967   N.ar      1 RES1   0.0000
    59 N4       3.7098   5.5604   3.2439   N.ar      1 RES1   0.0000
    60 N5       5.2012   7.9141   0.4958   N.ar      1 RES1   0.0000
    61 N6       3.0065   6.5786   0.6731   N.ar      1 RES1   0.0000
    62 C31      3.8122   3.1432   9.5131   C.2       2 RES2   0.0000
    63 C32      2.7071   3.8825   9.0083   C.1       2 RES2   0.0000
    64 C33      4.2480   3.3494  10.8586   C.1       2 RES2   0.0000
    65 N7       4.5148   2.2729   8.7941   N.2       2 RES2   0.0000
    66 N8       1.8387   4.5022   8.6145   N.1       2 RES2   0.0000
    67 N9       4.5788   3.5143  11.9356   N.1       2 RES2   0.0000
    68 O1       4.0723   2.1406   7.5842   O.3       2 RES2   0.0000
    69 C34      3.0547   7.9110  11.1603   C.2       3 RES3   0.0000
    70 C35      3.6131   7.1582  12.2450   C.1       3 RES3   0.0000
    71 C36      1.6332   8.1126  11.1823   C.1       3 RES3   0.0000
    72 N10      3.7469   8.4276  10.1777   N.2       3 RES3   0.0000
    73 N11      3.9816   6.5833  13.1572   N.1       3 RES3   0.0000
    74 N12      0.5007   8.2210  11.2856   N.1       3 RES3   0.0000
    75 O2       5.0284   8.1532  10.2260   O.3       3 RES3  -1.0000
    76 C37      6.6315  11.6443   8.3329   C.2       4 RES4   0.0000
    77 C38      6.4508  12.9939   8.7710   C.1       4 RES4   0.0000
    78 C39      7.5592  11.3359   7.2823   C.1       4 RES4   0.0000
    79 N13      5.9530  10.7325   8.9500   N.2       4 RES4   0.0000
    80 N14      6.3000  14.0609   9.1418   N.1       4 RES4   0.0000
    81 N15      8.2898  11.0442   6.4524   N.1       4 RES4   0.0000
    82 O3       6.1753   9.4928   8.5019   O.3       4 RES4   0.0000
    83 H25      5.6245   8.8862   9.2085   H         4 RES4   0.0000
    84 C40      5.8573  -0.1367   4.4268   C.2       5 RES5   0.0000
    85 C41      7.1558  -0.6566   4.7381   C.1       5 RES5   0.0000
    86 C42      5.2124  -0.4153   3.1804   C.1       5 RES5   0.0000
    87 N16      5.1672   0.5811   5.2637   N.2       5 RES5   0.0000
    88 N17      8.1678  -1.0641   5.0537   N.1       5 RES5   0.0000
    89 N18      4.6505  -0.6129   2.2050   N.1       5 RES5   0.0000
    90 O4       5.7736   0.8045   6.4068   O.3       5 RES5   0.0000
    91 H26      4.9629   1.3048   6.8595   H         5 RES5   0.0000
@<TRIPOS>BOND
     1     1    56    1
     2     2     9   ar
     3     3     4    1
     4     5     3   ar
     5     6     5    1
     6     7     5   ar
     7     8     7    1
     8     9     7   ar
     9    10     9    1
    10    11     2    1
    11    12    13    1
    12    14    12   ar
    13    15    14    1
    14    16    14   ar
    15    17    16    1
    16    18    11   ar
    17    19    18    1
    18    20    27   ar
    19    21    22    1
    20    23    21   ar
    21    24    23    1
    22    25    23   ar
    23    26    25    1
    24    27    25   ar
    25    28    27    1
    26    29    20    1
    27    30    31    1
    28    32    30   ar
    29    33    32    1
    30    34    32   ar
    31    35    34    1
    32    36    29   ar
    33    37    36    1
    34    38    45   ar
    35    39    40    1
    36    41    39   ar
    37    42    41    1
    38    43    41   ar
    39    44    43    1
    40    45    43   ar
    41    46    45    1
    42    47    38    1
    43    48    49    1
    44    50    48   ar
    45    51    50    1
    46    52    50   ar
    47    53    52    1
    48    54    47   ar
    49    55    54    1
    50    56     2   ar
    51    57     1    1
    52    58     1    1
    53    59     1    1
    54    60     1    1
    55    61     1    1
    56     3    56   ar
    57    11    57   ar
    58    12    57   ar
    59    16    18   ar
    60    20    58   ar
    61    21    58   ar
    62    29    59   ar
    63    30    59   ar
    64    34    36   ar
    65    38    60   ar
    66    39    60   ar
    67    47    61   ar
    68    48    61   ar
    69    52    54   ar
    70    62    63    1
    71    63    66    3
    72    64    62    1
    73    65    62    2
    74    67    64    3
    75    68    65    1
    76    69    70    1
    77    70    73    3
    78    71    69    1
    79    72    69    2
    80    74    71    3
    81    75    72    1
    82    76    77    1
    83    77    80    3
    84    78    76    1
    85    79    76    2
    86    81    78    3
    87    82    79    1
    88    83    82    1
    89    84    85    1
    90    85    88    3
    91    86    84    1
    92    87    84    2
    93    89    86    3
    94    90    87    1
    95    91    90    1
@<TRIPOS>SUBSTRUCTURE
     1 RES1        1 GROUP             0 ****  ****    0  
     2 RES2       62 GROUP             0 ****  ****    0  
     3 RES3       69 GROUP             0 ****  ****    0  
     4 RES4       76 GROUP             0 ****  ****    0  
     5 RES5       84 GROUP             0 ****  ****    0  
@<TRIPOS>CRYSIN
   11.7294   22.0774   16.2415   90.0000   98.9100   90.0000   231     1
