@<TRIPOS>MOLECULE
MOSHUZ
    90    89    10     0     0
SMALL
USER_CHARGES
****
Generated from the CSD

@<TRIPOS>ATOM
     1 Fe1      1.1104   7.5273   5.3303   Fe        1 RES1   2.0000
     2 N1       0.9673   5.8774   4.2468   N.ar      1 RES1   0.0000
     3 N2      -0.3265   6.6299   6.3507   N.ar      1 RES1   0.0000
     4 N3      -0.1676   8.5370   4.2042   N.ar      1 RES1   0.0000
     5 N4       1.0147   9.1779   6.4100   N.ar      1 RES1   0.0000
     6 N5       2.5030   6.7397   6.5041   N.ar      1 RES1   0.0000
     7 N6       2.7037   8.1826   4.3681   N.ar      1 RES1   0.0000
     8 C1       1.5625   5.6186   3.0640   C.ar      1 RES1   0.0000
     9 H1       2.1902   6.2444   2.7212   H         1 RES1   0.0000
    10 C2       1.2930   4.4712   2.3297   C.ar      1 RES1   0.0000
    11 H2       1.7052   4.3362   1.4835   H         1 RES1   0.0000
    12 C3       0.4217   3.5283   2.8397   C.ar      1 RES1   0.0000
    13 H3       0.2358   2.7327   2.3559   H         1 RES1   0.0000
    14 C4      -0.1729   3.7629   4.0639   C.ar      1 RES1   0.0000
    15 H4      -0.7606   3.1215   4.4438   H         1 RES1   0.0000
    16 C5       0.1008   4.9519   4.7323   C.ar      1 RES1   0.0000
    17 C6      -0.5608   5.3405   5.9820   C.ar      1 RES1   0.0000
    18 C7      -1.3368   4.4785   6.7479   C.ar      1 RES1   0.0000
    19 H5      -1.4875   3.5852   6.4609   H         1 RES1   0.0000
    20 C8      -1.8875   4.9322   7.9324   C.ar      1 RES1   0.0000
    21 H6      -2.3858   4.3469   8.4913   H         1 RES1   0.0000
    22 C9      -1.6970   6.2575   8.2843   C.ar      1 RES1   0.0000
    23 H7      -2.0950   6.6038   9.0758   H         1 RES1   0.0000
    24 C10     -0.9256   7.0730   7.4772   C.ar      1 RES1   0.0000
    25 H8      -0.8118   7.9829   7.7252   H         1 RES1   0.0000
    26 C11     -0.6737   8.1774   3.0079   C.ar      1 RES1   0.0000
    27 H9      -0.4419   7.3268   2.6526   H         1 RES1   0.0000
    28 C12     -1.5162   8.9948   2.2737   C.ar      1 RES1   0.0000
    29 H10     -1.8347   8.7138   1.4237   H         1 RES1   0.0000
    30 C13     -1.8886  10.2226   2.7861   C.ar      1 RES1   0.0000
    31 H11     -2.4750  10.7931   2.3027   H         1 RES1   0.0000
    32 C14     -1.3904  10.6042   4.0200   C.ar      1 RES1   0.0000
    33 H12     -1.6370  11.4398   4.3995   H         1 RES1   0.0000
    34 C15     -0.5250   9.7533   4.6971   C.ar      1 RES1   0.0000
    35 C16      0.1216  10.1011   5.9723   C.ar      1 RES1   0.0000
    36 C17     -0.1428  11.2728   6.6752   C.ar      1 RES1   0.0000
    37 H13     -0.7824  11.8955   6.3502   H         1 RES1   0.0000
    38 C18      0.5386  11.5209   7.8581   C.ar      1 RES1   0.0000
    39 H14      0.3712  12.3111   8.3585   H         1 RES1   0.0000
    40 C19      1.4636  10.5942   8.2907   C.ar      1 RES1   0.0000
    41 H15      1.9519  10.7449   9.0913   H         1 RES1   0.0000
    42 C20      1.6773   9.4468   7.5547   C.ar      1 RES1   0.0000
    43 H16      2.3197   8.8194   7.8669   H         1 RES1   0.0000
    44 C21      2.3137   6.0725   7.6645   C.ar      1 RES1   0.0000
    45 H17      1.4269   5.8408   7.9156   H         1 RES1   0.0000
    46 C22      3.3514   5.7123   8.5039   C.ar      1 RES1   0.0000
    47 H18      3.1737   5.2662   9.3238   H         1 RES1   0.0000
    48 C23      4.6490   6.0108   8.1342   C.ar      1 RES1   0.0000
    49 H19      5.3798   5.7567   8.6861   H         1 RES1   0.0000
    50 C24      4.8685   6.6862   6.9460   C.ar      1 RES1   0.0000
    51 H20      5.7511   6.9058   6.6757   H         1 RES1   0.0000
    52 C25      3.7815   7.0405   6.1518   C.ar      1 RES1   0.0000
    53 C26      3.8963   7.8089   4.9041   C.ar      1 RES1   0.0000
    54 C27      5.1087   8.1288   4.3012   C.ar      1 RES1   0.0000
    55 H21      5.9263   7.8559   4.6984   H         1 RES1   0.0000
    56 C28      5.1114   8.8498   3.1160   C.ar      1 RES1   0.0000
    57 H22      5.9281   9.0679   2.6813   H         1 RES1   0.0000
    58 C29      3.8987   9.2442   2.5804   C.ar      1 RES1   0.0000
    59 H23      3.8731   9.7468   1.7735   H         1 RES1   0.0000
    60 C30      2.7244   8.9005   3.2289   C.ar      1 RES1   0.0000
    61 H24      1.8987   9.1828   2.8541   H         1 RES1   0.0000
    62 S1       8.6286   7.7093   2.0071   S.o2      2 RES2   0.0000
    63 O1       9.9758   7.2465   1.6252   O.3       2 RES2  -1.0000
    64 O2       8.6754   8.2996   3.3553   O.2       2 RES2   0.0000
    65 O3       8.2005   8.7820   1.0796   O.3       2 RES2  -1.0000
    66 O4       7.6739   6.6167   1.9710   O.2       2 RES2   0.0000
    67 O5      12.1373   8.2324   0.1483   O.3       3 RES3   0.0000
    68 H25     11.5137   7.9374   0.6421   H         3 RES3   0.0000
    69 H26     12.2750   7.5900  -0.3919   H         3 RES3   0.0000
    70 O6      10.0083  10.0557  -0.5028   O.3       4 RES4   0.0000
    71 H27      9.4656   9.7067   0.0509   H         4 RES4   0.0000
    72 H28     10.6993   9.5717  -0.4052   H         4 RES4   0.0000
    73 O7       6.5750  15.5689   0.8203   O.3       5 RES5   0.0000
    74 H29      5.8193  15.3658   0.4893   H         5 RES5   0.0000
    75 H30      6.8083  16.3439   0.5602   H         5 RES5   0.0000
    76 O8       3.8226  15.2372   0.0483   O.3       6 RES6   0.0000
    77 H31      3.0180  15.3030   0.3188   H         6 RES6   0.0000
    78 H32      3.7210  14.6722  -0.5801   H         6 RES6   0.0000
    79 O9       9.9482  12.7380   0.1322   O.3       7 RES7   0.0000
    80 H33      9.1935  12.8923  -0.2281   H         7 RES7   0.0000
    81 H34     10.0152  11.8955   0.0399   H         7 RES7   0.0000
    82 O10      7.3476  13.3718  -0.6791   O.3       8 RES8   0.0000
    83 H35      6.6890  13.4055  -0.1439   H         8 RES8   0.0000
    84 H36      7.6803  14.1057  -0.4096   H         8 RES8   0.0000
    85 O11      5.7655   8.6069  -0.2659   O.3       9 RES9   0.0000
    86 H37      6.1148   7.9896   0.2037   H         9 RES9   0.0000
    87 H38      6.1287   9.1802   0.2458   H         9 RES9   0.0000
    88 O12      8.5854   6.6934   5.5354   O.3      10 RES10   0.0000
    89 H39      8.6758   7.1945   4.8557   H        10 RES10   0.0000
    90 H39A     8.4951   7.1945   6.2151   H        10 RES10   0.0000
@<TRIPOS>BOND
     1     1     2    1
     2     2     8   ar
     3     3     1    1
     4     4     1    1
     5     5     1    1
     6     6     1    1
     7     7     1    1
     8     8     9    1
     9    10     8   ar
    10    11    10    1
    11    12    10   ar
    12    13    12    1
    13    14    12   ar
    14    15    14    1
    15    16     2   ar
    16    17     3   ar
    17    18    17   ar
    18    19    18    1
    19    20    18   ar
    20    21    20    1
    21    22    20   ar
    22    23    22    1
    23    24     3   ar
    24    25    24    1
    25    26     4   ar
    26    27    26    1
    27    28    26   ar
    28    29    28    1
    29    30    28   ar
    30    31    30    1
    31    32    30   ar
    32    33    32    1
    33    34     4   ar
    34    35     5   ar
    35    36    35   ar
    36    37    36    1
    37    38    36   ar
    38    39    38    1
    39    40    38   ar
    40    41    40    1
    41    42     5   ar
    42    43    42    1
    43    44     6   ar
    44    45    44    1
    45    46    44   ar
    46    47    46    1
    47    48    46   ar
    48    49    48    1
    49    50    48   ar
    50    51    50    1
    51    52     6   ar
    52    53     7   ar
    53    54    53   ar
    54    55    54    1
    55    56    54   ar
    56    57    56    1
    57    58    56   ar
    58    59    58    1
    59    60     7   ar
    60    61    60    1
    61    14    16   ar
    62    16    17    1
    63    22    24   ar
    64    32    34   ar
    65    34    35    1
    66    40    42   ar
    67    50    52   ar
    68    52    53    1
    69    58    60   ar
    70    62    63    1
    71    64    62    2
    72    65    62    1
    73    66    62    2
    74    67    68    1
    75    69    67    1
    76    70    71    1
    77    72    70    1
    78    73    74    1
    79    75    73    1
    80    76    77    1
    81    78    76    1
    82    79    80    1
    83    81    79    1
    84    82    83    1
    85    84    82    1
    86    85    86    1
    87    87    85    1
    88    88    89    1
    89    90    88    1
@<TRIPOS>SUBSTRUCTURE
     1 RES1        1 GROUP             0 ****  ****    0  
     2 RES2       62 GROUP             0 ****  ****    0  
     3 RES3       67 GROUP             0 ****  ****    0  
     4 RES4       70 GROUP             0 ****  ****    0  
     5 RES5       73 GROUP             0 ****  ****    0  
     6 RES6       76 GROUP             0 ****  ****    0  
     7 RES7       79 GROUP             0 ****  ****    0  
     8 RES8       82 GROUP             0 ****  ****    0  
     9 RES9       85 GROUP             0 ****  ****    0  
    10 RES10      88 GROUP             0 ****  ****    0  
@<TRIPOS>CRYSIN
   22.3119   13.3627   24.4125   90.0000  114.9090   90.0000    15     1
