@<TRIPOS>MOLECULE
MOSJOV
    85   111     2     0     0
SMALL
USER_CHARGES
****
Generated from the CSD

@<TRIPOS>ATOM
     1 Fe1      0.0000   0.0000   3.6267   Fe        1 RES1   2.0000
     2 N1       1.6605  -0.2983   2.5963   N.ar      1 RES1   0.0000
     3 N2       1.1996   1.1669   4.6639   N.ar      1 RES1   0.0000
     4 C1       1.8419  -1.1633   1.5775   C.ar      1 RES1   0.0000
     5 H1       1.1013  -1.6803   1.2858   H         1 RES1   0.0000
     6 C2       3.0443  -1.3324   0.9439   C.ar      1 RES1   0.0000
     7 H2       3.1343  -1.9642   0.2422   H         1 RES1   0.0000
     8 C3       4.1261  -0.5678   1.3446   C.ar      1 RES1   0.0000
     9 H3       4.9651  -0.6535   0.9052   H         1 RES1   0.0000
    10 C4       3.9677   0.3177   2.3830   C.ar      1 RES1   0.0000
    11 H4       4.6959   0.8565   2.6696   H         1 RES1   0.0000
    12 C5       2.7354   0.4204   3.0132   C.ar      1 RES1   0.0000
    13 C6       2.4689   1.2612   4.1825   C.ar      1 RES1   0.0000
    14 C7       3.4209   2.0596   4.7971   C.ar      1 RES1   0.0000
    15 H5       4.2920   2.1454   4.4281   H         1 RES1   0.0000
    16 C8       3.0722   2.7313   5.9618   C.ar      1 RES1   0.0000
    17 H6       3.7125   3.2701   6.4115   H         1 RES1   0.0000
    18 C9       1.8078   2.6093   6.4554   C.ar      1 RES1   0.0000
    19 H7       1.5623   3.0490   7.2591   H         1 RES1   0.0000
    20 C10      0.8837   1.8422   5.7721   C.ar      1 RES1   0.0000
    21 H8      -0.0056   1.7927   6.1002   H         1 RES1   0.0000
    22 N1A     -0.5720   1.5872   2.5963   N.ar      1 RES1   0.0000
    23 N2A     -1.6104   0.4554   4.6639   N.ar      1 RES1   0.0000
    24 C1A      0.0865   2.1768   1.5775   C.ar      1 RES1   0.0000
    25 H1A      0.9046   1.7939   1.2858   H         1 RES1   0.0000
    26 C2A     -0.3682   3.3027   0.9439   C.ar      1 RES1   0.0000
    27 H2A      0.1339   3.6965   0.2422   H         1 RES1   0.0000
    28 C3A     -1.5713   3.8571   1.3446   C.ar      1 RES1   0.0000
    29 H3A     -1.9166   4.6266   0.9052   H         1 RES1   0.0000
    30 C4A     -2.2590   3.2773   2.3830   C.ar      1 RES1   0.0000
    31 H4A     -3.0897   3.6385   2.6696   H         1 RES1   0.0000
    32 C5A     -1.7317   2.1587   3.0132   C.ar      1 RES1   0.0000
    33 C6A     -2.3267   1.5076   4.1825   C.ar      1 RES1   0.0000
    34 C7A     -3.4942   1.9328   4.7971   C.ar      1 RES1   0.0000
    35 H5A     -4.0040   2.6443   4.4281   H         1 RES1   0.0000
    36 C8A     -3.9015   1.2950   5.9618   C.ar      1 RES1   0.0000
    37 H6A     -4.6882   1.5801   6.4115   H         1 RES1   0.0000
    38 C9A     -3.1636   0.2609   6.4554   C.ar      1 RES1   0.0000
    39 H7A     -3.4216  -0.1715   7.2591   H         1 RES1   0.0000
    40 C10A    -2.0372  -0.1558   5.7721   C.ar      1 RES1   0.0000
    41 H8A     -1.5497  -0.9012   6.1002   H         1 RES1   0.0000
    42 N1B     -1.0886  -1.2889   2.5963   N.ar      1 RES1   0.0000
    43 N2B      0.4108  -1.6223   4.6639   N.ar      1 RES1   0.0000
    44 C1B     -1.9284  -1.0135   1.5775   C.ar      1 RES1   0.0000
    45 H1B     -2.0058  -0.1136   1.2858   H         1 RES1   0.0000
    46 C2B     -2.6761  -1.9703   0.9439   C.ar      1 RES1   0.0000
    47 H2B     -3.2682  -1.7323   0.2422   H         1 RES1   0.0000
    48 C3B     -2.5547  -3.2894   1.3446   C.ar      1 RES1   0.0000
    49 H3B     -3.0485  -3.9731   0.9052   H         1 RES1   0.0000
    50 C4B     -1.7087  -3.5950   2.3830   C.ar      1 RES1   0.0000
    51 H4B     -1.6062  -4.4950   2.6696   H         1 RES1   0.0000
    52 C5B     -1.0036  -2.5791   3.0132   C.ar      1 RES1   0.0000
    53 C6B     -0.1423  -2.7687   4.1825   C.ar      1 RES1   0.0000
    54 C7B      0.0732  -3.9924   4.7971   C.ar      1 RES1   0.0000
    55 H5B     -0.2880  -4.7897   4.4281   H         1 RES1   0.0000
    56 C8B      0.8293  -4.0263   5.9618   C.ar      1 RES1   0.0000
    57 H6B      0.9757  -4.8501   6.4115   H         1 RES1   0.0000
    58 C9B      1.3558  -2.8702   6.4554   C.ar      1 RES1   0.0000
    59 H7B      1.8594  -2.8775   7.2591   H         1 RES1   0.0000
    60 C10B     1.1536  -1.6864   5.7721   C.ar      1 RES1   0.0000
    61 H8B      1.5553  -0.8915   6.1002   H         1 RES1   0.0000
    62 B1       5.3542   3.6687   1.2598   B         2 RES2   0.0000
    63 H9       4.2781   3.4331   1.4645   H         2 RES2   0.0000
    64 B2       6.3153   4.7946   2.2688   B         2 RES2  -1.0000
    65 H10      5.8927   5.3237   3.1596   H         2 RES2   0.0000
    66 B3       5.8299   5.2246   0.6406   B         2 RES2   0.0000
    67 H11      5.0620   6.0134   0.4324   H         2 RES2   0.0000
    68 B4       6.0043   3.7847  -0.3471   B         2 RES2   0.0000
    69 H12      5.3535   3.6095  -1.2396   H         2 RES2   0.0000
    70 B1A      8.0945   2.8026   1.2598   B         2 RES2   0.0000
    71 H9A      8.8366   1.9884   1.4645   H         2 RES2   0.0000
    72 B2A      6.6389   3.0719   2.2688   B         2 RES2   0.0000
    73 H10A     6.3920   2.4414   3.1596   H         2 RES2   0.0000
    74 B3A      6.5092   2.4365   0.6406   B         2 RES2   0.0000
    75 H11A     6.2100   1.3771   0.4324   H         2 RES2   0.0000
    76 B4A      7.6691   3.3075  -0.3471   B         2 RES2   0.0000
    77 H12A     8.1461   2.8316  -1.2396   H         2 RES2   0.0000
    78 B1B      7.4745   5.6088   1.2598   B         2 RES2  -1.0000
    79 H9B      7.8085   6.6585   1.4645   H         2 RES2   0.0000
    80 B2B      7.9689   4.2135   2.2688   B         2 RES2   0.0000
    81 H10B     8.6385   4.3150   3.1596   H         2 RES2   0.0000
    82 B3B      8.5841   4.4189   0.6406   B         2 RES2   0.0000
    83 H11B     9.6512   4.6895   0.4324   H         2 RES2   0.0000
    84 B4B      7.2499   4.9878  -0.3471   B         2 RES2   0.0000
    85 H12B     7.4236   5.6390  -1.2396   H         2 RES2   0.0000
@<TRIPOS>BOND
     1     1     2    1
     2     2     4   ar
     3     3     1    1
     4     4     5    1
     5     6     4   ar
     6     7     6    1
     7     8     6   ar
     8     9     8    1
     9    10     8   ar
    10    11    10    1
    11    12     2   ar
    12    13     3   ar
    13    14    13   ar
    14    15    14    1
    15    16    14   ar
    16    17    16    1
    17    18    16   ar
    18    19    18    1
    19    20     3   ar
    20    21    20    1
    21    22     1    1
    22    23     1    1
    23    24    22   ar
    24    25    24    1
    25    26    24   ar
    26    27    26    1
    27    28    26   ar
    28    29    28    1
    29    30    28   ar
    30    31    30    1
    31    32    22   ar
    32    33    23   ar
    33    34    33   ar
    34    35    34    1
    35    36    34   ar
    36    37    36    1
    37    38    36   ar
    38    39    38    1
    39    40    23   ar
    40    41    40    1
    41    42     1    1
    42    43     1    1
    43    44    42   ar
    44    45    44    1
    45    46    44   ar
    46    47    46    1
    47    48    46   ar
    48    49    48    1
    49    50    48   ar
    50    51    50    1
    51    52    42   ar
    52    53    43   ar
    53    54    53   ar
    54    55    54    1
    55    56    54   ar
    56    57    56    1
    57    58    56   ar
    58    59    58    1
    59    60    43   ar
    60    61    60    1
    61    10    12   ar
    62    12    13    1
    63    18    20   ar
    64    30    32   ar
    65    32    33    1
    66    38    40   ar
    67    50    52   ar
    68    52    53    1
    69    58    60   ar
    70    62    63    1
    71    64    62    1
    72    65    64    1
    73    66    62    1
    74    67    66    1
    75    68    62    1
    76    69    68    1
    77    70    71    1
    78    72    62    1
    79    73    72    1
    80    74    62    1
    81    75    74    1
    82    76    68    1
    83    77    76    1
    84    78    64    1
    85    79    78    1
    86    80    64    1
    87    81    80    1
    88    82    70    1
    89    83    82    1
    90    84    66    1
    91    85    84    1
    92    64    66    1
    93    64    72    1
    94    66    68    1
    95    66    78    1
    96    68    74    1
    97    68    84    1
    98    70    72    1
    99    70    74    1
   100    70    76    1
   101    70    80    1
   102    72    74    1
   103    72    80    1
   104    74    76    1
   105    76    82    1
   106    76    84    1
   107    78    80    1
   108    78    82    1
   109    78    84    1
   110    80    82    1
   111    82    84    1
@<TRIPOS>SUBSTRUCTURE
     1 RES1        1 GROUP             0 ****  ****    0  
     2 RES2       62 GROUP             0 ****  ****    0  
@<TRIPOS>CRYSIN
   13.9488   13.9488   57.6577   90.0000   90.0000  120.0000   238     1
