@<TRIPOS>MOLECULE
MOSJUB
    91   116     3     0     0
SMALL
USER_CHARGES
****
Generated from the CSD

@<TRIPOS>ATOM
     1 Fe1     18.1232  -6.0563 -12.5607   Fe        1 RES1   2.0000
     2 N1      16.6552  -5.0122 -13.3767   N.ar      1 RES1   0.0000
     3 N2      19.2130  -4.9113 -13.7569   N.ar      1 RES1   0.0000
     4 C1      15.3431  -5.1359 -13.1450   C.ar      1 RES1   0.0000
     5 H1      15.0553  -5.8235 -12.5890   H         1 RES1   0.0000
     6 C2      14.3998  -4.2921 -13.6895   C.ar      1 RES1   0.0000
     7 H2      13.4973  -4.4147 -13.5057   H         1 RES1   0.0000
     8 C3      14.8166  -3.2568 -14.5184   C.ar      1 RES1   0.0000
     9 H3      14.1971  -2.6795 -14.9031   H         1 RES1   0.0000
    10 C4      16.1570  -3.1024 -14.7593   C.ar      1 RES1   0.0000
    11 H4      16.4609  -2.4031 -15.2913   H         1 RES1   0.0000
    12 C5      17.0609  -4.0031 -14.1976   C.ar      1 RES1   0.0000
    13 C6      18.5086  -3.9673 -14.4385   C.ar      1 RES1   0.0000
    14 C7      19.1358  -3.0477 -15.2753   C.ar      1 RES1   0.0000
    15 H5      18.6368  -2.3937 -15.7091   H         1 RES1   0.0000
    16 C8      20.4981  -3.1121 -15.4557   C.ar      1 RES1   0.0000
    17 H6      20.9316  -2.4985 -16.0037   H         1 RES1   0.0000
    18 C9      21.2213  -4.1135 -14.8027   C.ar      1 RES1   0.0000
    19 H7      22.1374  -4.2002 -14.9294   H         1 RES1   0.0000
    20 C10     20.5334  -4.9776 -13.9613   C.ar      1 RES1   0.0000
    21 H8      21.0157  -5.6357 -13.5160   H         1 RES1   0.0000
    22 N1A     16.9807  -7.0560 -11.2932   N.ar      1 RES1   0.0000
    23 N2A     18.1489  -4.7583 -11.0626   N.ar      1 RES1   0.0000
    24 C1A     16.3885  -8.2393 -11.4919   C.ar      1 RES1   0.0000
    25 H1A     16.4528  -8.6302 -12.3333   H         1 RES1   0.0000
    26 C2A     15.6901  -8.9059 -10.5089   C.ar      1 RES1   0.0000
    27 H2A     15.2905  -9.7251 -10.6893   H         1 RES1   0.0000
    28 C3A     15.5904  -8.3355  -9.2451   C.ar      1 RES1   0.0000
    29 H3A     15.1177  -8.7638  -8.5681   H         1 RES1   0.0000
    30 C4A     16.2005  -7.1300  -9.0145   C.ar      1 RES1   0.0000
    31 H4A     16.1672  -6.7408  -8.1708   H         1 RES1   0.0000
    32 C5A     16.8731  -6.4936 -10.0568   C.ar      1 RES1   0.0000
    33 C6A     17.5081  -5.1755  -9.9369   C.ar      1 RES1   0.0000
    34 C7A     17.4856  -4.4032  -8.7782   C.ar      1 RES1   0.0000
    35 H5A     17.0652  -4.7215  -8.0121   H         1 RES1   0.0000
    36 C8A     18.0897  -3.1673  -8.7736   C.ar      1 RES1   0.0000
    37 H6A     18.0912  -2.6451  -8.0041   H         1 RES1   0.0000
    38 C9A     18.7019  -2.7081  -9.9426   C.ar      1 RES1   0.0000
    39 H7A     19.0910  -1.8655  -9.9780   H         1 RES1   0.0000
    40 C10A    18.7104  -3.5442 -11.0512   C.ar      1 RES1   0.0000
    41 H8A     19.1291  -3.2449 -11.8252   H         1 RES1   0.0000
    42 N1B     18.1663  -7.4644 -13.9487   N.ar      1 RES1   0.0000
    43 N2B     19.6821  -7.0788 -11.8869   N.ar      1 RES1   0.0000
    44 C1B     17.3292  -7.6134 -14.9819   C.ar      1 RES1   0.0000
    45 H1B     16.5983  -7.0419 -15.0447   H         1 RES1   0.0000
    46 C2B     17.5001  -8.5718 -15.9569   C.ar      1 RES1   0.0000
    47 H2B     16.8932  -8.6440 -16.6567   H         1 RES1   0.0000
    48 C3B     18.5912  -9.4295 -15.8781   C.ar      1 RES1   0.0000
    49 H3B     18.7227 -10.0889 -16.5208   H         1 RES1   0.0000
    50 C4B     19.4697  -9.2868 -14.8358   C.ar      1 RES1   0.0000
    51 H4B     20.2193  -9.8335 -14.7753   H         1 RES1   0.0000
    52 C5B     19.2295  -8.3127 -13.8676   C.ar      1 RES1   0.0000
    53 C6B     20.0698  -8.1141 -12.6803   C.ar      1 RES1   0.0000
    54 C7B     21.1830  -8.8935 -12.3755   C.ar      1 RES1   0.0000
    55 H5B     21.4453  -9.5783 -12.9475   H         1 RES1   0.0000
    56 C8B     21.8923  -8.6438 -11.2236   C.ar      1 RES1   0.0000
    57 H6B     22.6435  -9.1497 -11.0124   H         1 RES1   0.0000
    58 C9B     21.4676  -7.6179 -10.3753   C.ar      1 RES1   0.0000
    59 H7B     21.9087  -7.4464  -9.5762   H         1 RES1   0.0000
    60 C10B    20.3664  -6.8635 -10.7578   C.ar      1 RES1   0.0000
    61 H8B     20.0912  -6.1722 -10.2007   H         1 RES1   0.0000
    62 B1      18.0363   0.3195 -14.6588   B         2 RES2   0.0000
    63 H9      18.0516  -0.5890 -14.0377   H         2 RES2   0.0000
    64 B2      17.4207   0.3023 -16.3416   B         2 RES2  -1.0000
    65 H10     17.0387  -0.6173 -16.8085   H         2 RES2   0.0000
    66 B3      19.1647   0.5503 -16.0242   B         2 RES2   0.0000
    67 H11     19.9113  -0.2120 -16.2891   H         2 RES2   0.0000
    68 B4      19.3246   1.5449 -14.5641   B         2 RES2   0.0000
    69 H12     20.1809   1.4257 -13.8848   H         2 RES2   0.0000
    70 B1A     18.3481   1.5280 -17.2732   B         2 RES2  -1.0000
    71 H9A     18.5668   1.3988 -18.3441   H         2 RES2   0.0000
    72 B2A     16.6970   1.9009 -16.6852   B         2 RES2   0.0000
    73 H10A    15.8485   2.0132 -17.3759   H         2 RES2   0.0000
    74 B3A     17.9927   3.1302 -16.5676   B         2 RES2   0.0000
    75 H11A    17.9792   4.0404 -17.1841   H         2 RES2   0.0000
    76 B4A     19.5072   2.2997 -16.1635   B         2 RES2   0.0000
    77 H12A    20.4765   2.6781 -16.5186   H         2 RES2   0.0000
    78 B1B     16.8604   2.9098 -15.2068   B         2 RES2   0.0000
    79 H9B     16.1162   3.6766 -14.9431   H         2 RES2   0.0000
    80 B2B     16.5014   1.1595 -15.0698   B         2 RES2   0.0000
    81 H10B    15.5256   0.7949 -14.7170   H         2 RES2   0.0000
    82 B3B     17.6834   1.9246 -13.9647   B         2 RES2   0.0000
    83 H11B    17.4698   2.0526 -12.8938   H         2 RES2   0.0000
    84 B4B     18.5970   3.1351 -14.8849   B         2 RES2   0.0000
    85 H12B    18.9777   4.0478 -14.4042   H         2 RES2   0.0000
    86 N3      12.4514  -6.1598 -11.9303   N.1       3 RES3   0.0000
    87 C11     11.8715  -8.6202 -11.4199   C.3       3 RES3   0.0000
    88 H13     12.5599  -9.1931 -11.7647   H         3 RES3   0.0000
    89 H14     11.0341  -8.8407 -11.8344   H         3 RES3   0.0000
    90 H15     11.7991  -8.7417 -10.4701   H         3 RES3   0.0000
    91 C12     12.2008  -7.2495 -11.7042   C.1       3 RES3   0.0000
@<TRIPOS>BOND
     1     1     2    1
     2     2     4   ar
     3     3     1    1
     4     4     5    1
     5     6     4   ar
     6     7     6    1
     7     8     6   ar
     8     9     8    1
     9    10     8   ar
    10    11    10    1
    11    12     2   ar
    12    13     3   ar
    13    14    13   ar
    14    15    14    1
    15    16    14   ar
    16    17    16    1
    17    18    16   ar
    18    19    18    1
    19    20     3   ar
    20    21    20    1
    21    22     1    1
    22    23     1    1
    23    24    22   ar
    24    25    24    1
    25    26    24   ar
    26    27    26    1
    27    28    26   ar
    28    29    28    1
    29    30    28   ar
    30    31    30    1
    31    32    22   ar
    32    33    23   ar
    33    34    33   ar
    34    35    34    1
    35    36    34   ar
    36    37    36    1
    37    38    36   ar
    38    39    38    1
    39    40    23   ar
    40    41    40    1
    41    42     1    1
    42    43     1    1
    43    44    42   ar
    44    45    44    1
    45    46    44   ar
    46    47    46    1
    47    48    46   ar
    48    49    48    1
    49    50    48   ar
    50    51    50    1
    51    52    42   ar
    52    53    43   ar
    53    54    53   ar
    54    55    54    1
    55    56    54   ar
    56    57    56    1
    57    58    56   ar
    58    59    58    1
    59    60    43   ar
    60    61    60    1
    61    10    12   ar
    62    12    13    1
    63    18    20   ar
    64    30    32   ar
    65    32    33    1
    66    38    40   ar
    67    50    52   ar
    68    52    53    1
    69    58    60   ar
    70    62    63    1
    71    64    62    1
    72    65    64    1
    73    66    62    1
    74    67    66    1
    75    68    62    1
    76    69    68    1
    77    70    64    1
    78    71    70    1
    79    72    64    1
    80    73    72    1
    81    74    70    1
    82    75    74    1
    83    76    66    1
    84    77    76    1
    85    78    72    1
    86    79    78    1
    87    80    62    1
    88    81    80    1
    89    82    62    1
    90    83    82    1
    91    84    68    1
    92    85    84    1
    93    64    66    1
    94    64    80    1
    95    66    68    1
    96    66    70    1
    97    68    76    1
    98    68    82    1
    99    70    72    1
   100    70    76    1
   101    72    74    1
   102    72    80    1
   103    74    76    1
   104    74    78    1
   105    74    84    1
   106    76    84    1
   107    78    80    1
   108    78    82    1
   109    78    84    1
   110    80    82    1
   111    82    84    1
   112    86    91    3
   113    87    88    1
   114    89    87    1
   115    90    87    1
   116    91    87    1
@<TRIPOS>SUBSTRUCTURE
     1 RES1        1 GROUP             0 ****  ****    0  
     2 RES2       62 GROUP             0 ****  ****    0  
     3 RES3       86 GROUP             0 ****  ****    0  
@<TRIPOS>CRYSIN
   14.7627   14.7627   14.7627   55.9500   55.9500   55.9500   148     1
