@<TRIPOS>MOLECULE
MOSQOC
    93    96     9     0     0
SMALL
USER_CHARGES
****
Generated from the CSD

@<TRIPOS>ATOM
     1 Fe1     -1.0912   8.3196  -3.2849   Fe        1 RES1   2.0000
     2 N1      -2.2790   8.3024  -1.7183   N.ar      1 RES1   0.0000
     3 N2      -2.7126   7.6740  -4.2237   N.ar      1 RES1   0.0000
     4 N3      -1.5017  10.1991  -3.7216   N.ar      1 RES1   0.0000
     5 N4      -0.0532   8.4098  -4.9690   N.ar      1 RES1   0.0000
     6 N5      -0.4410   6.4964  -2.9230   N.ar      1 RES1   0.0000
     7 N6       0.5012   8.8353  -2.2384   N.ar      1 RES1   0.0000
     8 C1      -2.0405   8.6634  -0.4558   C.ar      1 RES1   0.0000
     9 H1      -1.1688   8.9655  -0.2249   H         1 RES1   0.0000
    10 C2      -3.0175   8.6174   0.5390   C.ar      1 RES1   0.0000
    11 H2      -2.8070   8.8963   1.4232   H         1 RES1   0.0000
    12 C3      -4.2831   8.1696   0.2439   C.ar      1 RES1   0.0000
    13 H3      -4.9493   8.1242   0.9186   H         1 RES1   0.0000
    14 C4      -2.9027   7.3615  -5.5047   C.ar      1 RES1   0.0000
    15 H4      -2.1853   7.4872  -6.1140   H         1 RES1   0.0000
    16 C5      -4.5708   7.7789  -1.0745   C.ar      1 RES1   0.0000
    17 C6      -5.8486   7.2886  -1.5196   C.ar      1 RES1   0.0000
    18 H5      -6.5592   7.2162  -0.8937   H         1 RES1   0.0000
    19 C7      -6.0674   6.9285  -2.8023   C.ar      1 RES1   0.0000
    20 H6      -6.9219   6.6006  -3.0570   H         1 RES1   0.0000
    21 C8      -5.0307   7.0334  -3.7864   C.ar      1 RES1   0.0000
    22 C9      -5.1719   6.6766  -5.1406   C.ar      1 RES1   0.0000
    23 H7      -5.9913   6.3174  -5.4583   H         1 RES1   0.0000
    24 C10     -4.1173   6.8551  -5.9950   C.ar      1 RES1   0.0000
    25 H8      -4.2061   6.6361  -6.9148   H         1 RES1   0.0000
    26 C11     -3.7720   7.5173  -3.3807   C.ar      1 RES1   0.0000
    27 C12     -3.5418   7.8700  -2.0194   C.ar      1 RES1   0.0000
    28 C13     -2.2043  11.1050  -3.0415   C.ar      1 RES1   0.0000
    29 H9      -2.6415  10.8345  -2.2419   H         1 RES1   0.0000
    30 C14     -2.3251  12.4335  -3.4533   C.ar      1 RES1   0.0000
    31 H10     -2.8195  13.0504  -2.9249   H         1 RES1   0.0000
    32 C15     -1.7334  12.8529  -4.6194   C.ar      1 RES1   0.0000
    33 H11     -1.8092  13.7566  -4.9026   H         1 RES1   0.0000
    34 C16     -1.0118  11.9209  -5.3881   C.ar      1 RES1   0.0000
    35 C17     -0.3711  12.2274  -6.6423   C.ar      1 RES1   0.0000
    36 H12     -0.4314  13.1068  -6.9981   H         1 RES1   0.0000
    37 C18      0.3144  11.2807  -7.3158   C.ar      1 RES1   0.0000
    38 H13      0.7118  11.5024  -8.1500   H         1 RES1   0.0000
    39 C19      0.4613   9.9454  -6.8030   C.ar      1 RES1   0.0000
    40 C20      1.1995   8.9232  -7.4348   C.ar      1 RES1   0.0000
    41 H14      1.6152   9.0772  -8.2761   H         1 RES1   0.0000
    42 C21      1.3102   7.7032  -6.8184   C.ar      1 RES1   0.0000
    43 H15      1.8149   7.0091  -7.2242   H         1 RES1   0.0000
    44 C22      0.6788   7.4832  -5.5904   C.ar      1 RES1   0.0000
    45 H16      0.7747   6.6330  -5.1787   H         1 RES1   0.0000
    46 C23     -0.1451   9.6343  -5.5773   C.ar      1 RES1   0.0000
    47 C24     -0.9124  10.6156  -4.8850   C.ar      1 RES1   0.0000
    48 C25     -0.9905   5.3083  -3.1974   C.ar      1 RES1   0.0000
    49 H17     -1.8716   5.2828  -3.5508   H         1 RES1   0.0000
    50 C26     -0.3133   4.0981  -2.9820   C.ar      1 RES1   0.0000
    51 H18     -0.7413   3.2744  -3.1796   H         1 RES1   0.0000
    52 C27      0.9698   4.1008  -2.4858   C.ar      1 RES1   0.0000
    53 H19      1.4459   3.2875  -2.3680   H         1 RES1   0.0000
    54 C28      1.5653   5.3328  -2.1538   C.ar      1 RES1   0.0000
    55 C29      2.8664   5.4630  -1.5588   C.ar      1 RES1   0.0000
    56 H20      3.4085   4.6915  -1.4422   H         1 RES1   0.0000
    57 C30      3.3278   6.6738  -1.1614   C.ar      1 RES1   0.0000
    58 H21      4.1822   6.7292  -0.7497   H         1 RES1   0.0000
    59 C31      2.5649   7.8750  -1.3446   C.ar      1 RES1   0.0000
    60 C32      2.9487   9.1527  -0.8853   C.ar      1 RES1   0.0000
    61 H22      3.7802   9.2786  -0.4450   H         1 RES1   0.0000
    62 C33      2.0970  10.2111  -1.0864   C.ar      1 RES1   0.0000
    63 H23      2.3258  11.0719  -0.7568   H         1 RES1   0.0000
    64 C34      0.8900  10.0268  -1.7790   C.ar      1 RES1   0.0000
    65 H24      0.3277  10.7783  -1.9253   H         1 RES1   0.0000
    66 C35      1.3231   7.7688  -1.9935   C.ar      1 RES1   0.0000
    67 C36      0.8143   6.4928  -2.3752   C.ar      1 RES1   0.0000
    68 Cl1      8.0502   8.8330   3.6336   Cl        2 RES2  -1.0000
    69 Cl2      0.0767  10.2844   1.9434   Cl        3 RES3  -1.0000
    70 O1       2.4845  11.9366   2.9178   O.3       4 RES4   0.0000
    71 H25      1.8012  11.4484   2.9380   H         4 RES4   0.0000
    72 C37      1.2307  13.8108   3.7507   C.3       4 RES4   0.0000
    73 H26      0.9585  14.7353   3.5782   H         4 RES4   0.0000
    74 H27      1.7367  13.7698   4.5885   H         4 RES4   0.0000
    75 H28      0.4352  13.2425   3.8221   H         4 RES4   0.0000
    76 C38      2.0882  13.3263   2.6274   C.3       4 RES4   0.0000
    77 H29      1.5854  13.3655   1.7754   H         4 RES4   0.0000
    78 H30      2.8915  13.8981   2.5429   H         4 RES4   0.0000
    79 O2      10.2198   7.3258   7.8879   O.3       5 RES5   0.0000
    80 H31      9.9341   6.7513   8.4451   H         5 RES5   0.0000
    81 H32     11.0700   7.3005   7.8930   H         5 RES5   0.0000
    82 O3       4.4779  11.4367   1.0341   O.3       6 RES6   0.0000
    83 H33      4.9465  11.0647   1.6386   H         6 RES6   0.0000
    84 H34      3.8854  11.8337   1.4970   H         6 RES6   0.0000
    85 O4       7.2616  11.3118   1.7420   O.3       7 RES7   0.0000
    86 H35      7.5138  10.6271   2.1788   H         7 RES7   0.0000
    87 H36      7.9356  11.4447   1.2411   H         7 RES7   0.0000
    88 O5       8.5150   9.2819   6.8063   O.3       8 RES8   0.0000
    89 H37      8.3730   9.0750   5.9950   H         8 RES8   0.0000
    90 H38      8.8886   8.6117   7.1719   H         8 RES8   0.0000
    91 O6       9.1421  12.1435  -0.1749   O.3       9 RES9   0.0000
    92 H39      9.1526  12.9697   0.0226   H         9 RES9   0.0000
    93 H40      8.5741  12.2979  -0.7878   H         9 RES9   0.0000
@<TRIPOS>BOND
     1     1     2    1
     2     2     8   ar
     3     3     1    1
     4     4     1    1
     5     5     1    1
     6     6     1    1
     7     7     1    1
     8     8     9    1
     9    10     8   ar
    10    11    10    1
    11    12    10   ar
    12    13    12    1
    13    14     3   ar
    14    15    14    1
    15    16    12   ar
    16    17    16   ar
    17    18    17    1
    18    19    17   ar
    19    20    19    1
    20    21    19   ar
    21    22    21   ar
    22    23    22    1
    23    24    14   ar
    24    25    24    1
    25    26     3   ar
    26    27     2   ar
    27    28     4   ar
    28    29    28    1
    29    30    28   ar
    30    31    30    1
    31    32    30   ar
    32    33    32    1
    33    34    32   ar
    34    35    34   ar
    35    36    35    1
    36    37    35   ar
    37    38    37    1
    38    39    37   ar
    39    40    39   ar
    40    41    40    1
    41    42    40   ar
    42    43    42    1
    43    44     5   ar
    44    45    44    1
    45    46     5   ar
    46    47     4   ar
    47    48     6   ar
    48    49    48    1
    49    50    48   ar
    50    51    50    1
    51    52    50   ar
    52    53    52    1
    53    54    52   ar
    54    55    54   ar
    55    56    55    1
    56    57    55   ar
    57    58    57    1
    58    59    57   ar
    59    60    59   ar
    60    61    60    1
    61    62    60   ar
    62    63    62    1
    63    64     7   ar
    64    65    64    1
    65    66     7   ar
    66    67     6   ar
    67    16    27   ar
    68    21    26   ar
    69    22    24   ar
    70    26    27   ar
    71    34    47   ar
    72    39    46   ar
    73    42    44   ar
    74    46    47   ar
    75    54    67   ar
    76    59    66   ar
    77    62    64   ar
    78    66    67   ar
    79    70    71    1
    80    72    73    1
    81    74    72    1
    82    75    72    1
    83    76    70    1
    84    77    76    1
    85    78    76    1
    86    72    76    1
    87    79    80    1
    88    81    79    1
    89    82    83    1
    90    84    82    1
    91    85    86    1
    92    87    85    1
    93    88    89    1
    94    90    88    1
    95    91    92    1
    96    93    91    1
@<TRIPOS>SUBSTRUCTURE
     1 RES1        1 GROUP             0 ****  ****    0  
     2 RES2       68 GROUP             0 ****  ****    0  
     3 RES3       69 GROUP             0 ****  ****    0  
     4 RES4       70 GROUP             0 ****  ****    0  
     5 RES5       79 GROUP             0 ****  ****    0  
     6 RES6       82 GROUP             0 ****  ****    0  
     7 RES7       85 GROUP             0 ****  ****    0  
     8 RES8       88 GROUP             0 ****  ****    0  
     9 RES9       91 GROUP             0 ****  ****    0  
@<TRIPOS>CRYSIN
   12.8725   13.0362   13.2153   68.7260   70.0680   71.8740     2     1
