@<TRIPOS>MOLECULE
MOTPIW
   140   146     2     0     0
SMALL
USER_CHARGES
****
Generated from the CSD

@<TRIPOS>ATOM
     1 Fe1      8.1899   5.5167  10.5712   Fe        1 RES1   1.0000
     2 O1       7.2428   5.3056   8.8974   O.3       1 RES1   0.0000
     3 O2      10.8662   6.7219  15.2196   O.3       1 RES1   0.0000
     4 O3       6.8622   6.5024  11.5787   O.3       1 RES1   0.0000
     5 O4      11.6988   2.1150   7.7954   O.3       1 RES1   0.0000
     6 N1       9.3388   6.7377   9.2913   N.2       1 RES1   0.0000
     7 N2       9.7483   6.4252  11.8431   N.ar      1 RES1   0.0000
     8 N3       7.3930   3.9921  11.7959   N.2       1 RES1   0.0000
     9 N4       9.4002   3.7002  10.1594   N.ar      1 RES1   0.0000
    10 C1       7.7587   5.8896   7.8113   C.ar      1 RES1   0.0000
    11 C2       7.1912   5.7517   6.5376   C.ar      1 RES1   0.0000
    12 C3       7.7846   6.3908   5.4609   C.ar      1 RES1   0.0000
    13 C4       8.9293   7.1781   5.6140   C.ar      1 RES1   0.0000
    14 C5       9.4927   7.3243   6.8649   C.ar      1 RES1   0.0000
    15 C6       8.9163   6.6836   7.9519   C.ar      1 RES1   0.0000
    16 C7      10.3278   7.4250   9.7711   C.2       1 RES1   0.0000
    17 C8      10.5601   7.3141  11.1979   C.ar      1 RES1   0.0000
    18 C9      11.4966   8.0714  11.8737   C.ar      1 RES1   0.0000
    19 C10     11.6346   7.9256  13.2459   C.ar      1 RES1   0.0000
    20 C11     10.8272   7.0075  13.8987   C.ar      1 RES1   0.0000
    21 C12      9.8808   6.2872  13.1618   C.ar      1 RES1   0.0000
    22 C13     11.8607   7.4051  16.0188   C.3       1 RES1   0.0000
    23 C14     11.8747   6.7303  17.3712   C.3       1 RES1   0.0000
    24 C15     10.5939   6.9399  18.1849   C.3       1 RES1   0.0000
    25 C16     10.1918   5.6856  18.9607   C.3       1 RES1   0.0000
    26 C17     11.1971   5.1830  19.9809   C.3       1 RES1   0.0000
    27 C18     10.8004   3.8274  20.5440   C.3       1 RES1   0.0000
    28 C19     11.7244   3.2596  21.6076   C.3       1 RES1   0.0000
    29 C20     11.2835   1.8931  22.0935   C.3       1 RES1   0.0000
    30 C21     12.1314   1.2853  23.1987   C.3       1 RES1   0.0000
    31 C22     11.6353  -0.0768  23.6392   C.3       1 RES1   0.0000
    32 C23     12.4265  -0.7169  24.7574   C.3       1 RES1   0.0000
    33 C24     11.9534  -2.1164  25.0970   C.3       1 RES1   0.0000
    34 C25     12.6906  -2.7919  26.2284   C.3       1 RES1   0.0000
    35 C26     12.2593  -4.2290  26.4747   C.3       1 RES1   0.0000
    36 C27      6.1233   5.8257  12.4690   C.ar      1 RES1   0.0000
    37 C28      5.1476   6.4351  13.2624   C.ar      1 RES1   0.0000
    38 C29      4.4200   5.6587  14.1454   C.ar      1 RES1   0.0000
    39 C30      4.6266   4.2910  14.2647   C.ar      1 RES1   0.0000
    40 C31      5.5869   3.6703  13.4915   C.ar      1 RES1   0.0000
    41 C32      6.3473   4.4445  12.6166   C.ar      1 RES1   0.0000
    42 C33      7.8603   2.7876  11.7236   C.2       1 RES1   0.0000
    43 C34      8.9524   2.5850  10.7791   C.ar      1 RES1   0.0000
    44 C35      9.4485   1.3181  10.4882   C.ar      1 RES1   0.0000
    45 C36     10.3900   1.1914   9.4861   C.ar      1 RES1   0.0000
    46 C37     10.8227   2.3222   8.8104   C.ar      1 RES1   0.0000
    47 C38     10.3365   3.5778   9.2041   C.ar      1 RES1   0.0000
    48 C39     12.2283   3.2602   7.0908   C.3       1 RES1   0.0000
    49 C40     11.2771   3.8188   6.0470   C.3       1 RES1   0.0000
    50 C41     10.9822   2.8580   4.8922   C.3       1 RES1   0.0000
    51 C42      9.9967   3.4124   3.8657   C.3       1 RES1   0.0000
    52 C43     10.4686   4.6846   3.1681   C.3       1 RES1   0.0000
    53 C44      9.5151   5.2088   2.0961   C.3       1 RES1   0.0000
    54 C45      9.9465   6.5499   1.5372   C.3       1 RES1   0.0000
    55 C46      9.0500   7.1227   0.4509   C.3       1 RES1   0.0000
    56 C47      9.5071   8.4921  -0.0325   C.3       1 RES1   0.0000
    57 C48      8.6709   9.1278  -1.1382   C.3       1 RES1   0.0000
    58 C49      9.1897  10.5038  -1.5148   C.3       1 RES1   0.0000
    59 C50      8.4529  11.2180  -2.6354   C.3       1 RES1   0.0000
    60 C51      9.0346  12.5906  -2.9261   C.3       1 RES1   0.0000
    61 C52      8.3940  13.3216  -4.0879   C.3       1 RES1   0.0000
    62 H1       6.4093   5.2269   6.4141   H         1 RES1   0.0000
    63 H2       7.4042   6.2900   4.5958   H         1 RES1   0.0000
    64 H3       9.3167   7.6104   4.8616   H         1 RES1   0.0000
    65 H4      10.2688   7.8590   6.9798   H         1 RES1   0.0000
    66 H5      10.8715   7.9736   9.2171   H         1 RES1   0.0000
    67 H6      12.0426   8.6879  11.4012   H         1 RES1   0.0000
    68 H7      12.2683   8.4426  13.7278   H         1 RES1   0.0000
    69 H8       9.3117   5.6772  13.6172   H         1 RES1   0.0000
    70 H9      11.6276   8.3621  16.1139   H         1 RES1   0.0000
    71 H10     12.7511   7.3381  15.5907   H         1 RES1   0.0000
    72 H11     12.6431   7.0759  17.8918   H         1 RES1   0.0000
    73 H12     12.0125   5.7583  17.2410   H         1 RES1   0.0000
    74 H13     10.7303   7.6853  18.8212   H         1 RES1   0.0000
    75 H14      9.8575   7.1937  17.5728   H         1 RES1   0.0000
    76 H15      9.3392   5.8697  19.4294   H         1 RES1   0.0000
    77 H16     10.0212   4.9599  18.3108   H         1 RES1   0.0000
    78 H17     11.2662   5.8375  20.7224   H         1 RES1   0.0000
    79 H18     12.0878   5.1121  19.5549   H         1 RES1   0.0000
    80 H19      9.8923   3.9039  20.9287   H         1 RES1   0.0000
    81 H20     10.7534   3.1810  19.7952   H         1 RES1   0.0000
    82 H21     12.6397   3.1926  21.2371   H         1 RES1   0.0000
    83 H22     11.7526   3.8826  22.3770   H         1 RES1   0.0000
    84 H23     11.2854   1.2730  21.3222   H         1 RES1   0.0000
    85 H24     10.3507   1.9631  22.4174   H         1 RES1   0.0000
    86 H25     13.0650   1.2013  22.8810   H         1 RES1   0.0000
    87 H26     12.1315   1.8965  23.9784   H         1 RES1   0.0000
    88 H27     10.6938   0.0115  23.9316   H         1 RES1   0.0000
    89 H28     11.6487  -0.6841  22.8576   H         1 RES1   0.0000
    90 H29     12.3577  -0.1494  25.5649   H         1 RES1   0.0000
    91 H30     13.3808  -0.7545  24.4952   H         1 RES1   0.0000
    92 H31     10.9914  -2.0741  25.3310   H         1 RES1   0.0000
    93 H32     12.0362  -2.6812  24.2868   H         1 RES1   0.0000
    94 H33     12.5487  -2.2710  27.0578   H         1 RES1   0.0000
    95 H34     13.6605  -2.7803  26.0285   H         1 RES1   0.0000
    96 H35     12.4285  -4.7630  25.6712   H         1 RES1   0.0000
    97 H36     11.3031  -4.2516  26.6878   H         1 RES1   0.0000
    98 H37     12.7698  -4.5991  27.2258   H         1 RES1   0.0000
    99 H38      4.9876   7.3695  13.1961   H         1 RES1   0.0000
   100 H39      3.7589   6.0735  14.6869   H         1 RES1   0.0000
   101 H40      4.1089   3.7842  14.8783   H         1 RES1   0.0000
   102 H41      5.7263   2.7325  13.5534   H         1 RES1   0.0000
   103 H42      7.5134   2.0779  12.2518   H         1 RES1   0.0000
   104 H43      9.1461   0.5566  10.9694   H         1 RES1   0.0000
   105 H44     10.7390   0.3367   9.2617   H         1 RES1   0.0000
   106 H45     10.6783   4.3597   8.7853   H         1 RES1   0.0000
   107 H46     13.0750   3.0005   6.6480   H         1 RES1   0.0000
   108 H47     12.4386   3.9709   7.7475   H         1 RES1   0.0000
   109 H48     11.6645   4.6516   5.6761   H         1 RES1   0.0000
   110 H49     10.4232   4.0558   6.4885   H         1 RES1   0.0000
   111 H50     11.8326   2.6399   4.4341   H         1 RES1   0.0000
   112 H51     10.6164   2.0164   5.2635   H         1 RES1   0.0000
   113 H52      9.8284   2.7193   3.1794   H         1 RES1   0.0000
   114 H53      9.1368   3.6002   4.3193   H         1 RES1   0.0000
   115 H54     11.3488   4.5086   2.7498   H         1 RES1   0.0000
   116 H55     10.5968   5.3897   3.8493   H         1 RES1   0.0000
   117 H56      9.4660   4.5516   1.3568   H         1 RES1   0.0000
   118 H57      8.6092   5.2973   2.4840   H         1 RES1   0.0000
   119 H58     10.8617   6.4575   1.1718   H         1 RES1   0.0000
   120 H59      9.9905   7.2008   2.2819   H         1 RES1   0.0000
   121 H60      8.1261   7.1950   0.7996   H         1 RES1   0.0000
   122 H61      9.0348   6.4980  -0.3169   H         1 RES1   0.0000
   123 H62     10.4396   8.4124  -0.3552   H         1 RES1   0.0000
   124 H63      9.5147   9.1076   0.7422   H         1 RES1   0.0000
   125 H64      8.6865   8.5425  -1.9374   H         1 RES1   0.0000
   126 H65      7.7322   9.2042  -0.8358   H         1 RES1   0.0000
   127 H66     10.1405  10.4146  -1.7779   H         1 RES1   0.0000
   128 H67      9.1580  11.0777  -0.7082   H         1 RES1   0.0000
   129 H68      8.4973  10.6661  -3.4559   H         1 RES1   0.0000
   130 H69      7.5001  11.3158  -2.3861   H         1 RES1   0.0000
   131 H70      8.9451  13.1504  -2.1139   H         1 RES1   0.0000
   132 H71     10.0021  12.4895  -3.1135   H         1 RES1   0.0000
   133 H72      7.4341  13.4242  -3.9195   H         1 RES1   0.0000
   134 H73      8.5295  12.8081  -4.9105   H         1 RES1   0.0000
   135 H74      8.8048  14.2068  -4.1832   H         1 RES1   0.0000
   136 Cl1     13.8593   6.6342   7.6189   Cl        2 RES2   0.0000
   137 O5      12.4485   6.4430   7.7316   O.2       2 RES2   0.0000
   138 O6      14.3013   7.1982   8.8734   O.3       2 RES2  -1.0000
   139 O7      14.1747   7.5665   6.5887   O.2       2 RES2   0.0000
   140 O8      14.4965   5.3824   7.4317   O.2       2 RES2   0.0000
@<TRIPOS>BOND
     1     1     2    1
     2     2    10    1
     3     3    20    1
     4     4     1    1
     5     5    46    1
     6     6     1    1
     7     7     1    1
     8     8     1    1
     9     9     1    1
    10    10    11   ar
    11    11    12   ar
    12    12    13   ar
    13    13    14   ar
    14    14    15   ar
    15    15     6    1
    16    16     6    2
    17    17     7   ar
    18    18    17   ar
    19    19    18   ar
    20    20    19   ar
    21    21     7   ar
    22    22     3    1
    23    23    22    1
    24    24    23    1
    25    25    24    1
    26    26    25    1
    27    27    26    1
    28    28    27    1
    29    29    28    1
    30    30    29    1
    31    31    30    1
    32    32    31    1
    33    33    32    1
    34    34    33    1
    35    35    34    1
    36    36     4    1
    37    37    36   ar
    38    38    37   ar
    39    39    38   ar
    40    40    39   ar
    41    41     8    1
    42    42     8    2
    43    43     9   ar
    44    44    43   ar
    45    45    44   ar
    46    46    45   ar
    47    47     9   ar
    48    48     5    1
    49    49    48    1
    50    50    49    1
    51    51    50    1
    52    52    51    1
    53    53    52    1
    54    54    53    1
    55    55    54    1
    56    56    55    1
    57    57    56    1
    58    58    57    1
    59    59    58    1
    60    60    59    1
    61    61    60    1
    62    62    11    1
    63    63    12    1
    64    64    13    1
    65    65    14    1
    66    66    16    1
    67    67    18    1
    68    68    19    1
    69    69    21    1
    70    70    22    1
    71    71    22    1
    72    72    23    1
    73    73    23    1
    74    74    24    1
    75    75    24    1
    76    76    25    1
    77    77    25    1
    78    78    26    1
    79    79    26    1
    80    80    27    1
    81    81    27    1
    82    82    28    1
    83    83    28    1
    84    84    29    1
    85    85    29    1
    86    86    30    1
    87    87    30    1
    88    88    31    1
    89    89    31    1
    90    90    32    1
    91    91    32    1
    92    92    33    1
    93    93    33    1
    94    94    34    1
    95    95    34    1
    96    96    35    1
    97    97    35    1
    98    98    35    1
    99    99    37    1
   100   100    38    1
   101   101    39    1
   102   102    40    1
   103   103    42    1
   104   104    44    1
   105   105    45    1
   106   106    47    1
   107   107    48    1
   108   108    48    1
   109   109    49    1
   110   110    49    1
   111   111    50    1
   112   112    50    1
   113   113    51    1
   114   114    51    1
   115   115    52    1
   116   116    52    1
   117   117    53    1
   118   118    53    1
   119   119    54    1
   120   120    54    1
   121   121    55    1
   122   122    55    1
   123   123    56    1
   124   124    56    1
   125   125    57    1
   126   126    57    1
   127   127    58    1
   128   128    58    1
   129   129    59    1
   130   130    59    1
   131   131    60    1
   132   132    60    1
   133   133    61    1
   134   134    61    1
   135   135    61    1
   136    10    15   ar
   137    16    17    1
   138    20    21   ar
   139    36    41   ar
   140    40    41   ar
   141    42    43    1
   142    46    47   ar
   143   136   137    2
   144   138   136    1
   145   139   136    2
   146   140   136    2
@<TRIPOS>SUBSTRUCTURE
     1 RES1        1 GROUP             0 ****  ****    0  
     2 RES2      136 GROUP             0 ****  ****    0  
@<TRIPOS>CRYSIN
   10.6395   12.2937   22.1290   74.0260   84.7350   65.2550     2     1
