@<TRIPOS>MOLECULE
MUCPAE
    99   105     3     0     0
SMALL
USER_CHARGES
****
Generated from the CSD

@<TRIPOS>ATOM
     1 H1       6.1736  14.3065   5.7504   H         1 RES1   0.0000
     2 H2       9.5508  13.6237   8.4421   H         1 RES1   0.0000
     3 H3       5.7807  10.8080  13.9785   H         1 RES1   0.0000
     4 H4       5.8783   8.4492  13.9173   H         1 RES1   0.0000
     5 H5       6.8091   6.5582  13.1220   H         1 RES1   0.0000
     6 H6       8.9695   8.6338  10.4456   H         1 RES1   0.0000
     7 H7       0.2523  18.4551   6.8057   H         1 RES1   0.0000
     8 N1       9.1944  13.2210  10.2780   N.2       1 RES1   0.0000
     9 H8       4.4566  13.5630   9.1915   H         1 RES1   0.0000
    10 H9       8.2868  13.8721   6.6222   H         1 RES1   0.0000
    11 H10     11.8069   2.3427  12.4185   H         1 RES1   0.0000
    12 H11      3.9944  17.5480   3.4717   H         1 RES1   0.0000
    13 H12      2.8321  18.3945   2.9976   H         1 RES1   0.0000
    14 H13      3.8348  18.9489   4.0681   H         1 RES1   0.0000
    15 H14      2.9605  15.7861   4.7411   H         1 RES1   0.0000
    16 H15      9.2117   5.7391  15.5384   H         1 RES1   0.0000
    17 H16      9.0212   4.0336  15.8443   H         1 RES1   0.0000
    18 H17     10.3845   4.9825  16.2878   H         1 RES1   0.0000
    19 H18     10.1036   6.4382  13.3820   H         1 RES1   0.0000
    20 H19     10.7486  14.2644  10.9962   H         1 RES1   0.0000
    21 Fe1      7.9372  12.6690  11.6260   Fe        1 RES1   1.0000
    22 H20     11.1613  13.1425  10.0939   H         1 RES1   0.0000
    23 H21     11.5217  12.6436  12.4491   H         1 RES1   0.0000
    24 H22     10.8337  11.5075  11.6691   H         1 RES1   0.0000
    25 H23      9.1209  13.4162  14.5902   H         1 RES1   0.0000
    26 H24     10.4336  13.7756  14.1161   H         1 RES1   0.0000
    27 H25      8.7092  15.4728  13.8561   H         1 RES1   0.0000
    28 H26      9.5597  15.2852  12.5714   H         1 RES1   0.0000
    29 H27      5.7806  14.5908  12.4338   H         1 RES1   0.0000
    30 H28      6.3510  15.2389  13.6726   H         1 RES1   0.0000
    31 H29      6.8308  13.2629  14.7126   H         1 RES1   0.0000
    32 O1       6.4308  12.9887  10.5363   O.3       1 RES1   0.0000
    33 H30      5.3814  13.1459  14.0702   H         1 RES1   0.0000
    34 H31      1.7273  13.9529   5.6740   H         1 RES1   0.0000
    35 H32      0.7096  14.2067   6.9128   H         1 RES1   0.0000
    36 H33      2.7445  14.7029   8.1363   H         1 RES1   0.0000
    37 H34      2.5817  13.1857   7.6927   H         1 RES1   0.0000
    38 H35     10.9348   7.2286  11.3632   H         1 RES1   0.0000
    39 H36     11.6058   6.2809  10.3080   H         1 RES1   0.0000
    40 H37      9.4567   5.2669   9.9256   H         1 RES1   0.0000
    41 H38      9.3791   6.7812   9.5433   H         1 RES1   0.0000
    42 H39      7.6114  14.9924  11.7456   H         1 RES1   0.0000
    43 O2       8.2578  10.9082  11.0606   O.3       1 RES1   0.0000
    44 H40      9.5215  11.8545  13.2291   H         1 RES1   0.0000
    45 N2       7.7408  14.4885  12.3980   N.3       1 RES1   0.0000
    46 N3       6.7370  12.1483  13.0298   N.2       1 RES1   0.0000
    47 N4       9.5429  12.5286  12.7932   N.3       1 RES1   0.0000
    48 C1       6.4302  13.3452   9.2573   C.ar      1 RES1   0.0000
    49 C2       5.1889  13.6000   8.6715   C.ar      1 RES1   0.0000
    50 C3       5.1019  13.9668   7.3395   C.ar      1 RES1   0.0000
    51 C4       6.2566  14.0736   6.5549   C.ar      1 RES1   0.0000
    52 C5       7.4708  13.8590   7.1208   C.ar      1 RES1   0.0000
    53 C6       7.6044  13.5061   8.4834   C.ar      1 RES1   0.0000
    54 C7       8.9209  13.4617   9.0447   C.2       1 RES1   0.0000
    55 C8      10.5816  13.3388  10.7423   C.3       1 RES1   0.0000
    56 C9      10.7483  12.4236  11.9199   C.3       1 RES1   0.0000
    57 C10      9.5601  13.6235  13.7995   C.3       1 RES1   0.0000
    58 C11      8.9359  14.8648  13.1924   C.3       1 RES1   0.0000
    59 C12      6.4467  14.5262  13.1144   C.3       1 RES1   0.0000
    60 C13      6.2458  13.2579  13.8745   C.3       1 RES1   0.0000
    61 C14      6.3834  10.9398  13.3117   C.2       1 RES1   0.0000
    62 C15      6.8899   9.7455  12.6861   C.ar      1 RES1   0.0000
    63 C16      6.5140   8.5065  13.2153   C.ar      1 RES1   0.0000
    64 C17      7.0483   7.3419  12.7412   C.ar      1 RES1   0.0000
    65 C18      7.9647   7.3898  11.6936   C.ar      1 RES1   0.0000
    66 C19      8.3575   8.5979  11.1537   C.ar      1 RES1   0.0000
    67 C20      7.8253   9.8055  11.6294   C.ar      1 RES1   0.0000
    68 O3       1.3972  19.7564   5.1725   O.2       1 RES1   0.0000
    69 O4      -0.1316  16.2565   7.5988   O.2       1 RES1   0.0000
    70 O5       3.9303  14.2315   6.6988   O.3       1 RES1   0.0000
    71 O6      11.1287   2.4671  14.7959   O.2       1 RES1   0.0000
    72 O7      11.8237   3.8630  10.5293   O.2       1 RES1   0.0000
    73 O8       8.4131   6.1730  11.2504   O.3       1 RES1   0.0000
    74 N5       0.7489  18.0043   6.4333   N.am      1 RES1   0.0000
    75 N6       1.5839  15.8796   6.1339   N.am      1 RES1   0.0000
    76 N7      11.5201   3.2122  12.6969   N.am      1 RES1   0.0000
    77 N8      11.0092   5.3745  12.0279   N.am      1 RES1   0.0000
    78 C21      0.6798  16.6866   6.7767   C.2       1 RES1   0.0000
    79 C22      1.5333  18.5752   5.4476   C.2       1 RES1   0.0000
    80 C23      3.3494  18.1918   3.7408   C.3       1 RES1   0.0000
    81 C24      2.4684  17.6636   4.8175   C.2       1 RES1   0.0000
    82 C25      2.4291  16.3835   5.1830   C.2       1 RES1   0.0000
    83 C26      1.6059  14.4378   6.4616   C.3       1 RES1   0.0000
    84 C27      2.7069  14.1069   7.4312   C.3       1 RES1   0.0000
    85 C28     11.4745   4.1289  11.6661   C.2       1 RES1   0.0000
    86 C29     11.0449   3.3845  13.9785   C.2       1 RES1   0.0000
    87 C30     10.4268   4.6636  14.2446   C.2       1 RES1   0.0000
    88 C31      9.7283   4.8783  15.5507   C.3       1 RES1   0.0000
    89 C32     10.4645   5.5768  13.2765   C.2       1 RES1   0.0000
    90 C33     10.8196   6.3610  10.9687   C.3       1 RES1   0.0000
    91 C34      9.4804   6.1456  10.2973   C.3       1 RES1   0.0000
    92 H41     13.2047   0.9068  11.3479   H         2 RES2   0.0000
    93 H42     12.3227  -0.0477  11.9291   H         2 RES2   0.0000
    94 O9      12.4707   0.8438  11.6248   O.3       2 RES2   0.0000
    95 Cl1     11.0806  -2.1178  13.4622   Cl        3 RES3   0.0000
    96 O10     12.0797  -1.8433  12.4904   O.3       3 RES3  -1.0000
    97 O11     10.5790  -0.9487  14.0210   O.2       3 RES3   0.0000
    98 O12     10.1170  -2.8345  12.8727   O.2       3 RES3   0.0000
    99 O13     11.6448  -2.8854  14.4939   O.2       3 RES3   0.0000
@<TRIPOS>BOND
     1     1    51    1
     2     2    54    1
     3     3    61    1
     4     4    63    1
     5     5    64    1
     6     6    66    1
     7     7    74    1
     8     8    21    1
     9     9    49    1
    10    10    52    1
    11    11    76    1
    12    12    80    1
    13    13    80    1
    14    14    80    1
    15    15    82    1
    16    16    88    1
    17    17    88    1
    18    18    88    1
    19    19    89    1
    20    20    55    1
    21    21    32    1
    22    22    55    1
    23    23    56    1
    24    24    56    1
    25    25    57    1
    26    26    57    1
    27    27    58    1
    28    28    58    1
    29    29    59    1
    30    30    59    1
    31    31    60    1
    32    32    48    1
    33    33    60    1
    34    34    83    1
    35    35    83    1
    36    36    84    1
    37    37    84    1
    38    38    90    1
    39    39    90    1
    40    40    91    1
    41    41    91    1
    42    42    45    1
    43    43    21    1
    44    44    47    1
    45    45    21    1
    46    46    21    1
    47    47    21    1
    48    48    49   ar
    49    49    50   ar
    50    50    51   ar
    51    51    52   ar
    52    52    53   ar
    53    53    48   ar
    54    54     8    2
    55    55     8    1
    56    56    47    1
    57    57    47    1
    58    58    45    1
    59    59    45    1
    60    60    46    1
    61    61    46    2
    62    62    61    1
    63    63    62   ar
    64    64    63   ar
    65    65    64   ar
    66    66    65   ar
    67    67    43    1
    68    68    79    2
    69    69    78    2
    70    70    50    1
    71    71    86    2
    72    72    85    2
    73    73    65    1
    74    74    78   am
    75    75    78   am
    76    76    85   am
    77    77    85   am
    78    79    74   am
    79    80    81    1
    80    81    79    1
    81    82    75    1
    82    83    75    1
    83    84    70    1
    84    86    76   am
    85    87    86    1
    86    88    87    1
    87    89    77    1
    88    90    77    1
    89    91    73    1
    90    53    54    1
    91    55    56    1
    92    57    58    1
    93    59    60    1
    94    62    67   ar
    95    66    67   ar
    96    81    82    2
    97    83    84    1
    98    87    89    2
    99    90    91    1
   100    92    94    1
   101    93    94    1
   102    95    96    1
   103    97    95    2
   104    98    95    2
   105    99    95    2
@<TRIPOS>SUBSTRUCTURE
     1 RES1        1 GROUP             0 ****  ****    0  
     2 RES2       92 GROUP             0 ****  ****    0  
     3 RES3       95 GROUP             0 ****  ****    0  
@<TRIPOS>CRYSIN
   10.5107   11.7496   15.7207   83.9070   77.2870   80.7710     2     1
