@<TRIPOS>MOLECULE
MUHBOI
    76    78     2     0     0
SMALL
USER_CHARGES
****
Generated from the CSD

@<TRIPOS>ATOM
     1 Fe1      2.8415   4.5627   3.3366   Fe        1 RES1   1.0000
     2 H1       1.8745   4.3774   4.3538   H         1 RES1   0.0000
     3 P1       1.5847   3.0222   2.3200   P.3       1 RES1   0.0000
     4 O1       4.9647   5.0463   1.3233   O.2       1 RES1   0.0000
     5 O2       4.2340   2.6208   4.9991   O.2       1 RES1   0.0000
     6 N1       1.6224   5.8310   2.4568   N.ar      1 RES1   0.0000
     7 N2       3.2301   6.2109   4.3724   N.2       1 RES1   0.0000
     8 C1       0.8438   4.0718   0.9956   C.3       1 RES1   0.0000
     9 H2       1.3962   4.0167   0.1759   H         1 RES1   0.0000
    10 H3      -0.0652   3.7449   0.7780   H         1 RES1   0.0000
    11 C2       0.7731   5.4941   1.4670   C.ar      1 RES1   0.0000
    12 C3      -0.1121   6.4345   0.9349   C.ar      1 RES1   0.0000
    13 H4      -0.7149   6.1888   0.2437   H         1 RES1   0.0000
    14 C4      -0.1023   7.7304   1.4255   C.ar      1 RES1   0.0000
    15 H5      -0.7144   8.3744   1.0881   H         1 RES1   0.0000
    16 C5       0.8114   8.0816   2.4166   C.ar      1 RES1   0.0000
    17 H6       0.8541   8.9730   2.7418   H         1 RES1   0.0000
    18 C6       1.6570   7.1063   2.9200   C.ar      1 RES1   0.0000
    19 C7       2.6026   7.2873   4.0289   C.2       1 RES1   0.0000
    20 C8       2.7429   8.6119   4.6933   C.3       1 RES1   0.0000
    21 H7       1.9248   8.8142   5.1943   H         1 RES1   0.0000
    22 H8       2.8908   9.3042   4.0150   H         1 RES1   0.0000
    23 H9       3.5055   8.5893   5.3090   H         1 RES1   0.0000
    24 C9       0.1098   2.4492   3.3465   C.3       1 RES1   0.0000
    25 C10     -0.7545   3.6812   3.6599   C.3       1 RES1   0.0000
    26 H10     -1.1483   4.0235   2.8304   H         1 RES1   0.0000
    27 H11     -0.1968   4.3766   4.0671   H         1 RES1   0.0000
    28 H12     -1.4694   3.4290   4.2808   H         1 RES1   0.0000
    29 C11     -0.7893   1.4414   2.6058   C.3       1 RES1   0.0000
    30 H13     -1.5890   1.2605   3.1432   H         1 RES1   0.0000
    31 H14     -0.2961   0.6065   2.4629   H         1 RES1   0.0000
    32 H15     -1.0555   1.8163   1.7397   H         1 RES1   0.0000
    33 C12      0.5789   1.8433   4.6832   C.3       1 RES1   0.0000
    34 H16     -0.1996   1.5471   5.1996   H         1 RES1   0.0000
    35 H17      1.0711   2.5203   5.1943   H         1 RES1   0.0000
    36 H18      1.1646   1.0781   4.5076   H         1 RES1   0.0000
    37 C13      2.3595   1.5793   1.3946   C.3       1 RES1   0.0000
    38 C14      2.6144   0.4087   2.3554   C.3       1 RES1   0.0000
    39 H19      1.7574   0.0281   2.6415   H         1 RES1   0.0000
    40 H20      3.1072   0.7303   3.1393   H         1 RES1   0.0000
    41 H21      3.1414  -0.2802   1.8987   H         1 RES1   0.0000
    42 C15      1.4998   1.1172   0.2063   C.3       1 RES1   0.0000
    43 H22      1.9157   0.3347  -0.2124   H         1 RES1   0.0000
    44 H23      1.4329   1.8426  -0.4496   H         1 RES1   0.0000
    45 H24      0.6037   0.8792   0.5239   H         1 RES1   0.0000
    46 C16      3.7127   2.0388   0.8339   C.3       1 RES1   0.0000
    47 H25      4.0939   1.3277   0.2776   H         1 RES1   0.0000
    48 H26      4.3226   2.2367   1.5742   H         1 RES1   0.0000
    49 H27      3.5850   2.8454   0.2919   H         1 RES1   0.0000
    50 C17      4.0856   6.1886   5.5354   C.ar      1 RES1   0.0000
    51 C18      5.4532   6.4611   5.4030   C.ar      1 RES1   0.0000
    52 C19      6.2614   6.2876   6.5228   C.ar      1 RES1   0.0000
    53 H28      7.1925   6.4588   6.4454   H         1 RES1   0.0000
    54 C20      5.7565   5.8725   7.7501   C.ar      1 RES1   0.0000
    55 C21      4.3834   5.6742   7.8597   C.ar      1 RES1   0.0000
    56 H29      4.0203   5.4192   8.6998   H         1 RES1   0.0000
    57 C22      3.5245   5.8376   6.7738   C.ar      1 RES1   0.0000
    58 C23      6.0373   6.9725   4.1104   C.3       1 RES1   0.0000
    59 H30      6.9948   7.1451   4.2300   H         1 RES1   0.0000
    60 H31      5.5851   7.8029   3.8534   H         1 RES1   0.0000
    61 H32      5.9114   6.3015   3.4077   H         1 RES1   0.0000
    62 C24      6.6580   5.6638   8.9418   C.3       1 RES1   0.0000
    63 H33      7.0681   4.7749   8.8901   H         1 RES1   0.0000
    64 H34      6.1324   5.7331   9.7658   H         1 RES1   0.0000
    65 H35      7.3603   6.3478   8.9435   H         1 RES1   0.0000
    66 C25      2.0392   5.6878   6.9682   C.3       1 RES1   0.0000
    67 H36      1.7451   4.8332   6.5900   H         1 RES1   0.0000
    68 H37      1.5749   6.4221   6.5157   H         1 RES1   0.0000
    69 H38      1.8312   5.7104   7.9257   H         1 RES1   0.0000
    70 C26      4.1390   4.8245   2.0780   C.1       1 RES1   0.0000
    71 C27      3.7180   3.4004   4.3344   C.1       1 RES1   0.0000
    72 B1       4.6326  10.0644   1.7649   B         2 RES2  -1.0000
    73 F1       4.2489   8.7313   1.6731   F         2 RES2   0.0000
    74 F2       4.8998  10.5781   0.5093   F         2 RES2   0.0000
    75 F3       5.7297  10.1559   2.5692   F         2 RES2   0.0000
    76 F4       3.5830  10.7819   2.2941   F         2 RES2   0.0000
@<TRIPOS>BOND
     1     1     2    1
     2     3     1    1
     3     4    70    3
     4     5    71    3
     5     6     1    1
     6     7     1    1
     7     8     3    1
     8     9     8    1
     9    10     8    1
    10    11     6   ar
    11    12    11   ar
    12    13    12    1
    13    14    12   ar
    14    15    14    1
    15    16    14   ar
    16    17    16    1
    17    18     6   ar
    18    19     7    2
    19    20    19    1
    20    21    20    1
    21    22    20    1
    22    23    20    1
    23    24     3    1
    24    25    24    1
    25    26    25    1
    26    27    25    1
    27    28    25    1
    28    29    24    1
    29    30    29    1
    30    31    29    1
    31    32    29    1
    32    33    24    1
    33    34    33    1
    34    35    33    1
    35    36    33    1
    36    37     3    1
    37    38    37    1
    38    39    38    1
    39    40    38    1
    40    41    38    1
    41    42    37    1
    42    43    42    1
    43    44    42    1
    44    45    42    1
    45    46    37    1
    46    47    46    1
    47    48    46    1
    48    49    46    1
    49    50     7    1
    50    51    50   ar
    51    52    51   ar
    52    53    52    1
    53    54    52   ar
    54    55    54   ar
    55    56    55    1
    56    57    50   ar
    57    58    51    1
    58    59    58    1
    59    60    58    1
    60    61    58    1
    61    62    54    1
    62    63    62    1
    63    64    62    1
    64    65    62    1
    65    66    57    1
    66    67    66    1
    67    68    66    1
    68    69    66    1
    69    70     1    1
    70    71     1    1
    71     8    11    1
    72    16    18   ar
    73    18    19    1
    74    55    57   ar
    75    72    73    1
    76    74    72    1
    77    75    72    1
    78    76    72    1
@<TRIPOS>SUBSTRUCTURE
     1 RES1        1 GROUP             0 ****  ****    0  
     2 RES2       72 GROUP             0 ****  ****    0  
@<TRIPOS>CRYSIN
    8.1946   13.7430   14.1540   70.0100   74.9100   77.0100     2     1
