@<TRIPOS>MOLECULE
MUHBOI02
    76    78     2     0     0
SMALL
USER_CHARGES
****
Generated from the CSD

@<TRIPOS>ATOM
     1 Fe1      2.8415   4.5622   3.3367   Fe        1 RES1   1.0000
     2 H1       1.8245   4.3523   4.3890   H         1 RES1   0.0000
     3 P1       1.5845   3.0220   2.3195   P.3       1 RES1   0.0000
     4 O1       4.9649   5.0457   1.3226   O.2       1 RES1   0.0000
     5 O2       4.2336   2.6212   4.9990   O.2       1 RES1   0.0000
     6 N1       1.6207   5.8324   2.4560   N.ar      1 RES1   0.0000
     7 N2       3.2303   6.2109   4.3728   N.2       1 RES1   0.0000
     8 C1       0.8423   4.0720   0.9963   C.3       1 RES1   0.0000
     9 H2       1.5184   4.0314   0.1290   H         1 RES1   0.0000
    10 H3      -0.1227   3.7122   0.6451   H         1 RES1   0.0000
    11 C2       0.7739   5.4934   1.4676   C.ar      1 RES1   0.0000
    12 C3      -0.1133   6.4329   0.9337   C.ar      1 RES1   0.0000
    13 H4      -0.7913   6.1133   0.1616   H         1 RES1   0.0000
    14 C4      -0.1035   7.7327   1.4247   C.ar      1 RES1   0.0000
    15 H5      -0.8140   8.4649   1.0608   H         1 RES1   0.0000
    16 C5       0.8121   8.0842   2.4172   C.ar      1 RES1   0.0000
    17 H6       0.8460   9.0893   2.8174   H         1 RES1   0.0000
    18 C6       1.6577   7.1044   2.9190   C.ar      1 RES1   0.0000
    19 C7       2.6023   7.2876   4.0287   C.2       1 RES1   0.0000
    20 C8       2.7429   8.6109   4.6929   C.3       1 RES1   0.0000
    21 H7       1.8533   8.8763   5.2426   H         1 RES1   0.0000
    22 H8       3.5710   8.6197   5.3924   H         1 RES1   0.0000
    23 H9       2.8999   9.3900   3.9603   H         1 RES1   0.0000
    24 C9       0.1087   2.4483   3.3465   C.3       1 RES1   0.0000
    25 C10     -0.7553   3.6820   3.6603   C.3       1 RES1   0.0000
    26 H10     -1.2085   4.0673   2.7614   H         1 RES1   0.0000
    27 H11     -1.5521   3.3844   4.3304   H         1 RES1   0.0000
    28 H12     -0.1879   4.4730   4.1479   H         1 RES1   0.0000
    29 C11     -0.7876   1.4412   2.6059   C.3       1 RES1   0.0000
    30 H13     -1.6446   1.2656   3.2357   H         1 RES1   0.0000
    31 H14     -1.1190   1.8312   1.6472   H         1 RES1   0.0000
    32 H15     -0.2907   0.4820   2.4421   H         1 RES1   0.0000
    33 C12      0.5785   1.8436   4.6825   C.3       1 RES1   0.0000
    34 H16     -0.2940   1.5226   5.2452   H         1 RES1   0.0000
    35 H17      1.2030   0.9655   4.5454   H         1 RES1   0.0000
    36 H18      1.0950   2.5792   5.2790   H         1 RES1   0.0000
    37 C13      2.3593   1.5798   1.3945   C.3       1 RES1   0.0000
    38 C14      2.6163   0.4086   2.3534   C.3       1 RES1   0.0000
    39 H19      1.7069  -0.0781   2.6741   H         1 RES1   0.0000
    40 H20      3.1927  -0.3500   1.8218   H         1 RES1   0.0000
    41 H21      3.1608   0.7436   3.2279   H         1 RES1   0.0000
    42 C15      1.5004   1.1161   0.2081   C.3       1 RES1   0.0000
    43 H22      1.9780   0.2717  -0.2294   H         1 RES1   0.0000
    44 H23      0.5165   0.8328   0.4913   H         1 RES1   0.0000
    45 H24      1.4218   1.8634  -0.5447   H         1 RES1   0.0000
    46 C16      3.7120   2.0373   0.8334   C.3       1 RES1   0.0000
    47 H25      4.1125   1.2321   0.2294   H         1 RES1   0.0000
    48 H26      3.6225   2.9028   0.1850   H         1 RES1   0.0000
    49 H27      4.4198   2.2568   1.6250   H         1 RES1   0.0000
    50 C17      4.0856   6.1890   5.5354   C.ar      1 RES1   0.0000
    51 C18      5.4525   6.4614   5.4000   C.ar      1 RES1   0.0000
    52 C19      6.2658   6.2880   6.5232   C.ar      1 RES1   0.0000
    53 H28      7.3269   6.5046   6.4336   H         1 RES1   0.0000
    54 C20      5.7573   5.8719   7.7528   C.ar      1 RES1   0.0000
    55 C21      4.3825   5.6735   7.8610   C.ar      1 RES1   0.0000
    56 H29      3.9616   5.4288   8.8236   H         1 RES1   0.0000
    57 C22      3.5242   5.8379   6.7726   C.ar      1 RES1   0.0000
    58 C23      6.0379   6.9698   4.1143   C.3       1 RES1   0.0000
    59 H30      7.0609   7.1684   4.2105   H         1 RES1   0.0000
    60 H31      5.9707   6.2886   3.3413   H         1 RES1   0.0000
    61 H32      5.6413   7.8319   3.7843   H         1 RES1   0.0000
    62 C24      6.6577   5.6627   8.9400   C.3       1 RES1   0.0000
    63 H33      7.0770   4.7103   8.9018   H         1 RES1   0.0000
    64 H34      7.3923   6.3648   8.9761   H         1 RES1   0.0000
    65 H35      6.1055   5.6993   9.8622   H         1 RES1   0.0000
    66 C25      2.0405   5.6868   6.9678   C.3       1 RES1   0.0000
    67 H36      1.6813   4.7588   6.5666   H         1 RES1   0.0000
    68 H37      1.7854   5.6975   7.9909   H         1 RES1   0.0000
    69 H38      1.5097   6.4675   6.5027   H         1 RES1   0.0000
    70 C26      4.1420   4.8252   2.0753   C.1       1 RES1   0.0000
    71 C27      3.7194   3.3975   4.3375   C.1       1 RES1   0.0000
    72 B1       4.6340  10.0656   1.7647   B         2 RES2  -1.0000
    73 F1       4.2491   8.7324   1.6722   F         2 RES2   0.0000
    74 F2       4.9005  10.5785   0.5114   F         2 RES2   0.0000
    75 F3       5.7277  10.1563   2.5677   F         2 RES2   0.0000
    76 F4       3.5851  10.7788   2.2934   F         2 RES2   0.0000
@<TRIPOS>BOND
     1     1     2    1
     2     3     1    1
     3     4    70    3
     4     5    71    3
     5     6     1    1
     6     7     1    1
     7     8     3    1
     8     9     8    1
     9    10     8    1
    10    11     6   ar
    11    12    11   ar
    12    13    12    1
    13    14    12   ar
    14    15    14    1
    15    16    14   ar
    16    17    16    1
    17    18     6   ar
    18    19     7    2
    19    20    19    1
    20    21    20    1
    21    22    20    1
    22    23    20    1
    23    24     3    1
    24    25    24    1
    25    26    25    1
    26    27    25    1
    27    28    25    1
    28    29    24    1
    29    30    29    1
    30    31    29    1
    31    32    29    1
    32    33    24    1
    33    34    33    1
    34    35    33    1
    35    36    33    1
    36    37     3    1
    37    38    37    1
    38    39    38    1
    39    40    38    1
    40    41    38    1
    41    42    37    1
    42    43    42    1
    43    44    42    1
    44    45    42    1
    45    46    37    1
    46    47    46    1
    47    48    46    1
    48    49    46    1
    49    50     7    1
    50    51    50   ar
    51    52    51   ar
    52    53    52    1
    53    54    52   ar
    54    55    54   ar
    55    56    55    1
    56    57    50   ar
    57    58    51    1
    58    59    58    1
    59    60    58    1
    60    61    58    1
    61    62    54    1
    62    63    62    1
    63    64    62    1
    64    65    62    1
    65    66    57    1
    66    67    66    1
    67    68    66    1
    68    69    66    1
    69    70     1    1
    70    71     1    1
    71     8    11    1
    72    16    18   ar
    73    18    19    1
    74    55    57   ar
    75    72    73    1
    76    74    72    1
    77    75    72    1
    78    76    72    1
@<TRIPOS>SUBSTRUCTURE
     1 RES1        1 GROUP             0 ****  ****    0  
     2 RES2       72 GROUP             0 ****  ****    0  
@<TRIPOS>CRYSIN
    8.1946   13.7430   14.1540   70.0100   74.9100   77.0100     2     1
