@<TRIPOS>MOLECULE
MUHBOI01
    76    78     2     0     0
SMALL
USER_CHARGES
****
Generated from the CSD

@<TRIPOS>ATOM
     1 Fe1      2.8415   4.5621   3.3367   Fe        1 RES1   1.0000
     2 H1       1.8199   4.3477   4.3955   H         1 RES1   0.0000
     3 P1       1.5846   3.0221   2.3197   P.3       1 RES1   0.0000
     4 O1       4.9650   5.0459   1.3226   O.2       1 RES1   0.0000
     5 O2       4.2337   2.6211   4.9993   O.2       1 RES1   0.0000
     6 N1       1.6207   5.8324   2.4558   N.ar      1 RES1   0.0000
     7 N2       3.2314   6.2111   4.3743   N.2       1 RES1   0.0000
     8 C1       0.8423   4.0721   0.9963   C.3       1 RES1   0.0000
     9 H2       1.5200   4.0315   0.1251   H         1 RES1   0.0000
    10 H3      -0.1215   3.7127   0.6464   H         1 RES1   0.0000
    11 C2       0.7738   5.4933   1.4676   C.ar      1 RES1   0.0000
    12 C3      -0.1133   6.4331   0.9338   C.ar      1 RES1   0.0000
    13 H4      -0.7928   6.1164   0.1629   H         1 RES1   0.0000
    14 C4      -0.1036   7.7327   1.4246   C.ar      1 RES1   0.0000
    15 H5      -0.8152   8.4634   1.0647   H         1 RES1   0.0000
    16 C5       0.8120   8.0842   2.4172   C.ar      1 RES1   0.0000
    17 H6       0.8473   9.0880   2.8174   H         1 RES1   0.0000
    18 C6       1.6575   7.1044   2.9189   C.ar      1 RES1   0.0000
    19 C7       2.6022   7.2877   4.0287   C.2       1 RES1   0.0000
    20 C8       2.7428   8.6109   4.6929   C.3       1 RES1   0.0000
    21 H7       1.8534   8.8754   5.2439   H         1 RES1   0.0000
    22 H8       3.5779   8.6153   5.3911   H         1 RES1   0.0000
    23 H9       2.9014   9.3869   3.9590   H         1 RES1   0.0000
    24 C9       0.1092   2.4484   3.3464   C.3       1 RES1   0.0000
    25 C10     -0.7552   3.6817   3.6603   C.3       1 RES1   0.0000
    26 H10     -1.2109   4.0721   2.7640   H         1 RES1   0.0000
    27 H11     -1.5542   3.3847   4.3356   H         1 RES1   0.0000
    28 H12     -0.1895   4.4770   4.1518   H         1 RES1   0.0000
    29 C11     -0.7873   1.4414   2.6062   C.3       1 RES1   0.0000
    30 H13     -1.6475   1.2611   3.2383   H         1 RES1   0.0000
    31 H14     -1.1202   1.8308   1.6459   H         1 RES1   0.0000
    32 H15     -0.2925   0.4780   2.4421   H         1 RES1   0.0000
    33 C12      0.5783   1.8437   4.6822   C.3       1 RES1   0.0000
    34 H16     -0.2947   1.5199   5.2491   H         1 RES1   0.0000
    35 H17      1.2000   0.9628   4.5454   H         1 RES1   0.0000
    36 H18      1.0921   2.5804   5.2830   H         1 RES1   0.0000
    37 C13      2.3591   1.5800   1.3949   C.3       1 RES1   0.0000
    38 C14      2.6161   0.4087   2.3531   C.3       1 RES1   0.0000
    39 H19      1.7071  -0.0809   2.6780   H         1 RES1   0.0000
    40 H20      3.1966  -0.3522   1.8231   H         1 RES1   0.0000
    41 H21      3.1598   0.7346   3.2292   H         1 RES1   0.0000
    42 C15      1.5006   1.1162   0.2084   C.3       1 RES1   0.0000
    43 H22      1.9775   0.2673  -0.2307   H         1 RES1   0.0000
    44 H23      0.5146   0.8257   0.4900   H         1 RES1   0.0000
    45 H24      1.4215   1.8681  -0.5512   H         1 RES1   0.0000
    46 C16      3.7117   2.0371   0.8335   C.3       1 RES1   0.0000
    47 H25      4.1176   1.2304   0.2281   H         1 RES1   0.0000
    48 H26      3.6253   2.9034   0.1785   H         1 RES1   0.0000
    49 H27      4.4232   2.2550   1.6237   H         1 RES1   0.0000
    50 C17      4.0840   6.1887   5.5332   C.ar      1 RES1   0.0000
    51 C18      5.4522   6.4612   5.4000   C.ar      1 RES1   0.0000
    52 C19      6.2658   6.2879   6.5230   C.ar      1 RES1   0.0000
    53 H28      7.3300   6.5015   6.4323   H         1 RES1   0.0000
    54 C20      5.7571   5.8719   7.7526   C.ar      1 RES1   0.0000
    55 C21      4.3824   5.6735   7.8611   C.ar      1 RES1   0.0000
    56 H29      3.9623   5.4306   8.8249   H         1 RES1   0.0000
    57 C22      3.5243   5.8379   6.7725   C.ar      1 RES1   0.0000
    58 C23      6.0377   6.9698   4.1146   C.3       1 RES1   0.0000
    59 H30      7.0637   7.1525   4.2026   H         1 RES1   0.0000
    60 H31      5.9785   6.2891   3.3387   H         1 RES1   0.0000
    61 H32      5.6414   7.8351   3.7817   H         1 RES1   0.0000
    62 C24      6.6576   5.6628   8.9398   C.3       1 RES1   0.0000
    63 H33      7.0859   4.7121   8.9031   H         1 RES1   0.0000
    64 H34      7.4006   6.3639   8.9774   H         1 RES1   0.0000
    65 H35      6.1061   5.7010   9.8635   H         1 RES1   0.0000
    66 C25      2.0407   5.6868   6.9679   C.3       1 RES1   0.0000
    67 H36      1.6806   4.7571   6.5653   H         1 RES1   0.0000
    68 H37      1.7839   5.6957   7.9896   H         1 RES1   0.0000
    69 H38      1.5066   6.4648   6.5027   H         1 RES1   0.0000
    70 C26      4.1419   4.8252   2.0754   C.1       1 RES1   0.0000
    71 C27      3.7194   3.3975   4.3377   C.1       1 RES1   0.0000
    72 B1       4.6340  10.0655   1.7646   B         2 RES2  -1.0000
    73 F1       4.2492   8.7326   1.6723   F         2 RES2   0.0000
    74 F2       4.9005  10.5784   0.5115   F         2 RES2   0.0000
    75 F3       5.7280  10.1562   2.5676   F         2 RES2   0.0000
    76 F4       3.5851  10.7789   2.2933   F         2 RES2   0.0000
@<TRIPOS>BOND
     1     1     2    1
     2     3     1    1
     3     4    70    3
     4     5    71    3
     5     6     1    1
     6     7     1    1
     7     8     3    1
     8     9     8    1
     9    10     8    1
    10    11     6   ar
    11    12    11   ar
    12    13    12    1
    13    14    12   ar
    14    15    14    1
    15    16    14   ar
    16    17    16    1
    17    18     6   ar
    18    19     7    2
    19    20    19    1
    20    21    20    1
    21    22    20    1
    22    23    20    1
    23    24     3    1
    24    25    24    1
    25    26    25    1
    26    27    25    1
    27    28    25    1
    28    29    24    1
    29    30    29    1
    30    31    29    1
    31    32    29    1
    32    33    24    1
    33    34    33    1
    34    35    33    1
    35    36    33    1
    36    37     3    1
    37    38    37    1
    38    39    38    1
    39    40    38    1
    40    41    38    1
    41    42    37    1
    42    43    42    1
    43    44    42    1
    44    45    42    1
    45    46    37    1
    46    47    46    1
    47    48    46    1
    48    49    46    1
    49    50     7    1
    50    51    50   ar
    51    52    51   ar
    52    53    52    1
    53    54    52   ar
    54    55    54   ar
    55    56    55    1
    56    57    50   ar
    57    58    51    1
    58    59    58    1
    59    60    58    1
    60    61    58    1
    61    62    54    1
    62    63    62    1
    63    64    62    1
    64    65    62    1
    65    66    57    1
    66    67    66    1
    67    68    66    1
    68    69    66    1
    69    70     1    1
    70    71     1    1
    71     8    11    1
    72    16    18   ar
    73    18    19    1
    74    55    57   ar
    75    72    73    1
    76    74    72    1
    77    75    72    1
    78    76    72    1
@<TRIPOS>SUBSTRUCTURE
     1 RES1        1 GROUP             0 ****  ****    0  
     2 RES2       72 GROUP             0 ****  ****    0  
@<TRIPOS>CRYSIN
    8.1946   13.7430   14.1540   70.0100   74.9100   77.0100     2     1
