@<TRIPOS>MOLECULE
MUHMUA
    89    91     5     0     0
SMALL
USER_CHARGES
****
Generated from the CSD

@<TRIPOS>ATOM
     1 Fe1      2.4042  -2.0577   8.6244   Fe        1 RES1   2.0000
     2 O1       0.1948  -0.1532  10.0769   O.3       1 RES1   0.0000
     3 N1       0.6988  -1.0673   8.0928   N.ar      1 RES1   0.0000
     4 N2       1.9646  -2.9951   7.0249   N.ar      1 RES1   0.0000
     5 N3       4.1654  -2.9343   8.7269   N.ar      1 RES1   0.0000
     6 N4       1.6513  -3.5918   9.5476   N.ar      1 RES1   0.0000
     7 N5       3.2874  -0.5770   7.7115   N.1       1 RES1   0.0000
     8 N6       2.7642  -1.1254  10.2890   N.1       1 RES1   0.0000
     9 C1       0.0180  -0.1099   8.7497   C.ar      1 RES1   0.0000
    10 C2      -0.8034   0.8171   8.0967   C.ar      1 RES1   0.0000
    11 H1      -1.2628   1.4882   8.5874   H         1 RES1   0.0000
    12 C3      -0.9289   0.7333   6.7248   C.ar      1 RES1   0.0000
    13 H2      -1.4632   1.3651   6.2577   H         1 RES1   0.0000
    14 C4      -0.2744  -0.2746   6.0261   C.ar      1 RES1   0.0000
    15 H3      -0.3623  -0.3511   5.0830   H         1 RES1   0.0000
    16 C5       0.5118  -1.1656   6.7416   C.ar      1 RES1   0.0000
    17 C6       1.1587  -2.3506   6.1531   C.ar      1 RES1   0.0000
    18 C7       0.8814  -2.8939   4.9036   C.ar      1 RES1   0.0000
    19 H4       0.3562  -2.4175   4.2727   H         1 RES1   0.0000
    20 C8       1.3896  -4.1512   4.5993   C.ar      1 RES1   0.0000
    21 H5       1.2572  -4.5211   3.7339   H         1 RES1   0.0000
    22 C9       2.0905  -4.8661   5.5632   C.ar      1 RES1   0.0000
    23 H6       2.3842  -5.7524   5.3871   H         1 RES1   0.0000
    24 C10      2.3552  -4.2661   6.7868   C.ar      1 RES1   0.0000
    25 C11      4.3134  -4.2253   8.3467   C.ar      1 RES1   0.0000
    26 C12      5.5632  -4.8217   8.2897   C.ar      1 RES1   0.0000
    27 H7       5.6466  -5.7287   8.0158   H         1 RES1   0.0000
    28 C13      6.6961  -4.0956   8.6338   C.ar      1 RES1   0.0000
    29 H8       7.5586  -4.4900   8.5861   H         1 RES1   0.0000
    30 C14      6.5383  -2.7829   9.0472   C.ar      1 RES1   0.0000
    31 H9       7.2923  -2.2633   9.3006   H         1 RES1   0.0000
    32 C15      5.2698  -2.2449   9.0843   C.ar      1 RES1   0.0000
    33 H10      5.1670  -1.3459   9.3754   H         1 RES1   0.0000
    34 C16      2.0295  -4.8419   9.1784   C.ar      1 RES1   0.0000
    35 C17      1.5369  -5.9513   9.8555   C.ar      1 RES1   0.0000
    36 H11      1.8074  -6.8245   9.5969   H         1 RES1   0.0000
    37 C18      0.6497  -5.7807  10.9115   C.ar      1 RES1   0.0000
    38 H12      0.3172  -6.5332  11.3865   H         1 RES1   0.0000
    39 C19      0.2530  -4.5021  11.2654   C.ar      1 RES1   0.0000
    40 H13     -0.3630  -4.3620  11.9752   H         1 RES1   0.0000
    41 C20      0.7736  -3.4358  10.5607   C.ar      1 RES1   0.0000
    42 H14      0.5030  -2.5558  10.7979   H         1 RES1   0.0000
    43 C21      3.0141  -4.9646   7.9891   C.3       1 RES1   0.0000
    44 C22      3.3048  -6.4359   7.6572   C.3       1 RES1   0.0000
    45 H15      3.7392  -6.8629   8.4235   H         1 RES1   0.0000
    46 H16      3.8959  -6.4837   6.8778   H         1 RES1   0.0000
    47 H17      2.4636  -6.8974   7.4586   H         1 RES1   0.0000
    48 C23     -0.2084   1.0047  10.8473   C.3       1 RES1   0.0000
    49 H18      0.2035   1.8091  10.4688   H         1 RES1   0.0000
    50 H19      0.0811   0.8960  11.7772   H         1 RES1   0.0000
    51 H20     -1.1847   1.0929  10.8175   H         1 RES1   0.0000
    52 C24      3.8866   0.3239   7.3466   C.1       1 RES1   0.0000
    53 C25      4.7143   1.4435   6.9302   C.3       1 RES1   0.0000
    54 H21      4.6546   1.5489   5.9574   H         1 RES1   0.0000
    55 H22      5.6449   1.2745   7.1833   H         1 RES1   0.0000
    56 H23      4.4002   2.2620   7.3668   H         1 RES1   0.0000
    57 C26      3.0060  -0.5169  11.2219   C.1       1 RES1   0.0000
    58 C27      3.3021   0.2782  12.4059   C.3       1 RES1   0.0000
    59 H24      3.4975   1.2003  12.1404   H         1 RES1   0.0000
    60 H25      4.0796  -0.1003  12.8667   H         1 RES1   0.0000
    61 H26      2.5297   0.2671  13.0083   H         1 RES1   0.0000
    62 S1       2.7792   3.6738   9.6647   S.o2      2 RES2   0.0000
    63 F1       2.5160   4.0035  12.2381   F         2 RES2   0.0000
    64 F2       2.9497   5.8070  11.1766   F         2 RES2   0.0000
    65 F3       4.4834   4.3718  11.5336   F         2 RES2   0.0000
    66 O2       1.3766   3.9241   9.5264   O.2       2 RES2   0.0000
    67 O3       3.1224   2.3081   9.9063   O.2       2 RES2   0.0000
    68 O4       3.5975   4.3411   8.6915   O.3       2 RES2  -1.0000
    69 C28      3.2166   4.5154  11.2174   C.3       2 RES2   0.0000
    70 S2       8.3593   1.0714   9.6945   S.o2      3 RES3   0.0000
    71 F4       7.0717   1.9587  11.8086   F         3 RES3   0.0000
    72 F5       5.9076   0.6771  10.5282   F         3 RES3   0.0000
    73 F6       6.3389   2.7070   9.9314   F         3 RES3   0.0000
    74 O5       9.2464   2.1906   9.8872   O.3       3 RES3  -1.0000
    75 O6       7.9190   0.8839   8.3466   O.2       3 RES3   0.0000
    76 O7       8.7456  -0.1311  10.3748   O.2       3 RES3   0.0000
    77 C29      6.8441   1.6323  10.5400   C.3       3 RES3   0.0000
    78 N7       0.7033   1.7773  14.2709   N.1       4 RES4   0.0000
    79 C30      0.6877   2.9158  14.4662   C.1       4 RES4   0.0000
    80 C31      0.6564   4.3559  14.7415   C.3       4 RES4   0.0000
    81 H27     -0.0295   4.5437  15.4167   H         4 RES4   0.0000
    82 H28      0.4450   4.8421  13.9169   H         4 RES4   0.0000
    83 H29      1.5313   4.6427  15.0758   H         4 RES4   0.0000
    84 N8       0.8086  10.5528  13.6179   N.1       5 RES5   0.0000
    85 C32      1.3919   9.7005  13.1447   C.1       5 RES5   0.0000
    86 C33      2.1360   8.5959  12.5625   C.3       5 RES5   0.0000
    87 H30      2.7473   8.9400  11.8782   H         5 RES5   0.0000
    88 H31      1.5111   7.9614  12.1522   H         5 RES5   0.0000
    89 H32      2.6493   8.1428  13.2626   H         5 RES5   0.0000
@<TRIPOS>BOND
     1     1     3    1
     2     2     9    1
     3     3     9   ar
     4     4     1    1
     5     5     1    1
     6     6     1    1
     7     7     1    1
     8     8     1    1
     9     9    10   ar
    10    10    11    1
    11    12    10   ar
    12    13    12    1
    13    14    12   ar
    14    15    14    1
    15    16     3   ar
    16    17     4   ar
    17    18    17   ar
    18    19    18    1
    19    20    18   ar
    20    21    20    1
    21    22    20   ar
    22    23    22    1
    23    24     4   ar
    24    25     5   ar
    25    26    25   ar
    26    27    26    1
    27    28    26   ar
    28    29    28    1
    29    30    28   ar
    30    31    30    1
    31    32     5   ar
    32    33    32    1
    33    34     6   ar
    34    35    34   ar
    35    36    35    1
    36    37    35   ar
    37    38    37    1
    38    39    37   ar
    39    40    39    1
    40    41     6   ar
    41    42    41    1
    42    43    24    1
    43    44    43    1
    44    45    44    1
    45    46    44    1
    46    47    44    1
    47    48     2    1
    48    49    48    1
    49    50    48    1
    50    51    48    1
    51    52     7    3
    52    53    52    1
    53    54    53    1
    54    55    53    1
    55    56    53    1
    56    57     8    3
    57    58    57    1
    58    59    58    1
    59    60    58    1
    60    61    58    1
    61    14    16   ar
    62    16    17    1
    63    22    24   ar
    64    25    43    1
    65    30    32   ar
    66    34    43    1
    67    39    41   ar
    68    62    66    2
    69    63    69    1
    70    64    69    1
    71    65    69    1
    72    67    62    2
    73    68    62    1
    74    69    62    1
    75    70    74    1
    76    71    77    1
    77    72    77    1
    78    73    77    1
    79    75    70    2
    80    76    70    2
    81    77    70    1
    82    78    79    3
    83    79    80    1
    84    80    81    1
    85    82    80    1
    86    83    80    1
    87    84    85    3
    88    85    86    1
    89    86    87    1
    90    88    86    1
    91    89    86    1
@<TRIPOS>SUBSTRUCTURE
     1 RES1        1 GROUP             0 ****  ****    0  
     2 RES2       62 GROUP             0 ****  ****    0  
     3 RES3       70 GROUP             0 ****  ****    0  
     4 RES4       78 GROUP             0 ****  ****    0  
     5 RES5       84 GROUP             0 ****  ****    0  
@<TRIPOS>CRYSIN
   12.5851   12.6151   14.8628  113.0070   93.5930  116.2840     2     1
