@<TRIPOS>MOLECULE
MUJXAS
    93   102     3     0     0
SMALL
USER_CHARGES
****
Generated from the CSD

@<TRIPOS>ATOM
     1 Fe1     13.3403  10.3016   9.9100   Fe        1 RES1   2.0000
     2 N1      13.6410   8.7351   8.5015   N.ar      1 RES1   0.0000
     3 C1      12.9855   8.6967   7.3478   C.ar      1 RES1   0.0000
     4 C2      13.2654   7.8441   6.3060   C.ar      1 RES1   0.0000
     5 H1      12.7653   7.8729   5.4987   H         1 RES1   0.0000
     6 C3      14.3329   6.9150   6.4790   C.ar      1 RES1   0.0000
     7 C4      15.0453   6.9595   7.7016   C.ar      1 RES1   0.0000
     8 H2      15.7835   6.3818   7.8576   H         1 RES1   0.0000
     9 C5      14.6408   7.8535   8.6543   C.ar      1 RES1   0.0000
    10 N2      11.9354   9.6456   7.3000   N.pl3     1 RES1   0.0000
    11 N3      11.8058  10.5254   8.3499   N.2       1 RES1   0.0000
    12 C6      10.7308  11.2540   8.0594   C.2       1 RES1   0.0000
    13 H3      10.3945  11.9565   8.6032   H         1 RES1   0.0000
    14 C7      10.1580  10.8464   6.8328   C.2       1 RES1   0.0000
    15 H4       9.3889  11.2096   6.4095   H         1 RES1   0.0000
    16 C8      10.9454   9.8149   6.3846   C.2       1 RES1   0.0000
    17 H5      10.8214   9.3149   5.5865   H         1 RES1   0.0000
    18 N4      15.2037   7.9234   9.9397   N.pl3     1 RES1   0.0000
    19 N5      14.6904   8.8492  10.8149   N.2       1 RES1   0.0000
    20 C9      15.2986   8.6139  11.9672   C.2       1 RES1   0.0000
    21 H6      15.1442   9.1065  12.7640   H         1 RES1   0.0000
    22 C10     16.1973   7.5426  11.8624   C.2       1 RES1   0.0000
    23 H7      16.7519   7.1865  12.5464   H         1 RES1   0.0000
    24 C11     16.1057   7.1204  10.5624   C.2       1 RES1   0.0000
    25 H8      16.5843   6.4006  10.1679   H         1 RES1   0.0000
    26 N6      14.6089   5.9814   5.5261   N.pl3     1 RES1   0.0000
    27 C12     13.8964   5.9384   4.2577   C.3       1 RES1   0.0000
    28 H9      12.9950   6.3319   4.3717   H         1 RES1   0.0000
    29 H10     13.7856   4.9967   3.9733   H         1 RES1   0.0000
    30 C13     14.6526   6.7073   3.1792   C.3       1 RES1   0.0000
    31 H11     14.8156   7.6355   3.4845   H         1 RES1   0.0000
    32 H12     14.1092   6.7451   2.3536   H         1 RES1   0.0000
    33 S1      16.2352   5.8957   2.8301   S.3       1 RES1   0.0000
    34 C14     16.8671   5.8127   4.5237   C.3       1 RES1   0.0000
    35 H13     17.6931   5.2684   4.5342   H         1 RES1   0.0000
    36 H14     17.1009   6.7250   4.8265   H         1 RES1   0.0000
    37 C15     15.8594   5.2062   5.4987   C.3       1 RES1   0.0000
    38 H15     15.6623   4.2745   5.2301   H         1 RES1   0.0000
    39 H16     16.2520   5.1864   6.4069   H         1 RES1   0.0000
    40 N7      13.6849  11.9809  11.1841   N.ar      1 RES1   0.0000
    41 C16     14.6127  12.9068  10.8966   C.ar      1 RES1   0.0000
    42 C17     14.9656  13.9388  11.7287   C.ar      1 RES1   0.0000
    43 H17     15.6322  14.5634  11.4679   H         1 RES1   0.0000
    44 C18     14.3144  14.0578  12.9881   C.ar      1 RES1   0.0000
    45 C19     13.3346  13.0758  13.3026   C.ar      1 RES1   0.0000
    46 H18     12.8689  13.0959  14.1308   H         1 RES1   0.0000
    47 C20     13.0832  12.0986  12.3708   C.ar      1 RES1   0.0000
    48 N8      15.2113  12.6834   9.6382   N.pl3     1 RES1   0.0000
    49 N9      14.8257  11.5751   8.9420   N.2       1 RES1   0.0000
    50 C21     15.5191  11.6180   7.8104   C.2       1 RES1   0.0000
    51 H19     15.4621  10.9657   7.1211   H         1 RES1   0.0000
    52 C22     16.3453  12.7494   7.7619   C.2       1 RES1   0.0000
    53 H20     16.9335  13.0054   7.0621   H         1 RES1   0.0000
    54 C23     16.1220  13.4054   8.9387   C.2       1 RES1   0.0000
    55 H21     16.5300  14.2167   9.2165   H         1 RES1   0.0000
    56 N10     12.1268  11.0716  12.5855   N.pl3     1 RES1   0.0000
    57 N11     11.9062  10.1693  11.5855   N.2       1 RES1   0.0000
    58 C24     10.9965   9.3423  12.0786   C.2       1 RES1   0.0000
    59 H22     10.6457   8.5953  11.6055   H         1 RES1   0.0000
    60 C25     10.6147   9.6949  13.3681   C.2       1 RES1   0.0000
    61 H23      9.9756   9.2619  13.9198   H         1 RES1   0.0000
    62 C26     11.3610  10.8032  13.6721   C.2       1 RES1   0.0000
    63 H24     11.3437  11.2905  14.4872   H         1 RES1   0.0000
    64 N12     14.6105  15.0778  13.8333   N.pl3     1 RES1   0.0000
    65 C27     15.5704  16.1289  13.4887   C.3       1 RES1   0.0000
    66 H25     15.2338  17.0023  13.8110   H         1 RES1   0.0000
    67 H26     15.6631  16.1806  12.5045   H         1 RES1   0.0000
    68 C28     16.9256  15.8482  14.1098   C.3       1 RES1   0.0000
    69 H27     17.5768  16.5211  13.7914   H         1 RES1   0.0000
    70 H28     17.2402  14.9560  13.8163   H         1 RES1   0.0000
    71 S2      16.8507  15.8929  15.9100   S.3       1 RES1   0.0000
    72 C29     15.4604  14.7434  16.1201   C.3       1 RES1   0.0000
    73 H29     15.7675  13.8276  15.9012   H         1 RES1   0.0000
    74 H30     15.1831  14.7484  17.0715   H         1 RES1   0.0000
    75 C30     14.2619  15.0757  15.2604   C.3       1 RES1   0.0000
    76 H31     13.5478  14.4109  15.4216   H         1 RES1   0.0000
    77 H32     13.9135  15.9673  15.5133   H         1 RES1   0.0000
    78 C31      6.6002   3.1433   8.4984   C.3       2 RES2   0.0000
    79 F1       7.1692   3.6217   9.6171   F         2 RES2   0.0000
    80 F2       6.9637   3.9482   7.4986   F         2 RES2   0.0000
    81 F3       7.1286   1.9348   8.2697   F         2 RES2   0.0000
    82 S3       4.7871   3.0528   8.6723   S.o2      2 RES2   0.0000
    83 O1       4.4371   4.4369   8.8799   O.2       2 RES2   0.0000
    84 O2       4.6318   2.1956   9.8277   O.3       2 RES2  -1.0000
    85 O3       4.3538   2.4732   7.4287   O.2       2 RES2   0.0000
    86 C32     13.6085   3.9125  10.8533   C.3       3 RES3   0.0000
    87 F4      14.7120   4.5359  11.2457   F         3 RES3   0.0000
    88 F5      13.9268   3.1711   9.7761   F         3 RES3   0.0000
    89 F6      13.2559   3.0662  11.8227   F         3 RES3   0.0000
    90 S4      12.2590   5.0563  10.4662   S.o2      3 RES3   0.0000
    91 O4      12.7135   5.7151   9.2662   O.2       3 RES3   0.0000
    92 O5      11.1437   4.1602  10.2569   O.3       3 RES3  -1.0000
    93 O6      12.1474   5.8976  11.6216   O.2       3 RES3   0.0000
@<TRIPOS>BOND
     1     1     2    1
     2     2     3   ar
     3     3     4   ar
     4     4     5    1
     5     6     4   ar
     6     7     6   ar
     7     8     7    1
     8     9     2   ar
     9    10     3    1
    10    11     1    1
    11    12    11    2
    12    13    12    1
    13    14    12    1
    14    15    14    1
    15    16    10    1
    16    17    16    1
    17    18     9    1
    18    19     1    1
    19    20    19    2
    20    21    20    1
    21    22    20    1
    22    23    22    1
    23    24    18    1
    24    25    24    1
    25    26     6    1
    26    27    26    1
    27    28    27    1
    28    29    27    1
    29    30    27    1
    30    31    30    1
    31    32    30    1
    32    33    30    1
    33    34    33    1
    34    35    34    1
    35    36    34    1
    36    37    26    1
    37    38    37    1
    38    39    37    1
    39    40     1    1
    40    41    40   ar
    41    42    41   ar
    42    43    42    1
    43    44    42   ar
    44    45    44   ar
    45    46    45    1
    46    47    40   ar
    47    48    41    1
    48    49     1    1
    49    50    49    2
    50    51    50    1
    51    52    50    1
    52    53    52    1
    53    54    48    1
    54    55    54    1
    55    56    47    1
    56    57     1    1
    57    58    57    2
    58    59    58    1
    59    60    58    1
    60    61    60    1
    61    62    56    1
    62    63    62    1
    63    64    44    1
    64    65    64    1
    65    66    65    1
    66    67    65    1
    67    68    65    1
    68    69    68    1
    69    70    68    1
    70    71    68    1
    71    72    71    1
    72    73    72    1
    73    74    72    1
    74    75    64    1
    75    76    75    1
    76    77    75    1
    77     7     9   ar
    78    10    11    1
    79    14    16    2
    80    18    19    1
    81    22    24    2
    82    34    37    1
    83    45    47   ar
    84    48    49    1
    85    52    54    2
    86    56    57    1
    87    60    62    2
    88    72    75    1
    89    78    79    1
    90    80    78    1
    91    81    78    1
    92    82    78    1
    93    83    82    2
    94    84    82    1
    95    85    82    2
    96    86    87    1
    97    88    86    1
    98    89    86    1
    99    90    86    1
   100    91    90    2
   101    92    90    1
   102    93    90    2
@<TRIPOS>SUBSTRUCTURE
     1 RES1        1 GROUP             0 ****  ****    0  
     2 RES2       78 GROUP             0 ****  ****    0  
     3 RES3       86 GROUP             0 ****  ****    0  
@<TRIPOS>CRYSIN
   12.4186   13.3433   14.2652   75.4720   67.4190   64.1900     2     1
