@<TRIPOS>MOLECULE
MUPWEB
   141   143    11     0     0
SMALL
USER_CHARGES
****
Generated from the CSD

@<TRIPOS>ATOM
     1 Fe1     11.0076   0.3732  33.9839   Fe        1 RES1   0.0000
     2 O1       9.2587   1.4376  30.4698   O.2       1 RES1   0.0000
     3 N1      10.3608   0.2355  32.1546   N.am      1 RES1   0.0000
     4 N2       8.9961   4.6123  33.2211   N.ar      1 RES1   0.0000
     5 N3      11.6411  -1.4660  33.6212   N.ar      1 RES1   0.0000
     6 N4      13.6996   1.5796  33.0287   N.1       1 RES1   0.0000
     7 C1       9.7637   1.2946  31.6200   C.2       1 RES1   0.0000
     8 C2       9.7206   2.4079  32.5975   C.ar      1 RES1   0.0000
     9 N5       8.2636  -0.6908  34.9498   N.1       1 RES1   0.0000
    10 N6      10.2356   2.1257  33.8351   N.ar      1 RES1   0.0000
    11 C3      11.2405  -3.5742  30.5962   C.ar      1 RES1   0.0000
    12 H1      11.4828  -4.4437  30.2466   H         1 RES1   0.0000
    13 C4      11.2978  -1.9168  32.3529   C.ar      1 RES1   0.0000
    14 C5      10.1590  -1.4266  30.2758   C.ar      1 RES1   0.0000
    15 H2       9.6653  -0.8613  29.7295   H         1 RES1   0.0000
    16 C6      10.5719  -1.0060  31.5375   C.ar      1 RES1   0.0000
    17 C7      10.4976  -2.7111  29.8391   C.ar      1 RES1   0.0000
    18 H3      10.2071  -2.9878  29.0063   H         1 RES1   0.0000
    19 C8      11.6541  -3.1958  31.8879   C.ar      1 RES1   0.0000
    20 C9      12.4032  -4.0204  32.7771   C.ar      1 RES1   0.0000
    21 H4      12.6479  -4.8102  32.5290   H         1 RES1   0.0000
    22 C10      9.1418   3.6393  32.3245   C.ar      1 RES1   0.0000
    23 H5       8.7991   3.8143  31.3509   H         1 RES1   0.0000
    24 C11      9.3053  -0.3124  34.6139   C.1       1 RES1  -1.0000
    25 C12     12.7318  -3.5715  33.9957   C.ar      1 RES1   0.0000
    26 H6      13.2688  -4.1688  34.6326   H         1 RES1   0.0000
    27 N7      12.0133   0.6853  36.8609   N.1       1 RES1   0.0000
    28 C13     12.7134   1.0949  33.3778   C.1       1 RES1  -1.0000
    29 C14     10.1148   3.1326  34.7360   C.ar      1 RES1   0.0000
    30 H7      10.3935   3.0401  35.4258   H         1 RES1   0.0000
    31 C15      9.4869   4.3319  34.4168   C.ar      1 RES1   0.0000
    32 H8       9.3944   5.0759  35.1886   H         1 RES1   0.0000
    33 C16     12.3373  -2.2842  34.4039   C.ar      1 RES1   0.0000
    34 H9      12.6038  -1.9552  35.3713   H         1 RES1   0.0000
    35 C17     11.6303   0.5525  35.7637   C.1       1 RES1   0.0000
    36 P1       5.9828  -0.9623  22.2190   P.3       2 RES2   1.0000
    37 C18      5.6122   1.7793  22.4180   C.ar      2 RES2   0.0000
    38 H10      4.7180   1.5695  22.7462   H         2 RES2   0.0000
    39 C19      5.0434  -2.4674  24.3439   C.ar      2 RES2   0.0000
    40 H11      4.7981  -3.1060  23.6911   H         2 RES2   0.0000
    41 C20      8.4081  -2.1641  22.6727   C.ar      2 RES2   0.0000
    42 H12      8.2931  -1.9497  23.4889   H         2 RES2   0.0000
    43 C21      7.5628  -2.3492  20.4140   C.ar      2 RES2   0.0000
    44 H13      6.8129  -2.2145  19.7328   H         2 RES2   0.0000
    45 C22      5.9617  -0.3088  24.9174   C.ar      2 RES2   0.0000
    46 H14      6.3383   0.4948  24.6670   H         2 RES2   0.0000
    47 C23      7.7628   1.0610  21.5607   C.ar      2 RES2   0.0000
    48 H15      8.3626   0.3573  21.2959   H         2 RES2   0.0000
    49 C24      6.0280   3.0914  22.3411   C.ar      2 RES2   0.0000
    50 H16      5.4091   3.8298  22.6140   H         2 RES2   0.0000
    51 C25      5.1943  -1.7995  26.6442   C.ar      2 RES2   0.0000
    52 H17      5.0600  -2.0047  27.6337   H         2 RES2   0.0000
    53 C26      7.3832  -1.9616  21.7345   C.ar      2 RES2   0.0000
    54 C27      9.7951  -3.0987  20.9374   C.ar      2 RES2   0.0000
    55 H18     10.6489  -3.5000  20.6504   H         2 RES2   0.0000
    56 C28      6.4728   0.7495  22.0207   C.ar      2 RES2   0.0000
    57 C29      5.7354  -0.5873  26.2550   C.ar      2 RES2   0.0000
    58 H19      5.9430   0.0275  26.8833   H         2 RES2   0.0000
    59 C30      8.1661   2.3840  21.4926   C.ar      2 RES2   0.0000
    60 H20      9.0667   2.6039  21.1676   H         2 RES2   0.0000
    61 C31      4.1263  -2.6864  21.1240   C.ar      2 RES2   0.0000
    62 H21      4.6985  -3.4084  21.4864   H         2 RES2   0.0000
    63 C32      4.8365  -2.7304  25.6896   C.ar      2 RES2   0.0000
    64 H22      4.4325  -3.5825  25.9657   H         2 RES2   0.0000
    65 C33      8.7713  -2.9219  20.0237   C.ar      2 RES2   0.0000
    66 H23      8.8934  -3.1921  19.1301   H         2 RES2   0.0000
    67 C34      9.6145  -2.7194  22.2508   C.ar      2 RES2   0.0000
    68 H24     10.3428  -2.8421  22.8940   H         2 RES2   0.0000
    69 C35      3.7588  -0.3564  20.6563   C.ar      2 RES2   0.0000
    70 H25      4.0428   0.5406  20.6882   H         2 RES2   0.0000
    71 C36      4.5438  -1.3560  21.2092   C.ar      2 RES2   0.0000
    72 C37      5.6194  -1.2497  23.9578   C.ar      2 RES2   0.0000
    73 C38      7.3077   3.3937  21.8846   C.ar      2 RES2   0.0000
    74 H26      7.5919   4.2971  21.8418   H         2 RES2   0.0000
    75 C39      2.1261  -2.0075  20.0163   C.ar      2 RES2   0.0000
    76 H27      1.2843  -2.2255  19.6278   H         2 RES2   0.0000
    77 C40      2.5497  -0.6835  20.0540   C.ar      2 RES2   0.0000
    78 H28      1.9359   0.0825  19.6162   H         2 RES2   0.0000
    79 C41      2.9079  -2.9842  20.5315   C.ar      2 RES2   0.0000
    80 H29      2.6479  -3.7932  20.4918   H         2 RES2   0.0000
    81 P2      10.9243   1.7507  26.1278   P.3       3 RES3   1.0000
    82 C42     12.1848   2.1559  27.3246   C.ar      3 RES3   0.0000
    83 C43     10.5368   0.0018  26.2507   C.ar      3 RES3   0.0000
    84 C44      7.1001   4.0910  27.0532   C.ar      3 RES3   0.0000
    85 H30      6.3409   4.5353  27.2371   H         3 RES3   0.0000
    86 C45     12.0359   1.6666  28.6194   C.ar      3 RES3   0.0000
    87 H31     11.3506   1.0720  28.8158   H         3 RES3   0.0000
    88 C46     13.2386   3.0291  27.0209   C.ar      3 RES3   0.0000
    89 H32     13.3561   3.3690  26.1406   H         3 RES3   0.0000
    90 C47      9.9641  -2.7065  26.2931   C.ar      3 RES3   0.0000
    91 H33      9.7627  -3.6283  26.2880   H         3 RES3   0.0000
    92 C48     11.4699   2.1504  24.4633   C.ar      3 RES3   0.0000
    93 C49      9.2005   3.1720  27.7784   C.ar      3 RES3   0.0000
    94 H34      9.8462   3.0080  28.4853   H         3 RES3   0.0000
    95 C50     11.7463   1.1554  23.5242   C.ar      3 RES3   0.0000
    96 H35     11.5750   0.2840  23.7183   H         3 RES3   0.0000
    97 C51     11.2824  -2.2787  26.0882   C.ar      3 RES3   0.0000
    98 H36     11.9973  -2.9228  25.9501   H         3 RES3   0.0000
    99 C52      9.2363  -0.4251  26.4797   C.ar      3 RES3   0.0000
   100 H37      8.5666   0.1924  26.6150   H         3 RES3   0.0000
   101 C53     11.5581  -0.9281  26.0827   C.ar      3 RES3   0.0000
   102 H38     12.4127  -0.6432  25.9680   H         3 RES3   0.0000
   103 C54      8.9588  -1.7775  26.5038   C.ar      3 RES3   0.0000
   104 H39      8.0953  -2.0652  26.6617   H         3 RES3   0.0000
   105 C55      9.4457   2.7065  26.5061   C.ar      3 RES3   0.0000
   106 C56      7.3282   3.6246  25.7856   C.ar      3 RES3   0.0000
   107 H40      6.6859   3.7712  25.1141   H         3 RES3   0.0000
   108 C57     12.2530   3.8225  22.9103   C.ar      3 RES3   0.0000
   109 H41     12.4149   4.7277  22.6918   H         3 RES3   0.0000
   110 C58      8.0326   3.8784  28.0529   C.ar      3 RES3   0.0000
   111 H42      7.8666   4.2312  28.9713   H         3 RES3   0.0000
   112 C59     12.5547   2.8412  22.0226   C.ar      3 RES3   0.0000
   113 H43     12.9202   3.0455  21.2765   H         3 RES3   0.0000
   114 C60     12.9072   2.0743  29.6128   C.ar      3 RES3   0.0000
   115 H44     12.8077   1.7958  30.4060   H         3 RES3   0.0000
   116 C61      8.5049   2.9301  25.4886   C.ar      3 RES3   0.0000
   117 H45      8.6650   2.6158  24.6165   H         3 RES3   0.0000
   118 C62     14.1117   3.3855  28.0490   C.ar      3 RES3   0.0000
   119 H46     14.7733   3.9123  27.8748   H         3 RES3   0.0000
   120 C63     11.7101   3.4927  24.1366   C.ar      3 RES3   0.0000
   121 H47     11.4742   4.2605  24.8342   H         3 RES3   0.0000
   122 C64     12.2766   1.5026  22.3080   C.ar      3 RES3   0.0000
   123 H48     12.4391   0.8887  21.7197   H         3 RES3   0.0000
   124 C65     13.9426   2.9356  29.3100   C.ar      3 RES3   0.0000
   125 H49     14.4851   3.1848  29.9239   H         3 RES3   0.0000
   126 O2       6.9185   0.5479  29.1809   O.3       4 RES4   0.0000
   127 H50      6.8673  -0.2932  29.3173   H         4 RES4   0.0000
   128 H51      7.7240   0.8521  29.4340   H         4 RES4   0.0000
   129 O3       6.7208  -2.2567  29.7843   O.3       5 RES5   0.0000
   130 H52      6.9124  -2.2448  30.6432   H         5 RES5   0.0000
   131 H53      6.0046  -2.7487  29.6284   H         5 RES5   0.0000
   132 O4       7.3245  -2.2952  32.5683   O.3       6 RES6   0.0000
   133 H54      7.8873  -2.9686  32.7429   H         6 RES6   0.0000
   134 H55      7.6075  -1.6034  33.0656   H         6 RES6   0.0000
   135 O5      12.8075  -1.8829  23.0126   O.3       7 RES7   0.0000
   136 H56     13.4696  -1.7317  22.4507   H         7 RES7   0.0000
   137 H57     13.3533  -1.9791  23.7183   H         7 RES7   0.0000
   138 O6       9.5661  -2.2393  37.2431   O.3       8 RES8   0.0000
   139 O7      11.1392  -0.6221  39.0776   O.3       9 RES9   0.0000
   140 O8      12.1257  -3.7153  37.5993   O.3      10 RES10   0.0000
   141 O9      14.5954  -1.5420  20.7990   O.3      11 RES11   0.0000
@<TRIPOS>BOND
     1     1     3    1
     2     2     7    2
     3     3     7   am
     4     4    22   ar
     5     5     1    1
     6     6    28    3
     7     7     8    1
     8     8    10   ar
     9     9    24    3
    10    10     1    1
    11    11    12    1
    12    13     5   ar
    13    14    15    1
    14    16     3    1
    15    17    11   ar
    16    18    17    1
    17    19    11   ar
    18    20    19   ar
    19    21    20    1
    20    22     8   ar
    21    23    22    1
    22    24     1    1
    23    25    20   ar
    24    26    25    1
    25    27    35    3
    26    28     1    1
    27    29    10   ar
    28    30    29    1
    29    31     4   ar
    30    32    31    1
    31    33     5   ar
    32    34    33    1
    33    35     1    1
    34    13    16   ar
    35    13    19   ar
    36    14    16   ar
    37    14    17   ar
    38    25    33   ar
    39    29    31   ar
    40    36    53    1
    41    37    38    1
    42    39    40    1
    43    41    42    1
    44    43    44    1
    45    45    46    1
    46    47    48    1
    47    49    37   ar
    48    50    49    1
    49    51    52    1
    50    53    41   ar
    51    54    55    1
    52    56    36    1
    53    57    45   ar
    54    58    57    1
    55    59    47   ar
    56    60    59    1
    57    61    62    1
    58    63    39   ar
    59    64    63    1
    60    65    43   ar
    61    66    65    1
    62    67    41   ar
    63    68    67    1
    64    69    70    1
    65    71    36    1
    66    72    36    1
    67    73    49   ar
    68    74    73    1
    69    75    76    1
    70    77    69   ar
    71    78    77    1
    72    79    61   ar
    73    80    79    1
    74    37    56   ar
    75    39    72   ar
    76    43    53   ar
    77    45    72   ar
    78    47    56   ar
    79    51    57   ar
    80    51    63   ar
    81    54    65   ar
    82    54    67   ar
    83    59    73   ar
    84    61    71   ar
    85    69    71   ar
    86    75    77   ar
    87    75    79   ar
    88    81    82    1
    89    82    86   ar
    90    83    81    1
    91    84    85    1
    92    86    87    1
    93    88    82   ar
    94    89    88    1
    95    90    91    1
    96    92    81    1
    97    93    94    1
    98    95    92   ar
    99    96    95    1
   100    97    90   ar
   101    98    97    1
   102    99    83   ar
   103   100    99    1
   104   101    83   ar
   105   102   101    1
   106   103    90   ar
   107   104   103    1
   108   105    81    1
   109   106    84   ar
   110   107   106    1
   111   108   109    1
   112   110    84   ar
   113   111   110    1
   114   112   108   ar
   115   113   112    1
   116   114    86   ar
   117   115   114    1
   118   116   105   ar
   119   117   116    1
   120   118    88   ar
   121   119   118    1
   122   120    92   ar
   123   121   120    1
   124   122    95   ar
   125   123   122    1
   126   124   114   ar
   127   125   124    1
   128    93   105   ar
   129    93   110   ar
   130    97   101   ar
   131    99   103   ar
   132   106   116   ar
   133   108   120   ar
   134   112   122   ar
   135   118   124   ar
   136   126   127    1
   137   128   126    1
   138   129   130    1
   139   131   129    1
   140   132   133    1
   141   134   132    1
   142   135   136    1
   143   137   135    1
@<TRIPOS>SUBSTRUCTURE
     1 RES1        1 GROUP             0 ****  ****    0  
     2 RES2       36 GROUP             0 ****  ****    0  
     3 RES3       81 GROUP             0 ****  ****    0  
     4 RES4      126 GROUP             0 ****  ****    0  
     5 RES5      129 GROUP             0 ****  ****    0  
     6 RES6      132 GROUP             0 ****  ****    0  
     7 RES7      135 GROUP             0 ****  ****    0  
     8 RES8      138 GROUP             0 ****  ****    0  
     9 RES9      139 GROUP             0 ****  ****    0  
    10 RES10     140 GROUP             0 ****  ****    0  
    11 RES11     141 GROUP             0 ****  ****    0  
@<TRIPOS>CRYSIN
   16.6816    9.1623   39.0459   90.0000   95.2450   90.0000    14     1
