@<TRIPOS>MOLECULE
MUPWIF
    92    93     4     0     0
SMALL
USER_CHARGES
****
Generated from the CSD

@<TRIPOS>ATOM
     1 Fe1      9.1491   1.5520   7.6805   Fe        1 RES1   0.0000
     2 N1       7.3621   0.8506   7.2209   N.ar      1 RES1   0.0000
     3 N2       8.1628   3.0001   8.3382   N.am      1 RES1   0.0000
     4 N3      10.6677   2.6515   8.2025   N.ar      1 RES1   0.0000
     5 O1       8.3539   5.1749   9.1819   O.2       1 RES1   0.0000
     6 N4      10.6489  -0.9414   6.6349   N.1       1 RES1   0.0000
     7 N5       9.5066   2.7453   4.8328   N.1       1 RES1   0.0000
     8 C1       6.7764   2.8883   8.2778   C.ar      1 RES1   0.0000
     9 N6       9.2094   0.1341  10.4510   N.1       1 RES1   0.0000
    10 C2      10.1181   0.0104   7.0316   C.1       1 RES1   0.0000
    11 C3       9.1946   0.6495   9.4130   C.1       1 RES1  -1.0000
    12 C4       6.3593   1.7130   7.6160   C.ar      1 RES1   0.0000
    13 C5       9.3562   2.2776   5.8759   C.1       1 RES1   0.0000
    14 C6       5.6989  -0.5631   6.2634   C.ar      1 RES1   0.0000
    15 H1       5.4872  -1.4002   5.7462   H         1 RES1   0.0000
    16 C7       5.0039   1.4419   7.3628   C.ar      1 RES1   0.0000
    17 N7      12.5728   4.5909   8.8429   N.ar      1 RES1   0.0000
    18 C8       4.6972   0.2651   6.6526   C.ar      1 RES1   0.0000
    19 H2       3.7924   0.0521   6.4495   H         1 RES1   0.0000
    20 C9       7.0158  -0.2577   6.5758   C.ar      1 RES1   0.0000
    21 H3       7.7130  -0.8818   6.3129   H         1 RES1   0.0000
    22 C10      8.8317   4.1024   8.7831   C.2       1 RES1   0.0000
    23 C11      5.8015   3.7523   8.7575   C.ar      1 RES1   0.0000
    24 H4       6.0436   4.5284   9.2150   H         1 RES1   0.0000
    25 C12     11.9766   2.4027   8.1003   C.ar      1 RES1   0.0000
    26 H5      12.2740   1.5492   7.8083   H         1 RES1   0.0000
    27 C13      4.0421   2.3506   7.8596   C.ar      1 RES1   0.0000
    28 H6       3.1949   2.2076   7.7281   H         1 RES1   0.0000
    29 C14     10.2996   3.8685   8.6653   C.ar      1 RES1   0.0000
    30 C15      4.4505   3.4529   8.5458   C.ar      1 RES1   0.0000
    31 H7       3.8120   4.0234   8.8821   H         1 RES1   0.0000
    32 C16     12.9126   3.3918   8.4212   C.ar      1 RES1   0.0000
    33 H8      13.8370   3.1877   8.3324   H         1 RES1   0.0000
    34 C17     11.2584   4.8203   8.9743   C.ar      1 RES1   0.0000
    35 H9      10.9726   5.6679   9.2918   H         1 RES1   0.0000
    36 N8       4.2811   7.9351  11.7258   N.4       2 RES2   1.0000
    37 C18      4.3114   9.1521  12.6309   C.3       2 RES2   0.0000
    38 H10      3.5757   9.0702  13.2865   H         2 RES2   0.0000
    39 H11      5.1616   9.1402  13.1380   H         2 RES2   0.0000
    40 C19      1.7112   7.9545  11.6477   C.3       2 RES2   0.0000
    41 H12      1.6869   7.2097  12.2981   H         2 RES2   0.0000
    42 H13      1.6486   8.8050  12.1530   H         2 RES2   0.0000
    43 C20      4.3376   5.3804  11.9635   C.3       2 RES2   0.0000
    44 H14      5.0203   5.3596  11.2482   H         2 RES2   0.0000
    45 H15      3.4511   5.2359  11.5469   H         2 RES2   0.0000
    46 C21      4.1881  10.4957  11.9430   C.3       2 RES2   0.0000
    47 H16      3.2715  10.6015  11.5845   H         2 RES2   0.0000
    48 H17      4.8227  10.5404  11.1850   H         2 RES2   0.0000
    49 C22      4.3605   6.7360  12.6395   C.3       2 RES2   0.0000
    50 H18      3.6012   6.7792  13.2745   H         2 RES2   0.0000
    51 H19      5.1925   6.8045  13.1704   H         2 RES2   0.0000
    52 C23      6.8215   7.9113  11.3370   C.3       2 RES2   0.0000
    53 H20      6.9949   6.9996  11.6801   H         2 RES2   0.0000
    54 H21      6.8848   8.5429  12.0966   H         2 RES2   0.0000
    55 C24      5.9560  11.7321  13.2592   C.3       2 RES2   0.0000
    56 H22      6.2496  10.9069  13.6979   H         2 RES2   0.0000
    57 H23      6.1054  12.4918  13.8601   H         2 RES2   0.0000
    58 H24      6.4663  11.8632  12.4346   H         2 RES2   0.0000
    59 C25      5.4484   7.9738  10.7429   C.3       2 RES2   0.0000
    60 H25      5.3494   7.2156  10.1147   H         2 RES2   0.0000
    61 H26      5.3786   8.8080  10.2137   H         2 RES2   0.0000
    62 C26      4.4874  11.6323  12.9314   C.3       2 RES2   0.0000
    63 H27      4.1831  12.4903  12.5422   H         2 RES2   0.0000
    64 H28      3.9779  11.4803  13.7662   H         2 RES2   0.0000
    65 C27      3.0176   7.9172  10.8846   C.3       2 RES2   0.0000
    66 H29      3.0420   8.6933  10.2700   H         2 RES2   0.0000
    67 H30      3.0283   7.0979  10.3281   H         2 RES2   0.0000
    68 C28      9.2732   8.1436  10.7582   C.3       2 RES2   0.0000
    69 H31      9.4092   8.7216  11.5384   H         2 RES2   0.0000
    70 H32      9.8809   8.4148  10.0413   H         2 RES2   0.0000
    71 H33      9.4534   7.2126  11.0075   H         2 RES2   0.0000
    72 C29      4.6147   4.2662  12.9604   C.3       2 RES2   0.0000
    73 H34      4.4028   3.3963  12.5388   H         2 RES2   0.0000
    74 H35      4.0166   4.3750  13.7423   H         2 RES2   0.0000
    75 C30      0.5398   7.8413  10.7104   C.3       2 RES2   0.0000
    76 H36      0.5988   8.5697  10.0430   H         2 RES2   0.0000
    77 H37      0.6074   6.9832  10.2222   H         2 RES2   0.0000
    78 C31      7.8614   8.2688  10.2888   C.3       2 RES2   0.0000
    79 H38      7.7360   7.6804   9.5035   H         2 RES2   0.0000
    80 H39      7.7064   9.2013   9.9935   H         2 RES2   0.0000
    81 C32     -0.7854   7.9068  11.3626   C.3       2 RES2   0.0000
    82 H40     -0.8822   7.1560  11.9840   H         2 RES2   0.0000
    83 H41     -1.4877   7.8591  10.6814   H         2 RES2   0.0000
    84 H42     -0.8662   8.7514  11.8559   H         2 RES2   0.0000
    85 C33      6.0588   4.2468  13.4401   C.3       2 RES2   0.0000
    86 H43      6.6553   4.1202  12.6736   H         2 RES2   0.0000
    87 H44      6.1822   3.5110  14.0769   H         2 RES2   0.0000
    88 H45      6.2685   5.0974  13.8806   H         2 RES2   0.0000
    89 O2       1.6489   3.1088  11.0502   O.3       3 RES3   0.0000
    90 H46      1.6349   3.8447  10.5517   H         3 RES3   0.0000
    91 H47      1.4818   3.6644  11.7245   H         3 RES3   0.0000
    92 O3       1.7598   5.1361   9.4045   O.3       4 RES4   0.0000
@<TRIPOS>BOND
     1     1     2    1
     2     2    12   ar
     3     3     1    1
     4     4     1    1
     5     5    22    2
     6     6    10    3
     7     7    13    3
     8     8     3    1
     9     9    11    3
    10    10     1    1
    11    11     1    1
    12    12     8   ar
    13    13     1    1
    14    14    15    1
    15    16    12   ar
    16    17    32   ar
    17    18    14   ar
    18    19    18    1
    19    20     2   ar
    20    21    20    1
    21    22     3   am
    22    23     8   ar
    23    24    23    1
    24    25     4   ar
    25    26    25    1
    26    27    16   ar
    27    28    27    1
    28    29     4   ar
    29    30    23   ar
    30    31    30    1
    31    32    25   ar
    32    33    32    1
    33    34    17   ar
    34    35    34    1
    35    14    20   ar
    36    16    18   ar
    37    22    29    1
    38    27    30   ar
    39    29    34   ar
    40    36    37    1
    41    37    38    1
    42    39    37    1
    43    40    41    1
    44    42    40    1
    45    43    44    1
    46    45    43    1
    47    46    37    1
    48    47    46    1
    49    48    46    1
    50    49    36    1
    51    50    49    1
    52    51    49    1
    53    52    53    1
    54    54    52    1
    55    55    56    1
    56    57    55    1
    57    58    55    1
    58    59    36    1
    59    60    59    1
    60    61    59    1
    61    62    46    1
    62    63    62    1
    63    64    62    1
    64    65    36    1
    65    66    65    1
    66    67    65    1
    67    68    69    1
    68    70    68    1
    69    71    68    1
    70    72    43    1
    71    73    72    1
    72    74    72    1
    73    75    40    1
    74    76    75    1
    75    77    75    1
    76    78    52    1
    77    79    78    1
    78    80    78    1
    79    81    75    1
    80    82    81    1
    81    83    81    1
    82    84    81    1
    83    85    72    1
    84    86    85    1
    85    87    85    1
    86    88    85    1
    87    40    65    1
    88    43    49    1
    89    52    59    1
    90    55    62    1
    91    68    78    1
    92    89    90    1
    93    91    89    1
@<TRIPOS>SUBSTRUCTURE
     1 RES1        1 GROUP             0 ****  ****    0  
     2 RES2       36 GROUP             0 ****  ****    0  
     3 RES3       89 GROUP             0 ****  ****    0  
     4 RES4       92 GROUP             0 ****  ****    0  
@<TRIPOS>CRYSIN
   13.6900   14.8960   17.3730   90.0000  100.6960   90.0000   231     1
