@<TRIPOS>MOLECULE
MUTVED
    75    79     2     0     0
SMALL
USER_CHARGES
****
Generated from the CSD

@<TRIPOS>ATOM
     1 Fe1      0.2044   3.9204   7.6403   Fe        1 RES1   0.0000
     2 Cl1      2.0442   2.8186   8.4983   Cl        1 RES1   0.0000
     3 Cl2     -0.3678   5.2431   9.4168   Cl        1 RES1   0.0000
     4 O1      -1.3674   4.7798   6.5909   O.co2     1 RES1  -1.0000
     5 O2      -2.7152   4.4237   4.8497   O.co2     1 RES1   0.0000
     6 O3      -1.0108   2.4659   8.0200   O.3       1 RES1   0.0000
     7 N1       1.4962   5.3821   6.6796   N.ar      1 RES1   0.0000
     8 N2       0.5491   3.1565   5.6036   N.3       1 RES1   0.0000
     9 N3      -3.4096   3.3047   9.0099   N.4       1 RES1   1.0000
    10 H1      -2.4971   3.4627   8.7769   H         1 RES1   0.0000
    11 N4      -3.1021   6.3235   7.8568   N.ar      1 RES1   1.0000
    12 H2      -2.4537   5.8526   7.3516   H         1 RES1   0.0000
    13 C1       1.6361   6.6645   7.0620   C.ar      1 RES1   0.0000
    14 H3       1.1257   6.9818   7.7972   H         1 RES1   0.0000
    15 C2       2.4959   7.5347   6.4229   C.ar      1 RES1   0.0000
    16 H4       2.5752   8.4366   6.7095   H         1 RES1   0.0000
    17 C3       3.2400   7.0697   5.3577   C.ar      1 RES1   0.0000
    18 H5       3.8435   7.6476   4.9031   H         1 RES1   0.0000
    19 C4       3.0967   5.7493   4.9571   C.ar      1 RES1   0.0000
    20 H6       3.6029   5.4101   4.2279   H         1 RES1   0.0000
    21 C5       2.2135   4.9344   5.6279   C.ar      1 RES1   0.0000
    22 C6       1.9503   3.4982   5.2406   C.3       1 RES1   0.0000
    23 H7       2.0853   3.3813   4.2669   H         1 RES1   0.0000
    24 H8       2.5789   2.8992   5.7162   H         1 RES1   0.0000
    25 C7      -0.4080   3.8021   4.6615   C.3       1 RES1   0.0000
    26 H9      -0.6932   3.1413   3.9819   H         1 RES1   0.0000
    27 H10      0.0465   4.5460   4.1934   H         1 RES1   0.0000
    28 C8      -1.6283   4.3358   5.3853   C.2       1 RES1   0.0000
    29 C9       0.3336   1.6771   5.6316   C.3       1 RES1   0.0000
    30 H11      0.8907   1.2732   6.3434   H         1 RES1   0.0000
    31 H12      0.6074   1.2836   4.7650   H         1 RES1   0.0000
    32 C10     -1.1186   1.3709   5.8900   C.ar      1 RES1   0.0000
    33 C11     -1.8913   0.7030   4.9478   C.ar      1 RES1   0.0000
    34 H13     -1.4867   0.4467   4.1274   H         1 RES1   0.0000
    35 C12     -3.2254   0.3949   5.1551   C.ar      1 RES1   0.0000
    36 C13     -4.0101  -0.3853   4.1409   C.3       1 RES1   0.0000
    37 H14     -3.5294  -0.3882   3.2872   H         1 RES1   0.0000
    38 H15     -4.8893   0.0292   4.0194   H         1 RES1   0.0000
    39 H16     -4.1232  -1.3066   4.4545   H         1 RES1   0.0000
    40 C14     -3.7952   0.8092   6.3584   C.ar      1 RES1   0.0000
    41 H17     -4.7119   0.6199   6.5234   H         1 RES1   0.0000
    42 C15     -3.0631   1.4894   7.3246   C.ar      1 RES1   0.0000
    43 C16     -1.7058   1.7806   7.0949   C.ar      1 RES1   0.0000
    44 C17     -3.6582   1.8524   8.6543   C.3       1 RES1   0.0000
    45 H18     -3.2670   1.2732   9.3560   H         1 RES1   0.0000
    46 H19     -4.6333   1.6844   8.6314   H         1 RES1   0.0000
    47 C18     -3.5545   3.5900  10.5008   C.3       1 RES1   0.0000
    48 H20     -3.4581   4.5773  10.6268   H         1 RES1   0.0000
    49 C19     -2.4386   2.9215  11.2855   C.3       1 RES1   0.0000
    50 H21     -2.4016   3.2999  12.1887   H         1 RES1   0.0000
    51 H22     -1.5834   3.0745  10.8309   H         1 RES1   0.0000
    52 H23     -2.6113   1.9578  11.3425   H         1 RES1   0.0000
    53 C20     -4.9318   3.1976  11.0154   C.3       1 RES1   0.0000
    54 H24     -5.0386   2.2250  10.9554   H         1 RES1   0.0000
    55 H25     -5.6211   3.6360  10.4738   H         1 RES1   0.0000
    56 H26     -5.0236   3.4794  11.9501   H         1 RES1   0.0000
    57 C21     -4.2547   4.1830   8.1094   C.3       1 RES1   0.0000
    58 H27     -3.9888   4.0221   7.1701   H         1 RES1   0.0000
    59 H28     -5.2023   3.9115   8.2023   H         1 RES1   0.0000
    60 C22     -4.1461   5.6570   8.3928   C.ar      1 RES1   0.0000
    61 C23     -2.9291   7.6395   8.0132   C.ar      1 RES1   0.0000
    62 H29     -2.1780   8.0671   7.6187   H         1 RES1   0.0000
    63 C24     -3.8337   8.3806   8.7439   C.ar      1 RES1   0.0000
    64 H30     -3.7121   9.3153   8.8594   H         1 RES1   0.0000
    65 C25     -4.9125   7.7413   9.2990   C.ar      1 RES1   0.0000
    66 H31     -5.5498   8.2341   9.8016   H         1 RES1   0.0000
    67 C26     -5.0738   6.3702   9.1250   C.ar      1 RES1   0.0000
    68 H32     -5.8206   5.9256   9.5091   H         1 RES1   0.0000
    69 P1       0.2599   9.8878   9.3709   P.3       2 RES2  -1.0000
    70 F1       0.0270   9.4487   7.8491   F         2 RES2   0.0000
    71 F2       0.4772  10.3101  10.9047   F         2 RES2   0.0000
    72 F3       1.2680  11.0035   8.9319   F         2 RES2   0.0000
    73 F4      -0.9442  10.9116   9.2482   F         2 RES2   0.0000
    74 F5      -0.7744   8.7697   9.8307   F         2 RES2   0.0000
    75 F6       1.4306   8.8325   9.5253   F         2 RES2   0.0000
@<TRIPOS>BOND
     1     1     2    1
     2     3     1    1
     3     4     1    1
     4     5    28    2
     5     6     1    1
     6     7     1    1
     7     8     1    1
     8     9    10    1
     9    11    12    1
    10    13     7   ar
    11    14    13    1
    12    15    13   ar
    13    16    15    1
    14    17    15   ar
    15    18    17    1
    16    19    17   ar
    17    20    19    1
    18    21     7   ar
    19    22     8    1
    20    23    22    1
    21    24    22    1
    22    25     8    1
    23    26    25    1
    24    27    25    1
    25    28     4    1
    26    29     8    1
    27    30    29    1
    28    31    29    1
    29    32    29    1
    30    33    32   ar
    31    34    33    1
    32    35    33   ar
    33    36    35    1
    34    37    36    1
    35    38    36    1
    36    39    36    1
    37    40    35   ar
    38    41    40    1
    39    42    40   ar
    40    43     6    1
    41    44     9    1
    42    45    44    1
    43    46    44    1
    44    47     9    1
    45    48    47    1
    46    49    47    1
    47    50    49    1
    48    51    49    1
    49    52    49    1
    50    53    47    1
    51    54    53    1
    52    55    53    1
    53    56    53    1
    54    57     9    1
    55    58    57    1
    56    59    57    1
    57    60    11   ar
    58    61    11   ar
    59    62    61    1
    60    63    61   ar
    61    64    63    1
    62    65    63   ar
    63    66    65    1
    64    67    60   ar
    65    68    67    1
    66    19    21   ar
    67    21    22    1
    68    25    28    1
    69    32    43   ar
    70    42    43   ar
    71    42    44    1
    72    57    60    1
    73    65    67   ar
    74    69    70    1
    75    71    69    1
    76    72    69    1
    77    73    69    1
    78    74    69    1
    79    75    69    1
@<TRIPOS>SUBSTRUCTURE
     1 RES1        1 GROUP             0 ****  ****    0  
     2 RES2       69 GROUP             0 ****  ****    0  
@<TRIPOS>CRYSIN
    9.4997   20.8723   15.3963   90.0000  102.9740   90.0000    14     1
