@<TRIPOS>MOLECULE
MUWCUE
    80    86     2     0     0
SMALL
NO_CHARGES
****
Generated from the CSD

@<TRIPOS>ATOM
     1 Fe1      0.7134  -2.0823  -3.7686   Fe        1 RES1   0.0000
     2 O1      -0.7651  -3.3310  -3.8283   O.3       1 RES1   0.0000
     3 C1      -2.0621  -3.1941  -4.0007   C.ar      1 RES1   0.0000
     4 C2      -2.9354  -4.3023  -3.8386   C.ar      1 RES1   0.0000
     5 Cl1     -2.2141  -5.8423  -3.4954   Cl        1 RES1   0.0000
     6 C3      -4.2826  -4.2199  -4.0089   C.ar      1 RES1   0.0000
     7 H1      -4.8159  -4.9746  -3.9145   H         1 RES1   0.0000
     8 C4      -4.8403  -3.0041  -4.3187   C.ar      1 RES1   0.0000
     9 Cl2     -6.5625  -2.8741  -4.5095   Cl        1 RES1   0.0000
    10 C5      -4.0482  -1.9027  -4.4459   C.ar      1 RES1   0.0000
    11 H2      -4.4423  -1.0802  -4.6285   H         1 RES1   0.0000
    12 C6      -2.6713  -1.9731  -4.3105   C.ar      1 RES1   0.0000
    13 C7      -1.8612  -0.7414  -4.5546   C.3       1 RES1   0.0000
    14 H3      -1.4580  -0.8065  -5.4327   H         1 RES1   0.0000
    15 H4      -2.4562   0.0239  -4.5608   H         1 RES1   0.0000
    16 N1      -0.7883  -0.4996  -3.5555   N.3       1 RES1   0.0000
    17 C8      -1.3447  -0.5514  -2.2035   C.3       1 RES1   0.0000
    18 H5      -1.7478  -1.4230  -2.0721   H         1 RES1   0.0000
    19 H6      -2.0518   0.1090  -2.1378   H         1 RES1   0.0000
    20 C9      -0.3658  -0.3083  -1.0935   C.ar      1 RES1   0.0000
    21 C10     -0.5860   0.7055  -0.1990   C.ar      1 RES1   0.0000
    22 H7      -1.3176   1.2689  -0.3160   H         1 RES1   0.0000
    23 C11      0.2576   0.9048   0.8678   C.ar      1 RES1   0.0000
    24 Cl3     -0.0759   2.1056   2.0600   Cl        1 RES1   0.0000
    25 C12      1.3923   0.1475   0.9663   C.ar      1 RES1   0.0000
    26 H8       2.0054   0.3189   1.6434   H         1 RES1   0.0000
    27 C13      1.6306  -0.8623   0.0698   C.ar      1 RES1   0.0000
    28 Cl4      3.0971  -1.7885   0.1853   Cl        1 RES1   0.0000
    29 C14      0.7522  -1.1666  -0.9663   C.ar      1 RES1   0.0000
    30 O2       0.9415  -2.1950  -1.7880   O.3       1 RES1   0.0000
    31 C15     -0.1752   0.8238  -3.8283   C.3       1 RES1   0.0000
    32 H9      -0.6659   1.5081  -3.3462   H         1 RES1   0.0000
    33 H10     -0.2460   1.0191  -4.7762   H         1 RES1   0.0000
    34 C16      1.2635   0.8743  -3.4221   C.ar      1 RES1   0.0000
    35 C17      1.8934   2.0502  -3.0815   C.ar      1 RES1   0.0000
    36 H11      1.4142   2.8474  -3.0487   H         1 RES1   0.0000
    37 C18      3.2290   2.0355  -2.7923   C.ar      1 RES1   0.0000
    38 H12      3.6683   2.8075  -2.5174   H         1 RES1   0.0000
    39 C19      3.9001   0.8530  -2.9154   C.ar      1 RES1   0.0000
    40 H13      4.8159   0.8225  -2.7512   H         1 RES1   0.0000
    41 C20      3.2471  -0.2711  -3.2765   C.ar      1 RES1   0.0000
    42 H14      3.7262  -1.0656  -3.3524   H         1 RES1   0.0000
    43 N2       4.6330  -4.9533  -7.9973   N.pl3     1 RES1   0.0000
    44 O3       2.2128  -3.2274  -4.1730   O.3       1 RES1   0.0000
    45 H15      2.8169  -3.4001  -3.5350   H         1 RES1   0.0000
    46 C21      2.5052  -3.2832  -5.4614   C.ar      1 RES1   0.0000
    47 C22      3.5073  -4.0658  -5.9682   C.ar      1 RES1   0.0000
    48 H16      4.0624  -4.5600  -5.4101   H         1 RES1   0.0000
    49 C23      3.6670  -4.0963  -7.3756   C.ar      1 RES1   0.0000
    50 C24      2.8980  -3.3323  -8.2311   C.ar      1 RES1   0.0000
    51 H17      3.0487  -3.3443  -9.1503   H         1 RES1   0.0000
    52 C25      1.9075  -2.5590  -7.6936   C.ar      1 RES1   0.0000
    53 H18      1.3730  -2.0448  -8.2537   H         1 RES1   0.0000
    54 C26      1.6847  -2.5285  -6.3088   C.ar      1 RES1   0.0000
    55 O4       0.7355  -1.8256  -5.7509   O.3       1 RES1   0.0000
    56 N3       1.9320  -0.2804  -3.5288   N.ar      1 RES1   0.0000
    57 O5       5.3980  -5.5884  -7.2258   O.2       1 RES1   0.0000
    58 O6       4.7270  -5.0038  -9.2303   O.2       1 RES1   0.0000
    59 N4       1.8560  -4.8577  -1.0997   N.3       2 RES2   0.0000
    60 C27      1.2416  -5.6150  -2.1460   C.3       2 RES2   0.0000
    61 H19      1.6551  -5.3745  -2.9892   H         2 RES2   0.0000
    62 H20      0.3040  -5.3719  -2.1973   H         2 RES2   0.0000
    63 C28      1.3447  -7.1111  -1.9634   C.3       2 RES2   0.0000
    64 H21      1.2429  -7.5442  -2.8128   H         2 RES2   0.0000
    65 H22      0.6543  -7.4087  -1.3664   H         2 RES2   0.0000
    66 H23      2.2038  -7.3290  -1.5941   H         2 RES2   0.0000
    67 C29      3.3269  -5.1114  -0.8391   C.3       2 RES2   0.0000
    68 H24      3.6193  -4.5494  -0.1046   H         2 RES2   0.0000
    69 H25      3.4454  -6.0362  -0.5704   H         2 RES2   0.0000
    70 C30      4.1551  -4.8510  -1.9860   C.3       2 RES2   0.0000
    71 H26      4.0778  -3.9262  -2.2322   H         2 RES2   0.0000
    72 H27      3.8705  -5.4024  -2.7184   H         2 RES2   0.0000
    73 H28      5.0696  -5.0503  -1.7726   H         2 RES2   0.0000
    74 C31      1.4258  -5.0012   0.2995   C.3       2 RES2   0.0000
    75 H29      1.9900  -4.4471   0.8617   H         2 RES2   0.0000
    76 H30      1.5469  -5.9233   0.5745   H         2 RES2   0.0000
    77 C32      0.0116  -4.6172   0.5129   C.3       2 RES2   0.0000
    78 H31     -0.2190  -4.7447   1.4361   H         2 RES2   0.0000
    79 H32     -0.5551  -5.1646  -0.0369   H         2 RES2   0.0000
    80 H33     -0.1095  -3.6937   0.2770   H         2 RES2   0.0000
@<TRIPOS>BOND
     1     1     2    1
     2     2     3    1
     3     3     4   ar
     4     4     5    1
     5     6     4   ar
     6     7     6    1
     7     8     6   ar
     8     9     8    1
     9    10     8   ar
    10    11    10    1
    11    12     3   ar
    12    13    12    1
    13    14    13    1
    14    15    13    1
    15    16     1    1
    16    17    16    1
    17    18    17    1
    18    19    17    1
    19    20    17    1
    20    21    20   ar
    21    22    21    1
    22    23    21   ar
    23    24    23    1
    24    25    23   ar
    25    26    25    1
    26    27    25   ar
    27    28    27    1
    28    29    20   ar
    29    30     1    1
    30    31    16    1
    31    32    31    1
    32    33    31    1
    33    34    31    1
    34    35    34   ar
    35    36    35    1
    36    37    35   ar
    37    38    37    1
    38    39    37   ar
    39    40    39    1
    40    41    39   ar
    41    42    41    1
    42    43    49    1
    43    44     1    1
    44    45    44    1
    45    46    44    1
    46    47    46   ar
    47    48    47    1
    48    49    47   ar
    49    50    49   ar
    50    51    50    1
    51    52    50   ar
    52    53    52    1
    53    54    46   ar
    54    55     1    1
    55    56     1    1
    56    57    43    2
    57    58    43    2
    58    10    12   ar
    59    13    16    1
    60    27    29   ar
    61    29    30    1
    62    34    56   ar
    63    41    56   ar
    64    52    54   ar
    65    54    55    1
    66    59    60    1
    67    60    61    1
    68    62    60    1
    69    63    60    1
    70    64    63    1
    71    65    63    1
    72    66    63    1
    73    67    59    1
    74    68    67    1
    75    69    67    1
    76    70    67    1
    77    71    70    1
    78    72    70    1
    79    73    70    1
    80    74    59    1
    81    75    74    1
    82    76    74    1
    83    77    74    1
    84    78    77    1
    85    79    77    1
    86    80    77    1
@<TRIPOS>SUBSTRUCTURE
     1 RES1        1 GROUP             0 ****  ****    0  
     2 RES2       59 GROUP             0 ****  ****    0  
@<TRIPOS>CRYSIN
   12.8801   13.2868   20.5163   90.0000   90.0000   90.0000    19     1
