@<TRIPOS>MOLECULE
MUWCOY
    80    86     2     0     0
SMALL
NO_CHARGES
****
Generated from the CSD

@<TRIPOS>ATOM
     1 Fe1     13.6258  10.5551   1.3882   Fe        1 RES1   0.0000
     2 O1      12.4496   9.0168   1.3888   O.3       1 RES1   0.0000
     3 C1      12.6507   7.7148   1.2232   C.ar      1 RES1   0.0000
     4 C2      11.6265   6.7919   1.4992   C.ar      1 RES1   0.0000
     5 Br1      9.9136   7.4136   1.9560   Br        1 RES1   0.0000
     6 C3      11.7906   5.4207   1.3485   C.ar      1 RES1   0.0000
     7 H1      11.0919   4.8302   1.5226   H         1 RES1   0.0000
     8 C4      13.0080   4.9685   0.9365   C.ar      1 RES1   0.0000
     9 Br2     13.3181   3.0999   0.6696   Br        1 RES1   0.0000
    10 C5      14.0376   5.8130   0.6477   C.ar      1 RES1   0.0000
    11 H2      14.8487   5.4712   0.3483   H         1 RES1   0.0000
    12 C6      13.8774   7.1922   0.8048   C.ar      1 RES1   0.0000
    13 C7      15.0155   8.0978   0.4120   C.3       1 RES1   0.0000
    14 H3      15.8121   7.5565   0.2888   H         1 RES1   0.0000
    15 H4      14.8051   8.5074  -0.4417   H         1 RES1   0.0000
    16 N1      15.3185   9.1591   1.3761   N.3       1 RES1   0.0000
    17 C8      15.4469   8.5753   2.7373   C.3       1 RES1   0.0000
    18 H5      16.1337   7.8904   2.7203   H         1 RES1   0.0000
    19 H6      14.6092   8.1470   2.9751   H         1 RES1   0.0000
    20 C9      15.7936   9.5780   3.8012   C.ar      1 RES1   0.0000
    21 C10     16.9607   9.4849   4.5083   C.ar      1 RES1   0.0000
    22 H7      17.5456   8.7854   4.3257   H         1 RES1   0.0000
    23 C11     17.2823  10.3746   5.4618   C.ar      1 RES1   0.0000
    24 Br3     18.9219  10.2076   6.4102   Br        1 RES1   0.0000
    25 C12     16.4301  11.4425   5.7358   C.ar      1 RES1   0.0000
    26 H8      16.6445  12.0543   6.4047   H         1 RES1   0.0000
    27 C13     15.3079  11.5822   5.0350   C.ar      1 RES1   0.0000
    28 Br4     14.2232  13.1045   5.3125   Br        1 RES1   0.0000
    29 C14     14.8779  10.6380   4.0518   C.ar      1 RES1   0.0000
    30 O2      13.7213  10.7470   3.3871   O.3       1 RES1   0.0000
    31 C15     16.5346   9.8493   0.9768   C.3       1 RES1   0.0000
    32 H9      16.6206   9.8081   0.0106   H         1 RES1   0.0000
    33 H10     17.2995   9.3918   1.3612   H         1 RES1   0.0000
    34 C16     16.5532  11.2776   1.4079   C.ar      1 RES1   0.0000
    35 C17     17.7349  11.9679   1.6755   C.ar      1 RES1   0.0000
    36 H11     18.5500  11.5197   1.6606   H         1 RES1   0.0000
    37 C18     17.6952  13.3124   1.9601   C.ar      1 RES1   0.0000
    38 H12     18.4733  13.7858   2.1469   H         1 RES1   0.0000
    39 C19     16.4513  13.9454   1.9622   C.ar      1 RES1   0.0000
    40 H13     16.3891  14.8617   2.1151   H         1 RES1   0.0000
    41 C20     15.3278  13.2060   1.7371   C.ar      1 RES1   0.0000
    42 H14     14.4981  13.6236   1.7796   H         1 RES1   0.0000
    43 N2      15.3794  11.8827   1.4525   N.ar      1 RES1   0.0000
    44 O3      12.4112  12.0370   1.1998   O.3       1 RES1   0.0000
    45 H15     11.8012  12.3642   1.6415   H         1 RES1   0.0000
    46 C21     12.3583  12.5105  -0.0616   C.ar      1 RES1   0.0000
    47 C22     11.7033  13.6768  -0.3695   C.ar      1 RES1   0.0000
    48 H16     11.2692  14.1715   0.2867   H         1 RES1   0.0000
    49 C23     11.7112  14.0877  -1.6819   C.ar      1 RES1   0.0000
    50 C24     12.4020  13.4068  -2.6396   C.ar      1 RES1   0.0000
    51 H17     12.4245  13.7300  -3.5103   H         1 RES1   0.0000
    52 C25     13.0649  12.2418  -2.3211   C.ar      1 RES1   0.0000
    53 H18     13.5003  11.7591  -2.9857   H         1 RES1   0.0000
    54 C26     13.0848  11.8003  -1.0427   C.ar      1 RES1   0.0000
    55 O4      13.7120  10.7005  -0.6133   O.3       1 RES1   0.0000
    56 N3      11.0403  15.3219  -2.0747   N.pl3     1 RES1   0.0000
    57 O5      10.3323  15.8778  -1.2083   O.2       1 RES1   0.0000
    58 O6      11.2216  15.8126  -3.1875   O.2       1 RES1   0.0000
    59 N4      17.6833   8.4755  -4.2386   N.3       2 RES2   0.0000
    60 C27     16.8403   8.9849  -3.1386   C.3       2 RES2   0.0000
    61 H19     17.1526   9.8679  -2.8817   H         2 RES2   0.0000
    62 H20     16.9369   8.4024  -2.3699   H         2 RES2   0.0000
    63 C28     15.3423   9.0726  -3.5230   C.3       2 RES2   0.0000
    64 H21     15.2616   9.3985  -4.4234   H         2 RES2   0.0000
    65 H22     14.8911   9.6711  -2.9242   H         2 RES2   0.0000
    66 H23     14.9454   8.2002  -3.4635   H         2 RES2   0.0000
    67 C29     17.5972   9.5847  -5.2686   C.3       2 RES2   0.0000
    68 H24     16.7186   9.5182  -5.6742   H         2 RES2   0.0000
    69 H25     17.6131  10.4212  -4.7759   H         2 RES2   0.0000
    70 C30     18.5633   9.7283  -6.3728   C.3       2 RES2   0.0000
    71 H26     18.5116   8.9583  -6.9462   H         2 RES2   0.0000
    72 H27     19.4512   9.8014  -6.0161   H         2 RES2   0.0000
    73 H28     18.3555  10.5169  -6.8804   H         2 RES2   0.0000
    74 C31     17.3392   7.1443  -4.7674   C.3       2 RES2   0.0000
    75 H29     17.8778   6.9568  -5.5510   H         2 RES2   0.0000
    76 H30     16.4063   7.1310  -5.0329   H         2 RES2   0.0000
    77 C32     17.5867   6.0498  -3.6950   C.3       2 RES2   0.0000
    78 H31     16.9965   6.1921  -2.9518   H         2 RES2   0.0000
    79 H32     18.4971   6.0976  -3.3935   H         2 RES2   0.0000
    80 H33     17.4199   5.1853  -4.0751   H         2 RES2   0.0000
@<TRIPOS>BOND
     1     1     2    1
     2     2     3    1
     3     3     4   ar
     4     4     5    1
     5     6     4   ar
     6     7     6    1
     7     8     6   ar
     8     9     8    1
     9    10     8   ar
    10    11    10    1
    11    12     3   ar
    12    13    12    1
    13    14    13    1
    14    15    13    1
    15    16     1    1
    16    17    16    1
    17    18    17    1
    18    19    17    1
    19    20    17    1
    20    21    20   ar
    21    22    21    1
    22    23    21   ar
    23    24    23    1
    24    25    23   ar
    25    26    25    1
    26    27    25   ar
    27    28    27    1
    28    29    20   ar
    29    30     1    1
    30    31    16    1
    31    32    31    1
    32    33    31    1
    33    34    31    1
    34    35    34   ar
    35    36    35    1
    36    37    35   ar
    37    38    37    1
    38    39    37   ar
    39    40    39    1
    40    41    39   ar
    41    42    41    1
    42    43     1    1
    43    44     1    1
    44    45    44    1
    45    46    44    1
    46    47    46   ar
    47    48    47    1
    48    49    47   ar
    49    50    49   ar
    50    51    50    1
    51    52    50   ar
    52    53    52    1
    53    54    46   ar
    54    55     1    1
    55    56    49    1
    56    57    56    2
    57    58    56    2
    58    10    12   ar
    59    13    16    1
    60    27    29   ar
    61    29    30    1
    62    34    43   ar
    63    41    43   ar
    64    52    54   ar
    65    54    55    1
    66    59    60    1
    67    60    61    1
    68    62    60    1
    69    63    60    1
    70    64    63    1
    71    65    63    1
    72    66    63    1
    73    67    59    1
    74    68    67    1
    75    69    67    1
    76    70    67    1
    77    71    70    1
    78    72    70    1
    79    73    70    1
    80    74    59    1
    81    75    74    1
    82    76    74    1
    83    77    74    1
    84    78    77    1
    85    79    77    1
    86    80    77    1
@<TRIPOS>SUBSTRUCTURE
     1 RES1        1 GROUP             0 ****  ****    0  
     2 RES2       59 GROUP             0 ****  ****    0  
@<TRIPOS>CRYSIN
   13.2330   13.2991   21.2357   90.0000   90.0000   90.0000    19     1
