@<TRIPOS>MOLECULE
MUYJOG
    88    87     7     0     0
SMALL
NO_CHARGES
****
Generated from the CSD

@<TRIPOS>ATOM
     1 Fe1     12.0693   9.6308   3.7184   Fe        1 RES1   0.0000
     2 N1      10.2183  10.7707   3.5852   N.3       1 RES1   0.0000
     3 C1       9.7847  11.0296   4.9853   C.3       1 RES1   0.0000
     4 H1       8.8864  11.3950   4.9841   H         1 RES1   0.0000
     5 H2      10.3751  11.6824   5.3923   H         1 RES1   0.0000
     6 C2       9.8107   9.7429   5.7976   C.3       1 RES1   0.0000
     7 H3       9.7424   9.9589   6.7410   H         1 RES1   0.0000
     8 H4       9.0442   9.1984   5.5591   H         1 RES1   0.0000
     9 N2      11.0701   8.9590   5.5571   N.3       1 RES1   0.0000
    10 C3      10.7768   7.5126   5.3152   C.3       1 RES1   0.0000
    11 H5      10.1972   7.1772   6.0180   H         1 RES1   0.0000
    12 H6      11.6039   7.0063   5.3389   H         1 RES1   0.0000
    13 C4      10.1000   7.3192   3.9626   C.3       1 RES1   0.0000
    14 H7      10.1096   6.3765   3.7341   H         1 RES1   0.0000
    15 H8       9.1749   7.6015   4.0262   H         1 RES1   0.0000
    16 N3      10.7776   8.0967   2.8700   N.3       1 RES1   0.0000
    17 C5       9.7858   8.8417   2.0359   C.3       1 RES1   0.0000
    18 H9       9.0818   8.2372   1.7503   H         1 RES1   0.0000
    19 H10     10.2237   9.1895   1.2434   H         1 RES1   0.0000
    20 C6       9.1792   9.9919   2.8301   C.3       1 RES1   0.0000
    21 H11      8.7134  10.5872   2.2226   H         1 RES1   0.0000
    22 H12      8.5289   9.6381   3.4566   H         1 RES1   0.0000
    23 C7      10.5699  12.0397   2.8872   C.3       1 RES1   0.0000
    24 H13     11.0129  12.6436   3.5046   H         1 RES1   0.0000
    25 H14      9.7634  12.4719   2.5654   H         1 RES1   0.0000
    26 P1      11.6763  11.6663   1.4837   P.3       1 RES1   0.0000
    27 O1      12.5075  10.4770   2.0195   O.co2     1 RES1   0.0000
    28 O2      10.9231  11.4008   0.2164   O.co2     1 RES1   0.0000
    29 C8      12.7222  13.1101   1.2883   C.3       1 RES1   0.0000
    30 H15     13.1453  13.0681   0.4162   H         1 RES1   0.0000
    31 H16     12.1604  13.9003   1.3020   H         1 RES1   0.0000
    32 C9      13.8093  13.2714   2.3446   C.3       1 RES1   0.0000
    33 H17     13.4133  13.1702   3.2244   H         1 RES1   0.0000
    34 H18     14.4667  12.5674   2.2319   H         1 RES1   0.0000
    35 C10     14.5007  14.6090   2.2660   C.2       1 RES1   0.0000
    36 O3      15.3230  14.7969   3.2826   O.3       1 RES1   0.0000
    37 H19     15.6751  15.6125   3.2511   H         1 RES1   0.0000
    38 O4      14.3222  15.4211   1.3784   O.2       1 RES1   0.0000
    39 C11     12.0540   9.1174   6.6681   C.3       1 RES1   0.0000
    40 H20     12.6455   8.3485   6.6917   H         1 RES1   0.0000
    41 H21     11.5851   9.1635   7.5161   H         1 RES1   0.0000
    42 P2      13.0366  10.6409   6.4271   P.3       1 RES1   0.0000
    43 O5      13.0140  10.8558   4.8999   O.co2     1 RES1   0.0000
    44 O6      12.4960  11.8088   7.2041   O.co2     1 RES1   0.0000
    45 C12     14.7086  10.2172   6.9329   C.3       1 RES1   0.0000
    46 H22     14.6845   9.8435   7.8270   H         1 RES1   0.0000
    47 H23     15.0589   9.5374   6.3355   H         1 RES1   0.0000
    48 C13     15.6408  11.4221   6.9198   C.3       1 RES1   0.0000
    49 H24     15.7689  11.7114   6.0033   H         1 RES1   0.0000
    50 H25     15.2205  12.1500   7.4027   H         1 RES1   0.0000
    51 C14     16.9911  11.1382   7.5377   C.2       1 RES1   0.0000
    52 O7      17.9032  12.0878   7.4075   O.3       1 RES1   0.0000
    53 H26     17.5744  12.8046   6.8931   H         1 RES1   0.0000
    54 O8      17.2563  10.1214   8.1407   O.2       1 RES1   0.0000
    55 C15     11.6456   7.2332   2.0240   C.3       1 RES1   0.0000
    56 H27     11.8056   7.6648   1.1700   H         1 RES1   0.0000
    57 H28     11.2027   6.3868   1.8570   H         1 RES1   0.0000
    58 P3      13.2402   6.9415   2.8821   P.3       1 RES1   0.0000
    59 O9      13.3978   8.2096   3.7594   O.co2     1 RES1   0.0000
    60 O10     13.2687   5.6490   3.6281   O.co2     1 RES1   0.0000
    61 C16     14.5188   7.0542   1.6289   C.3       1 RES1   0.0000
    62 H29     14.4756   7.9350   1.2247   H         1 RES1   0.0000
    63 H30     15.3830   6.9766   2.0638   H         1 RES1   0.0000
    64 C17     14.4423   6.0081   0.5190   C.3       1 RES1   0.0000
    65 H31     14.7060   5.1441   0.8711   H         1 RES1   0.0000
    66 H32     13.5269   5.9376   0.2054   H         1 RES1   0.0000
    67 C18     15.3391   6.3737  -0.6331   C.2       1 RES1   0.0000
    68 O11     15.1718   5.5947  -1.6877   O.3       1 RES1   0.0000
    69 H33     15.6898   5.8737  -2.3813   H         1 RES1   0.0000
    70 O12     16.1336   7.2890  -0.6191   O.2       1 RES1   0.0000
    71 O13      5.2665   2.9062   3.6141   O.3       2 RES2   0.0000
    72 H34      4.8248   2.5816   2.8829   H         2 RES2   0.0000
    73 H35      4.7642   2.8633   4.3784   H         2 RES2   0.0000
    74 O14      6.7599   9.5466   0.8555   O.3       3 RES3   0.0000
    75 H36      6.2980  10.2251   0.4816   H         3 RES3   0.0000
    76 H37      6.4276   8.8431   0.4389   H         3 RES3   0.0000
    77 O15      6.9730   5.0192   3.8128   O.3       4 RES4   0.0000
    78 H38      7.6888   4.6810   4.2490   H         4 RES4   0.0000
    79 H39      6.4109   4.2785   3.6767   H         4 RES4   0.0000
    80 O16     12.0509  12.8718  12.1680   O.3       5 RES5   0.0000
    81 H40     12.7722  13.1649  12.4148   H         5 RES5   0.0000
    82 H41     11.4614  12.8048  12.9084   H         5 RES5   0.0000
    83 O17     10.5735   4.5995   9.7826   O.3       6 RES6   0.0000
    84 H42     11.4282   4.8033   9.7467   H         6 RES6   0.0000
    85 H43     10.2770   4.6464  10.6579   H         6 RES6   0.0000
    86 O18      9.5263   6.7892   8.3642   O.3       7 RES7   0.0000
    87 H44      9.7301   7.5390   8.8342   H         7 RES7   0.0000
    88 H45      9.9082   6.1637   8.8422   H         7 RES7   0.0000
@<TRIPOS>BOND
     1     1     2    1
     2     2     3    1
     3     3     4    1
     4     5     3    1
     5     6     3    1
     6     7     6    1
     7     8     6    1
     8     9     1    1
     9    10     9    1
    10    11    10    1
    11    12    10    1
    12    13    10    1
    13    14    13    1
    14    15    13    1
    15    16     1    1
    16    17    16    1
    17    18    17    1
    18    19    17    1
    19    20     2    1
    20    21    20    1
    21    22    20    1
    22    23     2    1
    23    24    23    1
    24    25    23    1
    25    26    23    1
    26    27     1    1
    27    28    26    2
    28    29    26    1
    29    30    29    1
    30    31    29    1
    31    32    29    1
    32    33    32    1
    33    34    32    1
    34    35    32    1
    35    36    35    1
    36    37    36    1
    37    38    35    2
    38    39     9    1
    39    40    39    1
    40    41    39    1
    41    42    39    1
    42    43     1    1
    43    44    42    2
    44    45    42    1
    45    46    45    1
    46    47    45    1
    47    48    45    1
    48    49    48    1
    49    50    48    1
    50    51    48    1
    51    52    51    1
    52    53    52    1
    53    54    51    2
    54    55    16    1
    55    56    55    1
    56    57    55    1
    57    58    55    1
    58    59     1    1
    59    60    58    2
    60    61    58    1
    61    62    61    1
    62    63    61    1
    63    64    61    1
    64    65    64    1
    65    66    64    1
    66    67    64    1
    67    68    67    1
    68    69    68    1
    69    70    67    2
    70     6     9    1
    71    13    16    1
    72    17    20    1
    73    26    27    1
    74    42    43    1
    75    58    59    1
    76    71    72    1
    77    73    71    1
    78    74    75    1
    79    76    74    1
    80    77    78    1
    81    79    77    1
    82    80    81    1
    83    82    80    1
    84    83    84    1
    85    85    83    1
    86    86    87    1
    87    88    86    1
@<TRIPOS>SUBSTRUCTURE
     1 RES1        1 GROUP             0 ****  ****    0  
     2 RES2       71 GROUP             0 ****  ****    0  
     3 RES3       74 GROUP             0 ****  ****    0  
     4 RES4       77 GROUP             0 ****  ****    0  
     5 RES5       80 GROUP             0 ****  ****    0  
     6 RES6       83 GROUP             0 ****  ****    0  
     7 RES7       86 GROUP             0 ****  ****    0  
@<TRIPOS>CRYSIN
   10.1491   11.9173   14.0406   74.6447   76.8577   75.0435     2     1
