@<TRIPOS>MOLECULE
NAFZAX
   163   170     1     0     0
SMALL
NO_CHARGES
****
Generated from the CSD

@<TRIPOS>ATOM
     1 Fe1     -1.9730   7.8460  10.3976   Fe        1 RES1   0.0000
     2 S1      -3.6928   6.9188  13.1557   S.o2      1 RES1   0.0000
     3 O1      -3.3894   7.6935  11.9345   O.3       1 RES1   0.0000
     4 O2      -5.0627   7.1647  13.5735   O.2       1 RES1   0.0000
     5 O3      -3.3304   5.5187  13.0302   O.2       1 RES1   0.0000
     6 S2       0.6770   7.7958   8.2609   S.o2      1 RES1   0.0000
     7 O4      -0.6431   8.1650   8.8034   O.3       1 RES1   0.0000
     8 O5       1.0496   8.6736   7.1730   O.2       1 RES1   0.0000
     9 O6       1.6941   7.6759   9.2868   O.2       1 RES1   0.0000
    10 N1      -1.0760   5.8791  10.7866   N.ar      1 RES1   0.0000
    11 N2      -0.4513   8.2449  11.8235   N.2       1 RES1   0.0000
    12 N3      -0.0199   9.3352  12.5294   N.2       1 RES1   0.0000
    13 N4       2.5781   9.2370  15.0456   N.ar      1 RES1   0.0000
    14 N5       1.2127   7.5874  13.0821   N.pl3     1 RES1   0.0000
    15 N6       2.1830   6.7431  13.6836   N.3       1 RES1   0.0000
    16 H1       2.9695   6.9240  13.1756   H         1 RES1   0.0000
    17 H2       2.3408   7.1434  14.5323   H         1 RES1   0.0000
    18 N7      -2.8513   9.8159   9.9720   N.ar      1 RES1   0.0000
    19 N8      -3.4796   7.4543   8.9378   N.2       1 RES1   0.0000
    20 N9      -3.8982   6.3617   8.2269   N.2       1 RES1   0.0000
    21 N10     -6.3656   6.5169   5.5884   N.ar      1 RES1   0.0000
    22 N11     -5.1018   8.1169   7.6474   N.pl3     1 RES1   0.0000
    23 N12     -6.0676   8.9749   7.0513   N.3       1 RES1   0.0000
    24 H3      -6.2696   8.5090   6.2841   H         1 RES1   0.0000
    25 H4      -6.8308   8.9208   7.5667   H         1 RES1   0.0000
    26 C1      -1.4922   4.7146  10.2552   C.ar      1 RES1   0.0000
    27 H5      -2.2435   4.7178   9.6748   H         1 RES1   0.0000
    28 C2      -0.8595   3.5054  10.5284   C.ar      1 RES1   0.0000
    29 H6      -1.1771   2.6984  10.1405   H         1 RES1   0.0000
    30 C3       0.2333   3.4902  11.3672   C.ar      1 RES1   0.0000
    31 H7       0.6807   2.6748  11.5586   H         1 RES1   0.0000
    32 C4       0.6776   4.6890  11.9355   C.ar      1 RES1   0.0000
    33 H8       1.4295   4.7081  12.5152   H         1 RES1   0.0000
    34 C5      -0.0158   5.8541  11.6244   C.ar      1 RES1   0.0000
    35 C6       0.2840   7.1889  12.1755   C.2       1 RES1   0.0000
    36 C7       0.9805   8.9424  13.2819   C.2       1 RES1   0.0000
    37 C8       1.7139   9.8174  14.2002   C.ar      1 RES1   0.0000
    38 C9       1.4709  11.1952  14.1403   C.ar      1 RES1   0.0000
    39 H9       0.8298  11.5581  13.5397   H         1 RES1   0.0000
    40 C10      2.2031  12.0059  14.9920   C.ar      1 RES1   0.0000
    41 H10      2.0675  12.9468  14.9937   H         1 RES1   0.0000
    42 C11      3.1350  11.4343  15.8412   C.ar      1 RES1   0.0000
    43 H11      3.6649  11.9777  16.4118   H         1 RES1   0.0000
    44 C12      3.2821  10.0520  15.8437   C.ar      1 RES1   0.0000
    45 H12      3.9130   9.6655  16.4393   H         1 RES1   0.0000
    46 C13     -2.4365  10.9778  10.5034   C.ar      1 RES1   0.0000
    47 H13     -1.7124  10.9698  11.1183   H         1 RES1   0.0000
    48 C14     -3.0324  12.1920  10.1845   C.ar      1 RES1   0.0000
    49 H14     -2.7192  13.0005  10.5722   H         1 RES1   0.0000
    50 C15     -4.0866  12.2037   9.2955   C.ar      1 RES1   0.0000
    51 H15     -4.5064  13.0246   9.0674   H         1 RES1   0.0000
    52 C16     -4.5355  11.0165   8.7355   C.ar      1 RES1   0.0000
    53 H16     -5.2636  11.0039   8.1255   H         1 RES1   0.0000
    54 C17     -3.8835   9.8474   9.0993   C.ar      1 RES1   0.0000
    55 C18     -4.1863   8.5093   8.5662   C.2       1 RES1   0.0000
    56 C19     -4.8779   6.7718   7.4516   C.2       1 RES1   0.0000
    57 C20     -5.5864   5.9095   6.4953   C.ar      1 RES1   0.0000
    58 C21     -5.4036   4.5260   6.5554   C.ar      1 RES1   0.0000
    59 H17     -4.8271   4.1336   7.2005   H         1 RES1   0.0000
    60 C22     -6.0968   3.7478   5.6377   C.ar      1 RES1   0.0000
    61 H18     -6.0021   2.8018   5.6449   H         1 RES1   0.0000
    62 C23     -6.9198   4.3539   4.7199   C.ar      1 RES1   0.0000
    63 H19     -7.4107   3.8348   4.0934   H         1 RES1   0.0000
    64 C24     -7.0190   5.7290   4.7237   C.ar      1 RES1   0.0000
    65 H20     -7.5812   6.1409   4.0786   H         1 RES1   0.0000
    66 C25     -2.6405   7.5874  14.4276   C.3       1 RES1   0.0000
    67 H21     -2.8040   7.0876  15.2668   H         1 RES1   0.0000
    68 H22     -1.6977   7.4349  14.1683   H         1 RES1   0.0000
    69 C26     -2.8321   9.0803  14.7069   C.3       1 RES1   0.0000
    70 H23     -3.7684   9.2450  14.9832   H         1 RES1   0.0000
    71 H24     -2.6632   9.5940  13.8783   H         1 RES1   0.0000
    72 C27     -1.8836   9.5669  15.8086   C.3       1 RES1   0.0000
    73 H25     -2.0543   9.0472  16.6341   H         1 RES1   0.0000
    74 H26     -0.9498   9.3947  15.5292   H         1 RES1   0.0000
    75 C28     -2.0449  11.0544  16.1140   C.3       1 RES1   0.0000
    76 H27     -1.9260  11.5666  15.2752   H         1 RES1   0.0000
    77 H28     -2.9686  11.2157  16.4351   H         1 RES1   0.0000
    78 C29     -1.0693  11.5842  17.1509   C.3       1 RES1   0.0000
    79 H29     -0.1460  11.4141  16.8373   H         1 RES1   0.0000
    80 H30     -1.1971  11.0831  17.9950   H         1 RES1   0.0000
    81 C30     -1.2294  13.0754  17.4316   C.3       1 RES1   0.0000
    82 H31     -2.1439  13.2378  17.7749   H         1 RES1   0.0000
    83 H32     -1.1370  13.5718  16.5790   H         1 RES1   0.0000
    84 C31     -0.2226  13.6333  18.4353   C.3       1 RES1   0.0000
    85 H33      0.6935  13.4804  18.0924   H         1 RES1   0.0000
    86 H34     -0.3113  13.1404  19.2904   H         1 RES1   0.0000
    87 C32     -0.4117  15.1285  18.7005   C.3       1 RES1   0.0000
    88 H35     -0.2929  15.6168  17.8469   H         1 RES1   0.0000
    89 H36     -1.3416  15.2781  19.0025   H         1 RES1   0.0000
    90 C33      0.5334  15.7231  19.7331   C.3       1 RES1   0.0000
    91 H37      1.4656  15.6238  19.4131   H         1 RES1   0.0000
    92 H38      0.4477  15.2172  20.5793   H         1 RES1   0.0000
    93 C34      0.2553  17.2037  20.0062   C.3       1 RES1   0.0000
    94 H39      0.3650  17.7114  19.1634   H         1 RES1   0.0000
    95 H40     -0.6852  17.3057  20.3000   H         1 RES1   0.0000
    96 C35      1.1715  17.8046  21.0681   C.3       1 RES1   0.0000
    97 H41      2.1055  17.7655  20.7402   H         1 RES1   0.0000
    98 H42      1.1177  17.2482  21.8853   H         1 RES1   0.0000
    99 C36      0.8433  19.2478  21.4372   C.3       1 RES1   0.0000
   100 H43      0.8817  19.8079  20.6217   H         1 RES1   0.0000
   101 H44     -0.0805  19.2900  21.7900   H         1 RES1   0.0000
   102 C37      1.8002  19.8168  22.4775   C.3       1 RES1   0.0000
   103 H45      2.7236  19.7547  22.1266   H         1 RES1   0.0000
   104 H46      1.7521  19.2554  23.2928   H         1 RES1   0.0000
   105 C38      1.5208  21.2701  22.8665   C.3       1 RES1   0.0000
   106 H47      1.5280  21.8325  22.0525   H         1 RES1   0.0000
   107 H48      0.6188  21.3325  23.2695   H         1 RES1   0.0000
   108 C39      2.5482  21.8048  23.8528   C.3       1 RES1   0.0000
   109 H49      3.4450  21.7624  23.4367   H         1 RES1   0.0000
   110 H50      2.5596  21.2213  24.6516   H         1 RES1   0.0000
   111 C40      2.2758  23.2389  24.2939   C.3       1 RES1   0.0000
   112 H51      2.9887  23.5357  24.8971   H         1 RES1   0.0000
   113 H52      1.4145  23.2794  24.7596   H         1 RES1   0.0000
   114 H53      2.2490  23.8221  23.5066   H         1 RES1   0.0000
   115 C41      0.4943   6.1647   7.5820   C.3       1 RES1   0.0000
   116 H54      1.3541   5.9000   7.1688   H         1 RES1   0.0000
   117 H55      0.3149   5.5350   8.3244   H         1 RES1   0.0000
   118 C42     -0.6074   6.0077   6.5431   C.3       1 RES1   0.0000
   119 H56     -0.4633   6.6505   5.8036   H         1 RES1   0.0000
   120 H57     -1.4858   6.2021   6.9550   H         1 RES1   0.0000
   121 C43     -0.6000   4.5809   5.9945   C.3       1 RES1   0.0000
   122 H58      0.2866   4.4040   5.5898   H         1 RES1   0.0000
   123 H59     -0.7108   3.9515   6.7518   H         1 RES1   0.0000
   124 C44     -1.6672   4.2836   4.9631   C.3       1 RES1   0.0000
   125 H60     -1.6154   4.9488   4.2331   H         1 RES1   0.0000
   126 H61     -2.5612   4.3570   5.3824   H         1 RES1   0.0000
   127 C45     -1.4871   2.8851   4.3908   C.3       1 RES1   0.0000
   128 H62     -0.5987   2.8412   3.9537   H         1 RES1   0.0000
   129 H63     -1.4790   2.2404   5.1432   H         1 RES1   0.0000
   130 C46     -2.5348   2.4316   3.3852   C.3       1 RES1   0.0000
   131 H64     -2.5051   3.0208   2.5907   H         1 RES1   0.0000
   132 H65     -3.4356   2.5113   3.7908   H         1 RES1   0.0000
   133 C47     -2.2982   0.9864   2.9547   C.3       1 RES1   0.0000
   134 H66     -1.3845   0.9177   2.5759   H         1 RES1   0.0000
   135 H67     -2.3304   0.4112   3.7590   H         1 RES1   0.0000
   136 C48     -3.2868   0.4382   1.9299   C.3       1 RES1   0.0000
   137 H68     -4.2049   0.5201   2.2901   H         1 RES1   0.0000
   138 H69     -3.2338   0.9842   1.1048   H         1 RES1   0.0000
   139 C49     -3.0164  -1.0173   1.5813   C.3       1 RES1   0.0000
   140 H70     -2.0907  -1.0931   1.2403   H         1 RES1   0.0000
   141 H71     -3.0731  -1.5561   2.4108   H         1 RES1   0.0000
   142 C50     -3.9623  -1.6113   0.5518   C.3       1 RES1   0.0000
   143 H72     -3.8821  -1.0978  -0.2921   H         1 RES1   0.0000
   144 H73     -4.8921  -1.5132   0.8763   H         1 RES1   0.0000
   145 C51     -3.6929  -3.0834   0.2618   C.3       1 RES1   0.0000
   146 H74     -2.7669  -3.1753  -0.0762   H         1 RES1   0.0000
   147 H75     -3.7538  -3.5901   1.1112   H         1 RES1   0.0000
   148 C52     -4.6420  -3.7083  -0.7448   C.3       1 RES1   0.0000
   149 H76     -4.5515  -3.2376  -1.6107   H         1 RES1   0.0000
   150 H77     -5.5719  -3.5898  -0.4297   H         1 RES1   0.0000
   151 C53     -4.3728  -5.1967  -0.9567   C.3       1 RES1   0.0000
   152 H78     -3.4448  -5.3050  -1.2848   H         1 RES1   0.0000
   153 H79     -4.4353  -5.6550  -0.0804   H         1 RES1   0.0000
   154 C54     -5.3081  -5.8861  -1.9282   C.3       1 RES1   0.0000
   155 H80     -5.2234  -5.4664  -2.8214   H         1 RES1   0.0000
   156 H81     -6.2429  -5.7718  -1.6234   H         1 RES1   0.0000
   157 C55     -4.9872  -7.3800  -2.0340   C.3       1 RES1   0.0000
   158 H82     -4.0332  -7.4854  -2.2774   H         1 RES1   0.0000
   159 H83     -5.1211  -7.7995  -1.1472   H         1 RES1   0.0000
   160 C56     -5.8352  -8.1171  -3.0563   C.3       1 RES1   0.0000
   161 H84     -6.7839  -7.9752  -2.8574   H         1 RES1   0.0000
   162 H85     -5.6327  -9.0748  -3.0203   H         1 RES1   0.0000
   163 H86     -5.6359  -7.7765  -3.9537   H         1 RES1   0.0000
@<TRIPOS>BOND
     1     1     3    1
     2     2     3    1
     3     4     2    2
     4     5     2    2
     5     6     7    1
     6     7     1    1
     7     8     6    2
     8     9     6    2
     9    10     1    1
    10    11     1    1
    11    12    11    1
    12    13    37   ar
    13    14    15    1
    14    15    16    1
    15    17    15    1
    16    18     1    1
    17    19     1    1
    18    20    19    1
    19    21    57   ar
    20    22    23    1
    21    23    24    1
    22    25    23    1
    23    26    10   ar
    24    27    26    1
    25    28    26   ar
    26    29    28    1
    27    30    28   ar
    28    31    30    1
    29    32    30   ar
    30    33    32    1
    31    34    10   ar
    32    35    11    2
    33    36    12    2
    34    37    36    1
    35    38    37   ar
    36    39    38    1
    37    40    38   ar
    38    41    40    1
    39    42    40   ar
    40    43    42    1
    41    44    13   ar
    42    45    44    1
    43    46    18   ar
    44    47    46    1
    45    48    46   ar
    46    49    48    1
    47    50    48   ar
    48    51    50    1
    49    52    50   ar
    50    53    52    1
    51    54    18   ar
    52    55    19    2
    53    56    20    2
    54    57    56    1
    55    58    57   ar
    56    59    58    1
    57    60    58   ar
    58    61    60    1
    59    62    60   ar
    60    63    62    1
    61    64    21   ar
    62    65    64    1
    63    66     2    1
    64    67    66    1
    65    68    66    1
    66    69    66    1
    67    70    69    1
    68    71    69    1
    69    72    69    1
    70    73    72    1
    71    74    72    1
    72    75    72    1
    73    76    75    1
    74    77    75    1
    75    78    75    1
    76    79    78    1
    77    80    78    1
    78    81    78    1
    79    82    81    1
    80    83    81    1
    81    84    81    1
    82    85    84    1
    83    86    84    1
    84    87    84    1
    85    88    87    1
    86    89    87    1
    87    90    87    1
    88    91    90    1
    89    92    90    1
    90    93    90    1
    91    94    93    1
    92    95    93    1
    93    96    93    1
    94    97    96    1
    95    98    96    1
    96    99    96    1
    97   100    99    1
    98   101    99    1
    99   102    99    1
   100   103   102    1
   101   104   102    1
   102   105   102    1
   103   106   105    1
   104   107   105    1
   105   108   105    1
   106   109   108    1
   107   110   108    1
   108   111   108    1
   109   112   111    1
   110   113   111    1
   111   114   111    1
   112   115     6    1
   113   116   115    1
   114   117   115    1
   115   118   115    1
   116   119   118    1
   117   120   118    1
   118   121   118    1
   119   122   121    1
   120   123   121    1
   121   124   121    1
   122   125   124    1
   123   126   124    1
   124   127   124    1
   125   128   127    1
   126   129   127    1
   127   130   127    1
   128   131   130    1
   129   132   130    1
   130   133   130    1
   131   134   133    1
   132   135   133    1
   133   136   133    1
   134   137   136    1
   135   138   136    1
   136   139   136    1
   137   140   139    1
   138   141   139    1
   139   142   139    1
   140   143   142    1
   141   144   142    1
   142   145   142    1
   143   146   145    1
   144   147   145    1
   145   148   145    1
   146   149   148    1
   147   150   148    1
   148   151   148    1
   149   152   151    1
   150   153   151    1
   151   154   151    1
   152   155   154    1
   153   156   154    1
   154   157   154    1
   155   158   157    1
   156   159   157    1
   157   160   157    1
   158   161   160    1
   159   162   160    1
   160   163   160    1
   161    14    35    1
   162    14    36    1
   163    22    55    1
   164    22    56    1
   165    32    34   ar
   166    34    35    1
   167    42    44   ar
   168    52    54   ar
   169    54    55    1
   170    62    64   ar
@<TRIPOS>SUBSTRUCTURE
     1 RES1        1 GROUP             0 ****  ****    0  
@<TRIPOS>CRYSIN
   10.0978   14.2697   22.0872  102.0470   97.9820  104.0350     2     1
