@<TRIPOS>MOLECULE
NAKFUE
    90    93     3     0     0
SMALL
USER_CHARGES
****
Generated from the CSD

@<TRIPOS>ATOM
     1 Fe1     -0.0000   6.1539  23.2253   Fe        1 RES1   2.0000
     2 C1       2.8651   6.5050  21.7675   C.2       1 RES1   0.0000
     3 H1       3.0514   7.3816  22.0829   H         1 RES1   0.0000
     4 O1       6.4056   6.7083  18.9094   O.3       1 RES1   0.0000
     5 H2       6.4667   6.9139  18.1088   H         1 RES1   0.0000
     6 N1       3.6765   5.7604  21.0348   N.pl3     1 RES1   0.0000
     7 N2       3.0684   4.5869  20.7948   N.2       1 RES1   0.0000
     8 C2       5.0501   5.9732  20.6150   C.3       1 RES1   0.0000
     9 H3       5.5355   5.1110  20.6489   H         1 RES1   0.0000
    10 H4       5.4895   6.5932  21.2496   H         1 RES1   0.0000
    11 O2       4.2045   6.7781  18.5251   O.2       1 RES1   0.0000
    12 C3       5.1515   6.5400  19.2243   C.2       1 RES1   0.0000
    13 N3       1.9191   4.6336  21.3665   N.2       1 RES1   0.0000
    14 N4       1.7597   5.8316  21.9866   N.2       1 RES1   0.0000
    15 C1A     -1.7367   8.4596  21.7675   C.2       1 RES1   0.0000
    16 H1A     -2.5889   8.1826  22.0829   H         1 RES1   0.0000
    17 O1A     -3.6829  11.4240  18.9094   O.3       1 RES1   0.0000
    18 H2A     -3.8915  11.3742  18.1088   H         1 RES1   0.0000
    19 N1A     -1.4975   9.5346  21.0348   N.pl3     1 RES1   0.0000
    20 N2A     -0.1771   9.5947  20.7948   N.2       1 RES1   0.0000
    21 C2A     -2.3685  10.6177  20.6150   C.3       1 RES1   0.0000
    22 H3A     -1.8646  11.4691  20.6489   H         1 RES1   0.0000
    23 H4A     -3.1252  10.6882  21.2496   H         1 RES1   0.0000
    24 O2A     -2.6428   9.4830  18.5251   O.2       1 RES1   0.0000
    25 C3A     -2.9102  10.4221  19.2243   C.2       1 RES1   0.0000
    26 N3A      0.3571   8.5760  21.3665   N.2       1 RES1   0.0000
    27 N4A     -0.6008   7.8389  21.9866   N.2       1 RES1   0.0000
    28 C1B     -1.1284   3.4970  21.7675   C.2       1 RES1   0.0000
    29 H1B     -0.4625   2.8974  22.0829   H         1 RES1   0.0000
    30 O1B     -2.7226   0.3293  18.9094   O.3       1 RES1   0.0000
    31 H2B     -2.5752   0.1735  18.1088   H         1 RES1   0.0000
    32 N1B     -2.1790   3.1666  21.0348   N.pl3     1 RES1   0.0000
    33 N2B     -2.8913   4.2800  20.7948   N.2       1 RES1   0.0000
    34 C2B     -2.6815   1.8707  20.6150   C.3       1 RES1   0.0000
    35 H3B     -3.6709   1.8814  20.6489   H         1 RES1   0.0000
    36 H4B     -2.3642   1.1802  21.2496   H         1 RES1   0.0000
    37 O2B     -1.5617   2.2005  18.5251   O.2       1 RES1   0.0000
    38 C3B     -2.2413   1.4994  19.2243   C.2       1 RES1   0.0000
    39 N3B     -2.2761   5.2520  21.3665   N.2       1 RES1   0.0000
    40 N4B     -1.1589   4.7911  21.9866   N.2       1 RES1   0.0000
    41 C1O     -2.8651   5.8027  24.6832   C.2       1 RES1   0.0000
    42 H1O     -3.0514   4.9262  24.3677   H         1 RES1   0.0000
    43 O1O     -6.4056   5.5994  27.5413   O.3       1 RES1   0.0000
    44 H2O     -6.4667   5.3939  28.3419   H         1 RES1   0.0000
    45 N1O     -3.6765   6.5473  25.4158   N.pl3     1 RES1   0.0000
    46 N2O     -3.0684   7.7208  25.6559   N.2       1 RES1   0.0000
    47 C2O     -5.0501   6.3346  25.8356   C.3       1 RES1   0.0000
    48 H3O     -5.5355   7.1967  25.8018   H         1 RES1   0.0000
    49 H4O     -5.4895   5.7145  25.2011   H         1 RES1   0.0000
    50 O2O     -4.2045   5.5296  27.9256   O.2       1 RES1   0.0000
    51 C3O     -5.1515   5.7677  27.2264   C.2       1 RES1   0.0000
    52 N3O     -1.9191   7.6741  25.0842   N.2       1 RES1   0.0000
    53 N4O     -1.7597   6.4761  24.4641   N.2       1 RES1   0.0000
    54 C1P      1.7367   3.8482  24.6832   C.2       1 RES1   0.0000
    55 H1P      2.5889   4.1251  24.3677   H         1 RES1   0.0000
    56 O1P      3.6829   0.8837  27.5413   O.3       1 RES1   0.0000
    57 H2P      3.8915   0.9335  28.3419   H         1 RES1   0.0000
    58 N1P      1.4975   2.7731  25.4158   N.pl3     1 RES1   0.0000
    59 N2P      0.1771   2.7131  25.6559   N.2       1 RES1   0.0000
    60 C2P      2.3685   1.6900  25.8356   C.3       1 RES1   0.0000
    61 H3P      1.8646   0.8386  25.8018   H         1 RES1   0.0000
    62 H4P      3.1252   1.6195  25.2011   H         1 RES1   0.0000
    63 O2P      2.6428   2.8247  27.9256   O.2       1 RES1   0.0000
    64 C3P      2.9102   1.8856  27.2264   C.2       1 RES1   0.0000
    65 N3P     -0.3571   3.7318  25.0842   N.2       1 RES1   0.0000
    66 N4P      0.6008   4.4688  24.4641   N.2       1 RES1   0.0000
    67 C1Q      1.1284   8.8107  24.6832   C.2       1 RES1   0.0000
    68 H1Q      0.4625   9.4103  24.3677   H         1 RES1   0.0000
    69 O1Q      2.7226  11.9785  27.5413   O.3       1 RES1   0.0000
    70 H2Q      2.5752  12.1342  28.3419   H         1 RES1   0.0000
    71 N1Q      2.1790   9.1411  25.4158   N.pl3     1 RES1   0.0000
    72 N2Q      2.8913   8.0277  25.6559   N.2       1 RES1   0.0000
    73 C2Q      2.6815  10.4370  25.8356   C.3       1 RES1   0.0000
    74 H3Q      3.6709  10.4263  25.8018   H         1 RES1   0.0000
    75 H4Q      2.3642  11.1275  25.2011   H         1 RES1   0.0000
    76 O2Q      1.5617  10.1072  27.9256   O.2       1 RES1   0.0000
    77 C3Q      2.2413  10.8083  27.2264   C.2       1 RES1   0.0000
    78 N3Q      2.2761   7.0557  25.0842   N.2       1 RES1   0.0000
    79 N4Q      1.1589   7.5167  24.4641   N.2       1 RES1   0.0000
    80 B1       5.3294   3.0769  23.8065   B         2 RES2  -1.0000
    81 F1       5.3294   3.0769  25.1955   F         2 RES2   0.0000
    82 F2       4.7579   4.2539  23.3700   F         2 RES2   0.0000
    83 F2A      4.5959   1.9935  23.3700   F         2 RES2   0.0000
    84 F2B      6.6345   2.9834  23.3700   F         2 RES2   0.0000
    85 C4       5.3294   3.0769  17.5761   C.1       3 RES3   0.0000
    86 N5       5.3294   3.0769  18.6798   N.1       3 RES3   0.0000
    87 C5       5.3294   3.0769  16.2101   C.3       3 RES3   0.0000
    88 H5       4.7218   3.6739  15.7781   H         3 RES3   0.0000
    89 H5A      5.1162   2.2523  15.7781   H         3 RES3   0.0000
    90 H5B      6.1501   3.3046  15.7781   H         3 RES3   0.0000
@<TRIPOS>BOND
     1     1    14    1
     2     2     3    1
     3     4     5    1
     4     6     2    1
     5     7     6    1
     6     8     6    1
     7     9     8    1
     8    10     8    1
     9    11    12    2
    10    12     4    1
    11    13     7    2
    12    14     2    2
    13    15    16    1
    14    17    18    1
    15    19    15    1
    16    20    19    1
    17    21    19    1
    18    22    21    1
    19    23    21    1
    20    24    25    2
    21    25    17    1
    22    26    20    2
    23    27     1    1
    24    28    29    1
    25    30    31    1
    26    32    28    1
    27    33    32    1
    28    34    32    1
    29    35    34    1
    30    36    34    1
    31    37    38    2
    32    38    30    1
    33    39    33    2
    34    40     1    1
    35    41    42    1
    36    43    44    1
    37    45    41    1
    38    46    45    1
    39    47    45    1
    40    48    47    1
    41    49    47    1
    42    50    51    2
    43    51    43    1
    44    52    46    2
    45    53     1    1
    46    54    55    1
    47    56    57    1
    48    58    54    1
    49    59    58    1
    50    60    58    1
    51    61    60    1
    52    62    60    1
    53    63    64    2
    54    64    56    1
    55    65    59    2
    56    66     1    1
    57    67    68    1
    58    69    70    1
    59    71    67    1
    60    72    71    1
    61    73    71    1
    62    74    73    1
    63    75    73    1
    64    76    77    2
    65    77    69    1
    66    78    72    2
    67    79     1    1
    68     8    12    1
    69    13    14    1
    70    15    27    2
    71    21    25    1
    72    26    27    1
    73    28    40    2
    74    34    38    1
    75    39    40    1
    76    41    53    2
    77    47    51    1
    78    52    53    1
    79    54    66    2
    80    60    64    1
    81    65    66    1
    82    67    79    2
    83    73    77    1
    84    78    79    1
    85    80    81    1
    86    82    80    1
    87    83    80    1
    88    84    80    1
    89    85    86    3
    90    87    85    1
    91    88    87    1
    92    89    87    1
    93    90    87    1
@<TRIPOS>SUBSTRUCTURE
     1 RES1        1 GROUP             0 ****  ****    0  
     2 RES2       80 GROUP             0 ****  ****    0  
     3 RES3       85 GROUP             0 ****  ****    0  
@<TRIPOS>CRYSIN
   10.6588   10.6588   34.8380   90.0000   90.0000  120.0000   233     1
