@<TRIPOS>MOLECULE
NAKFUE01
    90    93     3     0     0
SMALL
USER_CHARGES
****
Generated from the CSD

@<TRIPOS>ATOM
     1 Fe1     -0.0000   6.0469  22.9867   Fe        1 RES1   2.0000
     2 C1       2.6964   6.3779  21.6279   C.2       1 RES1   0.0000
     3 H1       2.8840   7.2515  21.9505   H         1 RES1   0.0000
     4 O1       6.2297   6.5866  18.7347   O.3       1 RES1   0.0000
     5 H2       6.2893   6.7755  17.9537   H         1 RES1   0.0000
     6 N1       3.4961   5.6406  20.8673   N.pl3     1 RES1   0.0000
     7 N2       2.8887   4.4633  20.6156   N.2       1 RES1   0.0000
     8 C2       4.8700   5.8574  20.4446   C.3       1 RES1   0.0000
     9 H3       5.3601   4.9984  20.4873   H         1 RES1   0.0000
    10 H4       5.3055   6.4861  21.0731   H         1 RES1   0.0000
    11 O2       4.0172   6.6320  18.3358   O.2       1 RES1   0.0000
    12 C3       4.9715   6.4122  19.0450   C.2       1 RES1   0.0000
    13 N3       1.7485   4.4935  21.2090   N.2       1 RES1   0.0000
    14 N4       1.5960   5.6875  21.8583   N.2       1 RES1   0.0000
    15 C1A     -1.6349   8.2165  21.6279   C.2       1 RES1   0.0000
    16 H1A     -2.4852   7.9422  21.9505   H         1 RES1   0.0000
    17 O1A     -3.5823  11.1721  18.7347   O.3       1 RES1   0.0000
    18 H2A     -3.7757  11.1293  17.9537   H         1 RES1   0.0000
    19 N1A     -1.3962   9.2778  20.8673   N.pl3     1 RES1   0.0000
    20 N2A     -0.0729   9.3403  20.6156   N.2       1 RES1   0.0000
    21 C2A     -2.2709  10.3591  20.4446   C.3       1 RES1   0.0000
    22 H3A     -1.7720  11.2131  20.4873   H         1 RES1   0.0000
    23 H4A     -3.0331  10.4220  21.0731   H         1 RES1   0.0000
    24 O2A     -2.5154   9.2333  18.3358   O.2       1 RES1   0.0000
    25 C3A     -2.8021  10.1696  19.0450   C.2       1 RES1   0.0000
    26 N3A      0.4710   8.3378  21.2090   N.2       1 RES1   0.0000
    27 N4A     -0.4868   7.6087  21.8583   N.2       1 RES1   0.0000
    28 C1B     -1.0615   3.5462  21.6279   C.2       1 RES1   0.0000
    29 H1B     -0.3988   2.9470  21.9505   H         1 RES1   0.0000
    30 O1B     -2.6474   0.3820  18.7347   O.3       1 RES1   0.0000
    31 H2B     -2.5136   0.2358  17.9537   H         1 RES1   0.0000
    32 N1B     -2.0999   3.2223  20.8673   N.pl3     1 RES1   0.0000
    33 N2B     -2.8157   4.3370  20.6156   N.2       1 RES1   0.0000
    34 C2B     -2.5991   1.9241  20.4446   C.3       1 RES1   0.0000
    35 H3B     -3.5881   1.9291  20.4873   H         1 RES1   0.0000
    36 H4B     -2.2724   1.2326  21.0731   H         1 RES1   0.0000
    37 O2B     -1.5018   2.2753  18.3358   O.2       1 RES1   0.0000
    38 C3B     -2.1694   1.5588  19.0450   C.2       1 RES1   0.0000
    39 N3B     -2.2195   5.3093  21.2090   N.2       1 RES1   0.0000
    40 N4B     -1.1092   4.8444  21.8583   N.2       1 RES1   0.0000
    41 C1O     -2.6964   5.7159  24.3454   C.2       1 RES1   0.0000
    42 H1O     -2.8840   4.8423  24.0229   H         1 RES1   0.0000
    43 O1O     -6.2297   5.5072  27.2386   O.3       1 RES1   0.0000
    44 H2O     -6.2893   5.3182  28.0196   H         1 RES1   0.0000
    45 N1O     -3.4961   6.4532  25.1060   N.pl3     1 RES1   0.0000
    46 N2O     -2.8887   7.6304  25.3577   N.2       1 RES1   0.0000
    47 C2O     -4.8700   6.2363  25.5288   C.3       1 RES1   0.0000
    48 H3O     -5.3601   7.0954  25.4860   H         1 RES1   0.0000
    49 H4O     -5.3055   5.6077  24.9002   H         1 RES1   0.0000
    50 O2O     -4.0172   5.4617  27.6376   O.2       1 RES1   0.0000
    51 C3O     -4.9715   5.6816  26.9283   C.2       1 RES1   0.0000
    52 N3O     -1.7485   7.6002  24.7643   N.2       1 RES1   0.0000
    53 N4O     -1.5960   6.4062  24.1151   N.2       1 RES1   0.0000
    54 C1P      1.6349   3.8772  24.3454   C.2       1 RES1   0.0000
    55 H1P      2.4852   4.1516  24.0229   H         1 RES1   0.0000
    56 O1P      3.5823   0.9217  27.2386   O.3       1 RES1   0.0000
    57 H2P      3.7757   0.9645  28.0196   H         1 RES1   0.0000
    58 N1P      1.3962   2.8160  25.1060   N.pl3     1 RES1   0.0000
    59 N2P      0.0729   2.7534  25.3577   N.2       1 RES1   0.0000
    60 C2P      2.2709   1.7346  25.5288   C.3       1 RES1   0.0000
    61 H3P      1.7720   0.8806  25.4860   H         1 RES1   0.0000
    62 H4P      3.0331   1.6718  24.9002   H         1 RES1   0.0000
    63 O2P      2.5154   2.8604  27.6376   O.2       1 RES1   0.0000
    64 C3P      2.8021   1.9241  26.9283   C.2       1 RES1   0.0000
    65 N3P     -0.4710   3.7560  24.7643   N.2       1 RES1   0.0000
    66 N4P      0.4868   4.4850  24.1151   N.2       1 RES1   0.0000
    67 C1Q      1.0615   8.5475  24.3454   C.2       1 RES1   0.0000
    68 H1Q      0.3988   9.1468  24.0229   H         1 RES1   0.0000
    69 O1Q      2.6474  11.7118  27.2386   O.3       1 RES1   0.0000
    70 H2Q      2.5136  11.8579  28.0196   H         1 RES1   0.0000
    71 N1Q      2.0999   8.8714  25.1060   N.pl3     1 RES1   0.0000
    72 N2Q      2.8157   7.7568  25.3577   N.2       1 RES1   0.0000
    73 C2Q      2.5991  10.1697  25.5288   C.3       1 RES1   0.0000
    74 H3Q      3.5881  10.1646  25.4860   H         1 RES1   0.0000
    75 H4Q      2.2724  10.8612  24.9002   H         1 RES1   0.0000
    76 O2Q      1.5018   9.8185  27.6376   O.2       1 RES1   0.0000
    77 C3Q      2.1694  10.5349  26.9283   C.2       1 RES1   0.0000
    78 N3Q      2.2195   6.7844  24.7643   N.2       1 RES1   0.0000
    79 N4Q      1.1092   7.2494  24.1151   N.2       1 RES1   0.0000
    80 B1       5.2368   3.0234  23.5778   B         2 RES2  -1.0000
    81 F1       5.2368   3.0234  24.9694   F         2 RES2   0.0000
    82 F2       4.6269   4.1902  23.1213   F         2 RES2   0.0000
    83 F2A      4.5312   1.9119  23.1213   F         2 RES2   0.0000
    84 F2B      6.5521   2.9682  23.1213   F         2 RES2   0.0000
    85 C4       5.2368   3.0234  17.4317   C.1       3 RES3   0.0000
    86 N5       5.2368   3.0234  18.5527   N.1       3 RES3   0.0000
    87 C5       5.2368   3.0234  15.9904   C.3       3 RES3   0.0000
    88 H5       4.8492   3.8277  15.6608   H         3 RES3   0.0000
    89 H5A      4.7340   2.2857  15.6608   H         3 RES3   0.0000
    90 H5B      6.1270   2.9569  15.6608   H         3 RES3   0.0000
@<TRIPOS>BOND
     1     1    14    1
     2     2     3    1
     3     4     5    1
     4     6     2    1
     5     7     6    1
     6     8     6    1
     7     9     8    1
     8    10     8    1
     9    11    12    2
    10    12     4    1
    11    13     7    2
    12    14     2    2
    13    15    16    1
    14    17    18    1
    15    19    15    1
    16    20    19    1
    17    21    19    1
    18    22    21    1
    19    23    21    1
    20    24    25    2
    21    25    17    1
    22    26    20    2
    23    27     1    1
    24    28    29    1
    25    30    31    1
    26    32    28    1
    27    33    32    1
    28    34    32    1
    29    35    34    1
    30    36    34    1
    31    37    38    2
    32    38    30    1
    33    39    33    2
    34    40     1    1
    35    41    42    1
    36    43    44    1
    37    45    41    1
    38    46    45    1
    39    47    45    1
    40    48    47    1
    41    49    47    1
    42    50    51    2
    43    51    43    1
    44    52    46    2
    45    53     1    1
    46    54    55    1
    47    56    57    1
    48    58    54    1
    49    59    58    1
    50    60    58    1
    51    61    60    1
    52    62    60    1
    53    63    64    2
    54    64    56    1
    55    65    59    2
    56    66     1    1
    57    67    68    1
    58    69    70    1
    59    71    67    1
    60    72    71    1
    61    73    71    1
    62    74    73    1
    63    75    73    1
    64    76    77    2
    65    77    69    1
    66    78    72    2
    67    79     1    1
    68     8    12    1
    69    13    14    1
    70    15    27    2
    71    21    25    1
    72    26    27    1
    73    28    40    2
    74    34    38    1
    75    39    40    1
    76    41    53    2
    77    47    51    1
    78    52    53    1
    79    54    66    2
    80    60    64    1
    81    65    66    1
    82    67    79    2
    83    73    77    1
    84    78    79    1
    85    80    81    1
    86    82    80    1
    87    83    80    1
    88    84    80    1
    89    85    86    3
    90    87    85    1
    91    88    87    1
    92    89    87    1
    93    90    87    1
@<TRIPOS>SUBSTRUCTURE
     1 RES1        1 GROUP             0 ****  ****    0  
     2 RES2       80 GROUP             0 ****  ****    0  
     3 RES3       85 GROUP             0 ****  ****    0  
@<TRIPOS>CRYSIN
   10.4735   10.4735   34.4800   90.0000   90.0000  120.0000   233     1
