@<TRIPOS>MOLECULE
NAKGOZ01
    90    93     3     0     0
SMALL
USER_CHARGES
****
Generated from the CSD

@<TRIPOS>ATOM
     1 Fe1     -0.0000   6.1124  22.8760   Fe        1 RES1   2.0000
     2 C1       2.7023   6.4171  21.4929   C.2       1 RES1   0.0000
     3 H1       2.8875   7.2972  21.7981   H         1 RES1   0.0000
     4 O1       6.2580   6.6509  18.6479   O.3       1 RES1   0.0000
     5 H2       6.3363   6.9040  17.6820   H         1 RES1   0.0000
     6 N1       3.5091   5.6635  20.7442   N.pl3     1 RES1   0.0000
     7 N2       2.9003   4.4789  20.5259   N.2       1 RES1   0.0000
     8 C2       4.8817   5.8734  20.3297   C.3       1 RES1   0.0000
     9 H3       5.3566   5.0052  20.3332   H         1 RES1   0.0000
    10 H4       5.3294   6.4666  20.9841   H         1 RES1   0.0000
    11 O2       4.0453   6.7774  18.2629   O.2       1 RES1   0.0000
    12 C3       4.9881   6.4868  18.9571   C.2       1 RES1   0.0000
    13 N3       1.7564   4.5201  21.1230   N.2       1 RES1   0.0000
    14 N4       1.6045   5.7313  21.7369   N.2       1 RES1   0.0000
    15 C1A     -1.6150   8.3003  21.4929   C.2       1 RES1   0.0000
    16 H1A     -2.4698   8.0206  21.7981   H         1 RES1   0.0000
    17 O1A     -3.5953  11.2627  18.6479   O.3       1 RES1   0.0000
    18 H2A     -3.8537  11.2040  17.6820   H         1 RES1   0.0000
    19 N1A     -1.3657   9.3758  20.7442   N.pl3     1 RES1   0.0000
    20 N2A     -0.0355   9.4409  20.5259   N.2       1 RES1   0.0000
    21 C2A     -2.2339  10.4596  20.3297   C.3       1 RES1   0.0000
    22 H3A     -1.7194  11.3049  20.3332   H         1 RES1   0.0000
    23 H4A     -2.9714  10.5507  20.9841   H         1 RES1   0.0000
    24 O2A     -2.5986   9.2832  18.2629   O.2       1 RES1   0.0000
    25 C3A     -2.8183  10.2450  18.9571   C.2       1 RES1   0.0000
    26 N3A      0.5008   8.4296  21.1230   N.2       1 RES1   0.0000
    27 N4A     -0.4722   7.6925  21.7369   N.2       1 RES1   0.0000
    28 C1B     -1.0873   3.6198  21.4929   C.2       1 RES1   0.0000
    29 H1B     -0.4177   3.0193  21.7981   H         1 RES1   0.0000
    30 O1B     -2.6626   0.4236  18.6479   O.3       1 RES1   0.0000
    31 H2B     -2.4827   0.2292  17.6820   H         1 RES1   0.0000
    32 N1B     -2.1433   3.2979  20.7442   N.pl3     1 RES1   0.0000
    33 N2B     -2.8648   4.4174  20.5259   N.2       1 RES1   0.0000
    34 C2B     -2.6478   2.0043  20.3297   C.3       1 RES1   0.0000
    35 H3B     -3.6372   2.0271  20.3332   H         1 RES1   0.0000
    36 H4B     -2.3580   1.3199  20.9841   H         1 RES1   0.0000
    37 O2B     -1.4467   2.2766  18.2629   O.2       1 RES1   0.0000
    38 C3B     -2.1698   1.6054  18.9571   C.2       1 RES1   0.0000
    39 N3B     -2.2571   5.3875  21.1230   N.2       1 RES1   0.0000
    40 N4B     -1.1323   4.9135  21.7369   N.2       1 RES1   0.0000
    41 C1O     -2.7023   5.8077  24.2591   C.2       1 RES1   0.0000
    42 H1O     -2.8875   4.9276  23.9539   H         1 RES1   0.0000
    43 O1O     -6.2580   5.5739  27.1041   O.3       1 RES1   0.0000
    44 H2O     -6.3363   5.3209  28.0700   H         1 RES1   0.0000
    45 N1O     -3.5091   6.5614  25.0078   N.pl3     1 RES1   0.0000
    46 N2O     -2.9003   7.7459  25.2261   N.2       1 RES1   0.0000
    47 C2O     -4.8817   6.3514  25.4223   C.3       1 RES1   0.0000
    48 H3O     -5.3566   7.2196  25.4188   H         1 RES1   0.0000
    49 H4O     -5.3294   5.7582  24.7679   H         1 RES1   0.0000
    50 O2O     -4.0453   5.4474  27.4891   O.2       1 RES1   0.0000
    51 C3O     -4.9881   5.7380  26.7949   C.2       1 RES1   0.0000
    52 N3O     -1.7564   7.7047  24.6290   N.2       1 RES1   0.0000
    53 N4O     -1.6045   6.4935  24.0151   N.2       1 RES1   0.0000
    54 C1P      1.6150   3.9245  24.2591   C.2       1 RES1   0.0000
    55 H1P      2.4698   4.2042  23.9539   H         1 RES1   0.0000
    56 O1P      3.5953   0.9621  27.1041   O.3       1 RES1   0.0000
    57 H2P      3.8537   1.0208  28.0700   H         1 RES1   0.0000
    58 N1P      1.3657   2.8490  25.0078   N.pl3     1 RES1   0.0000
    59 N2P      0.0355   2.7839  25.2261   N.2       1 RES1   0.0000
    60 C2P      2.2339   1.7653  25.4223   C.3       1 RES1   0.0000
    61 H3P      1.7194   0.9199  25.4188   H         1 RES1   0.0000
    62 H4P      2.9714   1.6741  24.7679   H         1 RES1   0.0000
    63 O2P      2.5986   2.9416  27.4891   O.2       1 RES1   0.0000
    64 C3P      2.8183   1.9798  26.7949   C.2       1 RES1   0.0000
    65 N3P     -0.5008   3.7952  24.6290   N.2       1 RES1   0.0000
    66 N4P      0.4722   4.5324  24.0151   N.2       1 RES1   0.0000
    67 C1Q      1.0873   8.6050  24.2591   C.2       1 RES1   0.0000
    68 H1Q      0.4177   9.2055  23.9539   H         1 RES1   0.0000
    69 O1Q      2.6626  11.8012  27.1041   O.3       1 RES1   0.0000
    70 H2Q      2.4827  11.9956  28.0700   H         1 RES1   0.0000
    71 N1Q      2.1433   8.9269  25.0078   N.pl3     1 RES1   0.0000
    72 N2Q      2.8648   7.8074  25.2261   N.2       1 RES1   0.0000
    73 C2Q      2.6478  10.2206  25.4223   C.3       1 RES1   0.0000
    74 H3Q      3.6372  10.1977  25.4188   H         1 RES1   0.0000
    75 H4Q      2.3580  10.9049  24.7679   H         1 RES1   0.0000
    76 O2Q      1.4467   9.9482  27.4891   O.2       1 RES1   0.0000
    77 C3Q      2.1698  10.6194  26.7949   C.2       1 RES1   0.0000
    78 N3Q      2.2571   6.8373  24.6290   N.2       1 RES1   0.0000
    79 N4Q      1.1323   7.3114  24.0151   N.2       1 RES1   0.0000
    80 Cl1      5.2935   3.0562  23.5041   Cl        2 RES2   0.0000
    81 O3       5.2935   3.0562  24.9425   O.2       2 RES2   0.0000
    82 O4       4.7027   4.2817  23.0278   O.3       2 RES2  -1.0000
    83 O4A      4.5275   1.9318  23.0278   O.2       2 RES2   0.0000
    84 O4B      6.6502   2.9550  23.0278   O.2       2 RES2   0.0000
    85 C4       5.2935   3.0562  17.3148   C.1       3 RES3   0.0000
    86 N5       5.2935   3.0562  18.4318   N.1       3 RES3   0.0000
    87 C5       5.2935   3.0562  16.1413   C.3       3 RES3   0.0000
    88 H5       5.1082   3.7500  15.5237   H         3 RES3   0.0000
    89 H5A      4.7853   2.5489  15.5237   H         3 RES3   0.0000
    90 H5B      5.9869   2.8698  15.5237   H         3 RES3   0.0000
@<TRIPOS>BOND
     1     1    14    1
     2     2     3    1
     3     4     5    1
     4     6     2    1
     5     7     6    1
     6     8     6    1
     7     9     8    1
     8    10     8    1
     9    11    12    2
    10    12     4    1
    11    13     7    2
    12    14     2    2
    13    15    16    1
    14    17    18    1
    15    19    15    1
    16    20    19    1
    17    21    19    1
    18    22    21    1
    19    23    21    1
    20    24    25    2
    21    25    17    1
    22    26    20    2
    23    27     1    1
    24    28    29    1
    25    30    31    1
    26    32    28    1
    27    33    32    1
    28    34    32    1
    29    35    34    1
    30    36    34    1
    31    37    38    2
    32    38    30    1
    33    39    33    2
    34    40     1    1
    35    41    42    1
    36    43    44    1
    37    45    41    1
    38    46    45    1
    39    47    45    1
    40    48    47    1
    41    49    47    1
    42    50    51    2
    43    51    43    1
    44    52    46    2
    45    53     1    1
    46    54    55    1
    47    56    57    1
    48    58    54    1
    49    59    58    1
    50    60    58    1
    51    61    60    1
    52    62    60    1
    53    63    64    2
    54    64    56    1
    55    65    59    2
    56    66     1    1
    57    67    68    1
    58    69    70    1
    59    71    67    1
    60    72    71    1
    61    73    71    1
    62    74    73    1
    63    75    73    1
    64    76    77    2
    65    77    69    1
    66    78    72    2
    67    79     1    1
    68     8    12    1
    69    13    14    1
    70    15    27    2
    71    21    25    1
    72    26    27    1
    73    28    40    2
    74    34    38    1
    75    39    40    1
    76    41    53    2
    77    47    51    1
    78    52    53    1
    79    54    66    2
    80    60    64    1
    81    65    66    1
    82    67    79    2
    83    73    77    1
    84    78    79    1
    85    80    81    2
    86    82    80    1
    87    83    80    2
    88    84    80    2
    89    85    86    3
    90    87    85    1
    91    88    87    1
    92    89    87    1
    93    90    87    1
@<TRIPOS>SUBSTRUCTURE
     1 RES1        1 GROUP             0 ****  ****    0  
     2 RES2       80 GROUP             0 ****  ****    0  
     3 RES3       85 GROUP             0 ****  ****    0  
@<TRIPOS>CRYSIN
   10.5870   10.5870   34.3140   90.0000   90.0000  120.0000   233     1
