@<TRIPOS>MOLECULE
NAKGOZ
    90    93     3     0     0
SMALL
USER_CHARGES
****
Generated from the CSD

@<TRIPOS>ATOM
     1 Fe1     -0.0000   6.2048  23.1260   Fe        1 RES1   2.0000
     2 C1       2.8582   6.5290  21.6463   C.2       1 RES1   0.0000
     3 H1       3.0370   7.4137  21.9430   H         1 RES1   0.0000
     4 O1       6.4197   6.7728  18.8327   O.3       1 RES1   0.0000
     5 H2       6.4858   7.1386  17.9203   H         1 RES1   0.0000
     6 N1       3.6798   5.7742  20.9227   N.pl3     1 RES1   0.0000
     7 N2       3.0699   4.5931  20.7079   N.2       1 RES1   0.0000
     8 C2       5.0495   5.9780  20.5088   C.3       1 RES1   0.0000
     9 H3       5.5180   5.1065  20.5020   H         1 RES1   0.0000
    10 H4       5.5027   6.5609  21.1685   H         1 RES1   0.0000
    11 O2       4.2203   6.8910  18.4497   O.2       1 RES1   0.0000
    12 C3       5.1564   6.6044  19.1445   C.2       1 RES1   0.0000
    13 N3       1.9275   4.6396  21.2845   N.2       1 RES1   0.0000
    14 N4       1.7604   5.8505  21.8825   N.2       1 RES1   0.0000
    15 C1A     -1.7098   8.5179  21.6463   C.2       1 RES1   0.0000
    16 H1A     -2.5654   8.2305  21.9430   H         1 RES1   0.0000
    17 O1A     -3.7018  11.4804  18.8327   O.3       1 RES1   0.0000
    18 H2A     -4.0516  11.3548  17.9203   H         1 RES1   0.0000
    19 N1A     -1.4670   9.6069  20.9227   N.pl3     1 RES1   0.0000
    20 N2A     -0.1392   9.6692  20.7079   N.2       1 RES1   0.0000
    21 C2A     -2.3283  10.6912  20.5088   C.3       1 RES1   0.0000
    22 H3A     -1.8078  11.5327  20.5020   H         1 RES1   0.0000
    23 H4A     -3.0598  10.7922  21.1685   H         1 RES1   0.0000
    24 O2A     -2.7045   9.5166  18.4497   O.2       1 RES1   0.0000
    25 C3A     -2.9243  10.4706  19.1445   C.2       1 RES1   0.0000
    26 N3A      0.3917   8.6566  21.2845   N.2       1 RES1   0.0000
    27 N4A     -0.5734   7.9064  21.8825   N.2       1 RES1   0.0000
    28 C1B     -1.1483   3.5674  21.6463   C.2       1 RES1   0.0000
    29 H1B     -0.4716   2.9702  21.9430   H         1 RES1   0.0000
    30 O1B     -2.7179   0.3611  18.8327   O.3       1 RES1   0.0000
    31 H2B     -2.4342   0.1210  17.9203   H         1 RES1   0.0000
    32 N1B     -2.2128   3.2333  20.9227   N.pl3     1 RES1   0.0000
    33 N2B     -2.9307   4.3520  20.7079   N.2       1 RES1   0.0000
    34 C2B     -2.7211   1.9452  20.5088   C.3       1 RES1   0.0000
    35 H3B     -3.7102   1.9752  20.5020   H         1 RES1   0.0000
    36 H4B     -2.4429   1.2612  21.1685   H         1 RES1   0.0000
    37 O2B     -1.5159   2.2067  18.4497   O.2       1 RES1   0.0000
    38 C3B     -2.2322   1.5394  19.1445   C.2       1 RES1   0.0000
    39 N3B     -2.3192   5.3181  21.2845   N.2       1 RES1   0.0000
    40 N4B     -1.1870   4.8574  21.8825   N.2       1 RES1   0.0000
    41 C1O     -2.8582   5.8806  24.6057   C.2       1 RES1   0.0000
    42 H1O     -3.0370   4.9959  24.3090   H         1 RES1   0.0000
    43 O1O     -6.4197   5.6367  27.4193   O.3       1 RES1   0.0000
    44 H2O     -6.4858   5.2710  28.3317   H         1 RES1   0.0000
    45 N1O     -3.6798   6.6354  25.3293   N.pl3     1 RES1   0.0000
    46 N2O     -3.0699   7.8165  25.5441   N.2       1 RES1   0.0000
    47 C2O     -5.0495   6.4316  25.7432   C.3       1 RES1   0.0000
    48 H3O     -5.5180   7.3031  25.7500   H         1 RES1   0.0000
    49 H4O     -5.5027   5.8486  25.0835   H         1 RES1   0.0000
    50 O2O     -4.2203   5.5185  27.8023   O.2       1 RES1   0.0000
    51 C3O     -5.1564   5.8052  27.1075   C.2       1 RES1   0.0000
    52 N3O     -1.9275   7.7699  24.9675   N.2       1 RES1   0.0000
    53 N4O     -1.7604   6.5591  24.3695   N.2       1 RES1   0.0000
    54 C1P      1.7098   3.8916  24.6057   C.2       1 RES1   0.0000
    55 H1P      2.5654   4.1791  24.3090   H         1 RES1   0.0000
    56 O1P      3.7018   0.9292  27.4193   O.3       1 RES1   0.0000
    57 H2P      4.0516   1.0548  28.3317   H         1 RES1   0.0000
    58 N1P      1.4670   2.8027  25.3293   N.pl3     1 RES1   0.0000
    59 N2P      0.1392   2.7403  25.5441   N.2       1 RES1   0.0000
    60 C2P      2.3283   1.7184  25.7432   C.3       1 RES1   0.0000
    61 H3P      1.8078   0.8769  25.7500   H         1 RES1   0.0000
    62 H4P      3.0598   1.6174  25.0835   H         1 RES1   0.0000
    63 O2P      2.7045   2.8930  27.8023   O.2       1 RES1   0.0000
    64 C3P      2.9243   1.9390  27.1075   C.2       1 RES1   0.0000
    65 N3P     -0.3917   3.7530  24.9675   N.2       1 RES1   0.0000
    66 N4P      0.5734   4.5031  24.3695   N.2       1 RES1   0.0000
    67 C1Q      1.1483   8.8421  24.6057   C.2       1 RES1   0.0000
    68 H1Q      0.4716   9.4394  24.3090   H         1 RES1   0.0000
    69 O1Q      2.7179  12.0484  27.4193   O.3       1 RES1   0.0000
    70 H2Q      2.4342  12.2886  28.3317   H         1 RES1   0.0000
    71 N1Q      2.2128   9.1763  25.3293   N.pl3     1 RES1   0.0000
    72 N2Q      2.9307   8.0575  25.5441   N.2       1 RES1   0.0000
    73 C2Q      2.7211  10.4644  25.7432   C.3       1 RES1   0.0000
    74 H3Q      3.7102  10.4344  25.7500   H         1 RES1   0.0000
    75 H4Q      2.4429  11.1484  25.0835   H         1 RES1   0.0000
    76 O2Q      1.5159  10.2028  27.8023   O.2       1 RES1   0.0000
    77 C3Q      2.2322  10.8702  27.1075   C.2       1 RES1   0.0000
    78 N3Q      2.3192   7.0914  24.9675   N.2       1 RES1   0.0000
    79 N4Q      1.1870   7.5522  24.3695   N.2       1 RES1   0.0000
    80 Cl1      5.3735   3.1024  23.7307   Cl        2 RES2   0.0000
    81 O3       5.3735   3.1024  25.1637   O.3       2 RES2  -1.0000
    82 O4       4.8319   4.3390  23.2704   O.2       2 RES2   0.0000
    83 O4A      4.5734   2.0150  23.2704   O.2       2 RES2   0.0000
    84 O4B      6.7153   2.9532  23.2704   O.2       2 RES2   0.0000
    85 C4       5.3735   3.1024  17.4937   C.1       3 RES3   0.0000
    86 N5       5.3735   3.1024  18.5794   N.1       3 RES3   0.0000
    87 C5       5.3735   3.1024  16.4183   C.3       3 RES3   0.0000
    88 H5       5.2714   3.8997  15.9049   H         3 RES3   0.0000
    89 H5A      4.7341   2.6153  15.9049   H         3 RES3   0.0000
    90 H5B      6.1150   2.7922  15.9049   H         3 RES3   0.0000
@<TRIPOS>BOND
     1     1    14    1
     2     2     3    1
     3     4     5    1
     4     6     2    1
     5     7     6    1
     6     8     6    1
     7     9     8    1
     8    10     8    1
     9    11    12    2
    10    12     4    1
    11    13     7    2
    12    14     2    2
    13    15    16    1
    14    17    18    1
    15    19    15    1
    16    20    19    1
    17    21    19    1
    18    22    21    1
    19    23    21    1
    20    24    25    2
    21    25    17    1
    22    26    20    2
    23    27     1    1
    24    28    29    1
    25    30    31    1
    26    32    28    1
    27    33    32    1
    28    34    32    1
    29    35    34    1
    30    36    34    1
    31    37    38    2
    32    38    30    1
    33    39    33    2
    34    40     1    1
    35    41    42    1
    36    43    44    1
    37    45    41    1
    38    46    45    1
    39    47    45    1
    40    48    47    1
    41    49    47    1
    42    50    51    2
    43    51    43    1
    44    52    46    2
    45    53     1    1
    46    54    55    1
    47    56    57    1
    48    58    54    1
    49    59    58    1
    50    60    58    1
    51    61    60    1
    52    62    60    1
    53    63    64    2
    54    64    56    1
    55    65    59    2
    56    66     1    1
    57    67    68    1
    58    69    70    1
    59    71    67    1
    60    72    71    1
    61    73    71    1
    62    74    73    1
    63    75    73    1
    64    76    77    2
    65    77    69    1
    66    78    72    2
    67    79     1    1
    68     8    12    1
    69    13    14    1
    70    15    27    2
    71    21    25    1
    72    26    27    1
    73    28    40    2
    74    34    38    1
    75    39    40    1
    76    41    53    2
    77    47    51    1
    78    52    53    1
    79    54    66    2
    80    60    64    1
    81    65    66    1
    82    67    79    2
    83    73    77    1
    84    78    79    1
    85    80    81    1
    86    82    80    2
    87    83    80    2
    88    84    80    2
    89    85    86    3
    90    87    85    1
    91    88    87    1
    92    89    87    1
    93    90    87    1
@<TRIPOS>SUBSTRUCTURE
     1 RES1        1 GROUP             0 ****  ****    0  
     2 RES2       80 GROUP             0 ****  ****    0  
     3 RES3       85 GROUP             0 ****  ****    0  
@<TRIPOS>CRYSIN
   10.7470   10.7470   34.6890   90.0000   90.0000  120.0000   233     1
