@<TRIPOS>MOLECULE
NALPUL
   113   123     1     0     0
SMALL
NO_CHARGES
****
Generated from the CSD

@<TRIPOS>ATOM
     1 Fe1     -4.3479  -5.7291   4.6207   Fe        1 RES1   0.0000
     2 N1      -4.4462  -3.9207   5.1212   N.2       1 RES1   0.0000
     3 N2      -4.2640  -5.9422   6.4806   N.2       1 RES1   0.0000
     4 N3      -4.2503  -7.5356   4.1284   N.2       1 RES1   0.0000
     5 N4      -4.2635  -5.5172   2.7419   N.2       1 RES1   0.0000
     6 O1      -4.4301  -2.8746   4.2486   O.3       1 RES1   0.0000
     7 O2      -3.9458  -7.1347   7.0933   O.3       1 RES1   0.0000
     8 O3      -4.1357  -8.5817   4.9932   O.3       1 RES1   0.0000
     9 O4      -4.1311  -4.3013   2.1175   O.3       1 RES1   0.0000
    10 C1      -4.4429  -3.6486   6.3817   C.2       1 RES1   0.0000
    11 C2      -4.2890  -4.8710   7.2155   C.2       1 RES1   0.0000
    12 C3      -4.1319  -7.8143   2.8583   C.2       1 RES1   0.0000
    13 C4      -4.1329  -6.5939   2.0361   C.2       1 RES1   0.0000
    14 C5      -4.5720  -2.2883   6.9498   C.3       1 RES1   0.0000
    15 H1      -4.6652  -1.6548   6.2343   H         1 RES1   0.0000
    16 H2      -5.3467  -2.2473   7.5160   H         1 RES1   0.0000
    17 H3      -3.7889  -2.0790   7.4637   H         1 RES1   0.0000
    18 C6      -4.1017  -4.8332   8.6718   C.3       1 RES1   0.0000
    19 H4      -4.0174  -5.7308   9.0014   H         1 RES1   0.0000
    20 H5      -3.3091  -4.3373   8.8870   H         1 RES1   0.0000
    21 H6      -4.8638  -4.4134   9.0770   H         1 RES1   0.0000
    22 C7      -3.9566  -9.1918   2.3328   C.3       1 RES1   0.0000
    23 H7      -4.0035  -9.8187   3.0580   H         1 RES1   0.0000
    24 H8      -4.6446  -9.3919   1.6929   H         1 RES1   0.0000
    25 H9      -3.0975  -9.2564   1.9081   H         1 RES1   0.0000
    26 C8      -3.9505  -6.6083   0.5488   C.3       1 RES1   0.0000
    27 H10     -3.9767  -5.7123   0.2055   H         1 RES1   0.0000
    28 H11     -3.1019  -7.0064   0.3393   H         1 RES1   0.0000
    29 H12     -4.6531  -7.1249   0.1493   H         1 RES1   0.0000
    30 B1      -4.7656  -3.0910   2.7943   B         1 RES1   0.0000
    31 B2      -4.5014  -8.3906   6.4941   B         1 RES1   0.0000
    32 C9      -6.3960  -3.1564   2.5732   C.ar      1 RES1   0.0000
    33 C10     -7.2983  -2.6333   3.4865   C.ar      1 RES1   0.0000
    34 H13     -6.9585  -2.2902   4.3165   H         1 RES1   0.0000
    35 C11     -8.6484  -2.5933   3.2267   C.ar      1 RES1   0.0000
    36 H14     -9.2508  -2.2253   3.8782   H         1 RES1   0.0000
    37 C12     -9.1550  -3.0698   2.0671   C.ar      1 RES1   0.0000
    38 H15    -10.0982  -3.0366   1.8965   H         1 RES1   0.0000
    39 C13     -8.3116  -3.6083   1.1344   C.ar      1 RES1   0.0000
    40 H16     -8.6540  -3.9458   0.3025   H         1 RES1   0.0000
    41 C14     -6.9457  -3.6575   1.3942   C.ar      1 RES1   0.0000
    42 H17     -6.3482  -4.0500   0.7543   H         1 RES1   0.0000
    43 C15     -6.0872  -8.5137   6.6997   C.ar      1 RES1   0.0000
    44 C16     -6.6792  -8.0925   7.8825   C.ar      1 RES1   0.0000
    45 H18     -6.1292  -7.6498   8.5341   H         1 RES1   0.0000
    46 C17     -8.0203  -8.2718   8.1269   C.ar      1 RES1   0.0000
    47 H19     -8.3886  -7.9855   8.9665   H         1 RES1   0.0000
    48 C18     -8.8270  -8.8758   7.2058   C.ar      1 RES1   0.0000
    49 H20     -9.7666  -8.9878   7.3687   H         1 RES1   0.0000
    50 C19     -8.2732  -9.2832   6.0287   C.ar      1 RES1   0.0000
    51 H21     -8.8305  -9.7136   5.3772   H         1 RES1   0.0000
    52 C20     -6.9283  -9.1269   5.7863   C.ar      1 RES1   0.0000
    53 H22     -6.5607  -9.4332   4.9525   H         1 RES1   0.0000
    54 C21     -3.6601  -9.5910   7.1767   C.ar      1 RES1   0.0000
    55 C22     -2.9882  -9.4320   8.3363   C.ar      1 RES1   0.0000
    56 H23     -3.0585  -8.5866   8.7862   H         1 RES1   0.0000
    57 C23     -2.2105 -10.4671   8.8870   C.ar      1 RES1   0.0000
    58 H24     -1.7401 -10.3247   9.7131   H         1 RES1   0.0000
    59 C24     -2.1247 -11.6596   8.2684   C.ar      1 RES1   0.0000
    60 H25     -1.5862 -12.3673   8.6310   H         1 RES1   0.0000
    61 C25     -2.7803 -11.8339   7.1515   C.ar      1 RES1   0.0000
    62 H26     -2.7018 -12.6757   6.6958   H         1 RES1   0.0000
    63 C26     -3.5722 -10.8347   6.5891   C.ar      1 RES1   0.0000
    64 H27     -4.0777 -11.0036   5.7902   H         1 RES1   0.0000
    65 C27     -4.0912  -1.8151   2.0497   C.ar      1 RES1   0.0000
    66 C28     -4.4647  -1.3515   0.8067   C.ar      1 RES1   0.0000
    67 H28     -5.1735  -1.8144   0.3510   H         1 RES1   0.0000
    68 C29     -3.8780  -0.2634   0.1862   C.ar      1 RES1   0.0000
    69 H29     -4.1887   0.0240  -0.6748   H         1 RES1   0.0000
    70 C30     -2.8514   0.3936   0.7892   C.ar      1 RES1   0.0000
    71 H30     -2.4379   1.1409   0.3529   H         1 RES1   0.0000
    72 C31     -2.4500  -0.0082   2.0109   C.ar      1 RES1   0.0000
    73 H31     -1.7271   0.4511   2.4452   H         1 RES1   0.0000
    74 C32     -3.0524  -1.0957   2.6411   C.ar      1 RES1   0.0000
    75 H32     -2.7695  -1.3559   3.5195   H         1 RES1   0.0000
    76 N5      -6.3994  -5.8407   4.6268   N.ar      1 RES1   0.0000
    77 C33     -7.0723  -6.3515   3.5990   C.ar      1 RES1   0.0000
    78 H33     -6.5744  -6.6339   2.8272   H         1 RES1   0.0000
    79 C34     -8.4354  -6.4739   3.5816   C.ar      1 RES1   0.0000
    80 H34     -8.8825  -6.8602   2.8234   H         1 RES1   0.0000
    81 C35     -9.1519  -6.0494   4.6733   C.ar      1 RES1   0.0000
    82 H35    -10.1097  -6.1170   4.6849   H         1 RES1   0.0000
    83 C36     -8.4882  -5.5360   5.7262   C.ar      1 RES1   0.0000
    84 H36     -8.9643  -5.2310   6.5019   H         1 RES1   0.0000
    85 C37     -7.1115  -5.4364   5.6855   C.ar      1 RES1   0.0000
    86 H37     -6.6380  -5.0813   6.4418   H         1 RES1   0.0000
    87 P1      -2.0574  -5.5486   4.5678   P.3       1 RES1   0.0000
    88 C38     -1.2842  -4.8529   6.0636   C.ar      1 RES1   0.0000
    89 C39     -1.3362  -3.4628   6.2420   C.ar      1 RES1   0.0000
    90 H38     -1.7549  -2.9320   5.5595   H         1 RES1   0.0000
    91 C40     -0.8069  -2.8980   7.3648   C.ar      1 RES1   0.0000
    92 H39     -0.8773  -1.9489   7.4908   H         1 RES1   0.0000
    93 C41     -0.2107  -3.6382   8.3091   C.ar      1 RES1   0.0000
    94 H40      0.2029  -3.2074   9.0615   H         1 RES1   0.0000
    95 C42     -0.1502  -5.0029   8.1870   C.ar      1 RES1   0.0000
    96 H41      0.2555  -5.5409   8.8696   H         1 RES1   0.0000
    97 C43     -0.6960  -5.5991   7.0429   C.ar      1 RES1   0.0000
    98 H42     -0.6666  -6.5527   6.9343   H         1 RES1   0.0000
    99 C44     -1.1797  -7.1185   4.2215   C.ar      1 RES1   0.0000
   100 C45     -0.4910  -7.3216   3.0464   C.ar      1 RES1   0.0000
   101 H43     -0.4492  -6.6202   2.3929   H         1 RES1   0.0000
   102 C46      0.1667  -8.5505   2.8350   C.ar      1 RES1   0.0000
   103 H44      0.6749  -8.7051   2.0361   H         1 RES1   0.0000
   104 C47      0.0761  -9.5318   3.8007   C.ar      1 RES1   0.0000
   105 H45      0.4857 -10.3857   3.6475   H         1 RES1   0.0000
   106 C48     -0.6254  -9.3406   4.9389   C.ar      1 RES1   0.0000
   107 H46     -0.6502 -10.0286   5.6079   H         1 RES1   0.0000
   108 C49     -1.2658  -8.1424   5.1387   C.ar      1 RES1   0.0000
   109 H47     -1.7726  -8.0063   5.9415   H         1 RES1   0.0000
   110 C50     -1.4175  -4.4406   3.2868   C.3       1 RES1   0.0000
   111 H48     -0.4581  -4.4246   3.3314   H         1 RES1   0.0000
   112 H49     -1.6912  -4.7588   2.4239   H         1 RES1   0.0000
   113 H50     -1.7588  -3.5540   3.4245   H         1 RES1   0.0000
@<TRIPOS>BOND
     1     1     2    1
     2     2     6    1
     3     3     1    1
     4     4     1    1
     5     5     1    1
     6     6    30    1
     7     7     3    1
     8     8     4    1
     9     9     5    1
    10    10     2    2
    11    11     3    2
    12    12     4    2
    13    13     5    2
    14    14    10    1
    15    15    14    1
    16    16    14    1
    17    17    14    1
    18    18    11    1
    19    19    18    1
    20    20    18    1
    21    21    18    1
    22    22    12    1
    23    23    22    1
    24    24    22    1
    25    25    22    1
    26    26    13    1
    27    27    26    1
    28    28    26    1
    29    29    26    1
    30    30     9    1
    31    31     7    1
    32    32    30    1
    33    33    32   ar
    34    34    33    1
    35    35    33   ar
    36    36    35    1
    37    37    35   ar
    38    38    37    1
    39    39    37   ar
    40    40    39    1
    41    41    32   ar
    42    42    41    1
    43    43    31    1
    44    44    43   ar
    45    45    44    1
    46    46    44   ar
    47    47    46    1
    48    48    46   ar
    49    49    48    1
    50    50    48   ar
    51    51    50    1
    52    52    43   ar
    53    53    52    1
    54    54    31    1
    55    55    54   ar
    56    56    55    1
    57    57    55   ar
    58    58    57    1
    59    59    57   ar
    60    60    59    1
    61    61    59   ar
    62    62    61    1
    63    63    54   ar
    64    64    63    1
    65    65    30    1
    66    66    65   ar
    67    67    66    1
    68    68    66   ar
    69    69    68    1
    70    70    68   ar
    71    71    70    1
    72    72    70   ar
    73    73    72    1
    74    74    65   ar
    75    75    74    1
    76    76     1    1
    77    77    76   ar
    78    78    77    1
    79    79    77   ar
    80    80    79    1
    81    81    79   ar
    82    82    81    1
    83    83    81   ar
    84    84    83    1
    85    85    76   ar
    86    86    85    1
    87    87     1    1
    88    88    87    1
    89    89    88   ar
    90    90    89    1
    91    91    89   ar
    92    92    91    1
    93    93    91   ar
    94    94    93    1
    95    95    93   ar
    96    96    95    1
    97    97    88   ar
    98    98    97    1
    99    99    87    1
   100   100    99   ar
   101   101   100    1
   102   102   100   ar
   103   103   102    1
   104   104   102   ar
   105   105   104    1
   106   106   104   ar
   107   107   106    1
   108   108    99   ar
   109   109   108    1
   110   110    87    1
   111   111   110    1
   112   112   110    1
   113   113   110    1
   114     8    31    1
   115    10    11    1
   116    12    13    1
   117    39    41   ar
   118    50    52   ar
   119    61    63   ar
   120    72    74   ar
   121    83    85   ar
   122    95    97   ar
   123   106   108   ar
@<TRIPOS>SUBSTRUCTURE
     1 RES1        1 GROUP             0 ****  ****    0  
@<TRIPOS>CRYSIN
   11.4990   11.5690   20.0870   75.8100   87.9900   62.2500     2     1
