@<TRIPOS>MOLECULE
NALPIB01
    93   101     2     0     0
SMALL
USER_CHARGES
****
Generated from the CSD

@<TRIPOS>ATOM
     1 Fe1      7.7893  10.5307   0.0000   Fe        1 RES1   2.0000
     2 N1       6.5977  10.2719   1.5506   N.2       1 RES1   0.0000
     3 N2       8.6780  11.9986   0.9922   N.2       1 RES1   0.0000
     4 N3       6.4776  11.8451  -0.7096   N.2       1 RES1   0.0000
     5 N4       6.0399  11.4086   2.0984   N.pl3     1 RES1   0.0000
     6 N5       7.8551  12.8868   1.6530   N.pl3     1 RES1   0.0000
     7 N6       6.0186  12.7932   0.1670   N.pl3     1 RES1   0.0000
     8 C1       4.6131  14.8777   0.2456   C.3       1 RES1   0.0000
     9 H1       4.0049  15.3454  -0.3642   H         1 RES1   0.0000
    10 H2       5.3267  15.4867   0.5263   H         1 RES1   0.0000
    11 H3       4.1159  14.5717   1.0327   H         1 RES1   0.0000
    12 C2       5.1893   9.7405   3.2110   C.2       1 RES1   0.0000
    13 H4       4.6868   9.2190   3.8255   H         1 RES1   0.0000
    14 C3       9.8850  13.6079   1.9905   C.2       1 RES1   0.0000
    15 H5      10.6326  14.1171   2.2788   H         1 RES1   0.0000
    16 C4       5.1838  11.1069   3.1077   C.2       1 RES1   0.0000
    17 C5       8.5672  13.8690   2.2542   C.2       1 RES1   0.0000
    18 C6       6.0792   9.2584   2.2333   C.2       1 RES1   0.0000
    19 C7       6.4107   7.8251   1.9716   C.3       1 RES1   0.0000
    20 H6       7.0928   7.7708   1.2708   H         1 RES1   0.0000
    21 H7       5.6036   7.3515   1.6804   H         1 RES1   0.0000
    22 H8       6.7525   7.4136   2.7928   H         1 RES1   0.0000
    23 C8       4.4667  12.1521   3.8938   C.3       1 RES1   0.0000
    24 H9       3.9978  12.7563   3.2812   H         1 RES1   0.0000
    25 H10      5.1133  12.6619   4.4249   H         1 RES1   0.0000
    26 H11      3.8173  11.7244   4.4913   H         1 RES1   0.0000
    27 C9       6.4315  12.6928   1.5562   C.3       1 RES1   0.0000
    28 H12      5.9744  13.4125   2.0787   H         1 RES1   0.0000
    29 C10      5.1329  13.3000  -1.7572   C.2       1 RES1   0.0000
    30 H13      4.6374  13.7226  -2.4495   H         1 RES1   0.0000
    31 C11      9.9153  12.4386   1.2082   C.2       1 RES1   0.0000
    32 C12      7.9306  14.9881   3.0100   C.3       1 RES1   0.0000
    33 H14      8.6234  15.5086   3.4671   H         1 RES1   0.0000
    34 H15      7.3072  14.6218   3.6719   H         1 RES1   0.0000
    35 H16      7.4429  15.5675   2.3879   H         1 RES1   0.0000
    36 C13      6.1378  11.3555  -3.1333   C.3       1 RES1   0.0000
    37 H17      6.9734  10.8489  -3.0593   H         1 RES1   0.0000
    38 H18      6.1903  11.9617  -3.9005   H         1 RES1   0.0000
    39 H19      5.3894  10.7346  -3.2575   H         1 RES1   0.0000
    40 C14      5.9243  12.1483  -1.8853   C.2       1 RES1   0.0000
    41 C15      5.2094  13.7021  -0.4524   C.2       1 RES1   0.0000
    42 C16     11.1300  11.7515   0.6733   C.3       1 RES1   0.0000
    43 H20     11.6982  11.4650   1.4177   H         1 RES1   0.0000
    44 H21     11.6300  12.3708   0.1005   H         1 RES1   0.0000
    45 H22     10.8587  10.9694   0.1489   H         1 RES1   0.0000
    46 N1A      8.9809  10.7894  -1.5506   N.2       1 RES1   0.0000
    47 N2A      6.9006   9.0628  -0.9922   N.2       1 RES1   0.0000
    48 N3A      9.1010   9.2163   0.7096   N.2       1 RES1   0.0000
    49 N4A      9.5388   9.6527  -2.0984   N.pl3     1 RES1   0.0000
    50 N5A      7.7235   8.1745  -1.6530   N.pl3     1 RES1   0.0000
    51 N6A      9.5600   8.2681  -0.1670   N.pl3     1 RES1   0.0000
    52 C1A     10.9655   6.1837  -0.2456   C.3       1 RES1   0.0000
    53 H1A     11.5737   5.7160   0.3642   H         1 RES1   0.0000
    54 H2A     10.2520   5.5746  -0.5263   H         1 RES1   0.0000
    55 H3A     11.4627   6.4896  -1.0327   H         1 RES1   0.0000
    56 C2A     10.3893  11.3208  -3.2110   C.2       1 RES1   0.0000
    57 H4A     10.8918  11.8424  -3.8255   H         1 RES1   0.0000
    58 C3A      5.6936   7.4534  -1.9905   C.2       1 RES1   0.0000
    59 H5A      4.9460   6.9443  -2.2788   H         1 RES1   0.0000
    60 C4A     10.3948   9.9545  -3.1077   C.2       1 RES1   0.0000
    61 C5A      7.0114   7.1923  -2.2542   C.2       1 RES1   0.0000
    62 C6A      9.4995  11.8030  -2.2333   C.2       1 RES1   0.0000
    63 C7A      9.1680  13.2362  -1.9716   C.3       1 RES1   0.0000
    64 H6A      8.4859  13.2905  -1.2708   H         1 RES1   0.0000
    65 H7A      9.9750  13.7099  -1.6804   H         1 RES1   0.0000
    66 H8A      8.8261  13.6478  -2.7928   H         1 RES1   0.0000
    67 C8A     11.1119   8.9093  -3.8938   C.3       1 RES1   0.0000
    68 H9A     11.5808   8.3050  -3.2812   H         1 RES1   0.0000
    69 H10A    10.4653   8.3995  -4.4249   H         1 RES1   0.0000
    70 H11A    11.7613   9.3369  -4.4913   H         1 RES1   0.0000
    71 C9A      9.1471   8.3685  -1.5562   C.3       1 RES1   0.0000
    72 H12A     9.6042   7.6488  -2.0787   H         1 RES1   0.0000
    73 C10A    10.4457   7.7613   1.7572   C.2       1 RES1   0.0000
    74 H13A    10.9412   7.3387   2.4495   H         1 RES1   0.0000
    75 C11A     5.6633   8.6227  -1.2082   C.2       1 RES1   0.0000
    76 C12A     7.6480   6.0732  -3.0100   C.3       1 RES1   0.0000
    77 H14A     6.9552   5.5528  -3.4671   H         1 RES1   0.0000
    78 H15A     8.2714   6.4395  -3.6719   H         1 RES1   0.0000
    79 H16A     8.1357   5.4939  -2.3879   H         1 RES1   0.0000
    80 C13A     9.4408   9.7058   3.1333   C.3       1 RES1   0.0000
    81 H17A     8.6053  10.2124   3.0593   H         1 RES1   0.0000
    82 H18A     9.3883   9.0996   3.9005   H         1 RES1   0.0000
    83 H19A    10.1892  10.3267   3.2575   H         1 RES1   0.0000
    84 C14A     9.6543   8.9131   1.8853   C.2       1 RES1   0.0000
    85 C15A    10.3693   7.3592   0.4524   C.2       1 RES1   0.0000
    86 C16A     4.4486   9.3098  -0.6733   C.3       1 RES1   0.0000
    87 H20A     3.8805   9.5963  -1.4177   H         1 RES1   0.0000
    88 H21A     3.9487   8.6905  -0.1005   H         1 RES1   0.0000
    89 H22A     4.7199  10.0920  -0.1489   H         1 RES1   0.0000
    90 N7       4.6772   5.6816   3.6938   N.pl3     2 RES2   0.0000
    91 O1       3.7513   5.6652   2.8620   O.3       2 RES2  -1.0000
    92 O2       5.6258   4.8726   3.5539   O.2       2 RES2   0.0000
    93 O3       4.6842   6.4923   4.6366   O.2       2 RES2   0.0000
@<TRIPOS>BOND
     1     1     2    1
     2     2     5    1
     3     3     1    1
     4     4     1    1
     5     5    16    1
     6     6     3    1
     7     7     4    1
     8     8     9    1
     9    10     8    1
    10    11     8    1
    11    12    13    1
    12    14    15    1
    13    16    12    2
    14    17     6    1
    15    18     2    2
    16    19    18    1
    17    20    19    1
    18    21    19    1
    19    22    19    1
    20    23    16    1
    21    24    23    1
    22    25    23    1
    23    26    23    1
    24    27     5    1
    25    28    27    1
    26    29    30    1
    27    31     3    2
    28    32    17    1
    29    33    32    1
    30    34    32    1
    31    35    32    1
    32    36    37    1
    33    38    36    1
    34    39    36    1
    35    40     4    2
    36    41     7    1
    37    42    31    1
    38    43    42    1
    39    44    42    1
    40    45    42    1
    41    46     1    1
    42    47     1    1
    43    48     1    1
    44    49    46    1
    45    50    47    1
    46    51    48    1
    47    52    53    1
    48    54    52    1
    49    55    52    1
    50    56    57    1
    51    58    59    1
    52    60    49    1
    53    61    50    1
    54    62    46    2
    55    63    62    1
    56    64    63    1
    57    65    63    1
    58    66    63    1
    59    67    60    1
    60    68    67    1
    61    69    67    1
    62    70    67    1
    63    71    49    1
    64    72    71    1
    65    73    74    1
    66    75    47    2
    67    76    61    1
    68    77    76    1
    69    78    76    1
    70    79    76    1
    71    80    81    1
    72    82    80    1
    73    83    80    1
    74    84    48    2
    75    85    51    1
    76    86    75    1
    77    87    86    1
    78    88    86    1
    79    89    86    1
    80     6    27    1
    81     7    27    1
    82     8    41    1
    83    12    18    1
    84    14    17    2
    85    14    31    1
    86    29    40    1
    87    29    41    2
    88    36    40    1
    89    50    71    1
    90    51    71    1
    91    52    85    1
    92    56    60    2
    93    56    62    1
    94    58    61    2
    95    58    75    1
    96    73    84    1
    97    73    85    2
    98    80    84    1
    99    90    91    1
   100    92    90    2
   101    93    90    2
@<TRIPOS>SUBSTRUCTURE
     1 RES1        1 GROUP             0 ****  ****    0  
     2 RES2       90 GROUP             0 ****  ****    0  
@<TRIPOS>CRYSIN
    8.7931   10.5784   10.3109  101.8940  108.2420   95.4450     2     1
