@<TRIPOS>MOLECULE
NALQAS
    97   106     1     0     0
SMALL
NO_CHARGES
****
Generated from the CSD

@<TRIPOS>ATOM
     1 Fe1      4.4248   0.4043   4.8505   Fe        1 RES1   0.0000
     2 N1       3.9284   0.3246   6.6708   N.2       1 RES1   0.0000
     3 N2       5.4023   1.8819   5.4771   N.2       1 RES1   0.0000
     4 N3       4.7197   0.6551   2.9981   N.2       1 RES1   0.0000
     5 N4       3.3642  -1.0127   4.2212   N.2       1 RES1   0.0000
     6 O1       2.9676  -0.5140   7.1595   O.3       1 RES1   0.0000
     7 O2       6.1613   2.7229   4.7149   O.3       1 RES1   0.0000
     8 O3       5.3527   1.7643   2.4737   O.3       1 RES1   0.0000
     9 O4       2.5767  -1.8372   5.0006   O.3       1 RES1   0.0000
    10 C1       4.2921   1.3256   7.4160   C.2       1 RES1   0.0000
    11 C2       5.2178   2.2289   6.7156   C.2       1 RES1   0.0000
    12 C3       3.9876  -0.0706   2.2063   C.2       1 RES1   0.0000
    13 C4       3.2286  -1.1092   2.9257   C.2       1 RES1   0.0000
    14 C5       3.7789   1.5561   8.7926   C.3       1 RES1   0.0000
    15 H1       3.1938   0.8386   9.0462   H         1 RES1   0.0000
    16 H2       4.5169   1.5985   9.4050   H         1 RES1   0.0000
    17 H3       3.2975   2.3853   8.8133   H         1 RES1   0.0000
    18 C6       5.8242   3.4474   7.3177   C.3       1 RES1   0.0000
    19 H4       6.3894   3.8744   6.6691   H         1 RES1   0.0000
    20 H5       5.1321   4.0555   7.5903   H         1 RES1   0.0000
    21 H6       6.3475   3.1969   8.0819   H         1 RES1   0.0000
    22 C7       3.8385   0.1776   0.7452   C.3       1 RES1   0.0000
    23 H7       4.4201   0.8939   0.4796   H         1 RES1   0.0000
    24 H8       4.0721  -0.6199   0.2657   H         1 RES1   0.0000
    25 H9       2.9285   0.4140   0.5486   H         1 RES1   0.0000
    26 C8       2.3809  -2.1289   2.2495   C.3       1 RES1   0.0000
    27 H10      1.9806  -2.7017   2.9102   H         1 RES1   0.0000
    28 H11      1.6896  -1.6890   1.7492   H         1 RES1   0.0000
    29 H12      2.9222  -2.6547   1.6561   H         1 RES1   0.0000
    30 B1       2.8604  -1.8890   6.5155   B         1 RES1   0.0000
    31 B2       6.5406   2.3065   3.2880   B         1 RES1   0.0000
    32 C9       4.1544  -2.7947   6.8640   C.ar      1 RES1   0.0000
    33 C10      4.6674  -3.7568   5.9894   C.ar      1 RES1   0.0000
    34 H13      4.2804  -3.8474   5.1165   H         1 RES1   0.0000
    35 C11      5.7265  -4.5848   6.3499   C.ar      1 RES1   0.0000
    36 H14      6.0683  -5.2270   5.7237   H         1 RES1   0.0000
    37 C12      6.2799  -4.4954   7.5989   C.ar      1 RES1   0.0000
    38 H15      7.0088  -5.0694   7.8421   H         1 RES1   0.0000
    39 C13      5.7840  -3.5839   8.4873   C.ar      1 RES1   0.0000
    40 H16      6.1749  -3.5251   9.3619   H         1 RES1   0.0000
    41 C14      4.7406  -2.7347   8.1267   C.ar      1 RES1   0.0000
    42 H17      4.4062  -2.1030   8.7667   H         1 RES1   0.0000
    43 C15      7.7694   1.2750   3.2397   C.ar      1 RES1   0.0000
    44 C16      8.0598   0.5599   2.0701   C.ar      1 RES1   0.0000
    45 H18      7.4570   0.6328   1.3248   H         1 RES1   0.0000
    46 C17      9.1832  -0.2364   1.9493   C.ar      1 RES1   0.0000
    47 H19      9.3593  -0.7034   1.1299   H         1 RES1   0.0000
    48 C18     10.0589  -0.3623   3.0154   C.ar      1 RES1   0.0000
    49 H20     10.8438  -0.9069   2.9360   H         1 RES1   0.0000
    50 C19      9.7923   0.3011   4.1798   C.ar      1 RES1   0.0000
    51 H21     10.3852   0.1941   4.9268   H         1 RES1   0.0000
    52 C20      8.6792   1.1174   4.2902   C.ar      1 RES1   0.0000
    53 H22      8.5287   1.5926   5.1096   H         1 RES1   0.0000
    54 C21      6.8617   3.7427   2.5859   C.ar      1 RES1   0.0000
    55 C22      7.7697   3.8744   1.5353   C.ar      1 RES1   0.0000
    56 H23      8.2447   3.0981   1.2282   H         1 RES1   0.0000
    57 C23      7.9876   5.0953   0.9057   C.ar      1 RES1   0.0000
    58 H24      8.6244   5.1565   0.1898   H         1 RES1   0.0000
    59 C24      7.3183   6.2068   1.2972   C.ar      1 RES1   0.0000
    60 H25      7.4585   7.0384   0.8384   H         1 RES1   0.0000
    61 C25      6.4256   6.1245   2.3582   C.ar      1 RES1   0.0000
    62 H26      5.9627   6.9078   2.6618   H         1 RES1   0.0000
    63 C26      6.2099   4.9118   2.9843   C.ar      1 RES1   0.0000
    64 H27      5.5825   4.8601   3.7106   H         1 RES1   0.0000
    65 C27      1.5103  -2.5206   7.1417   C.ar      1 RES1   0.0000
    66 C28      0.6230  -1.7831   7.9180   C.ar      1 RES1   0.0000
    67 H28      0.8216  -0.8574   8.0750   H         1 RES1   0.0000
    68 C29     -0.5191  -2.3548   8.4614   C.ar      1 RES1   0.0000
    69 H29     -1.1079  -1.8313   9.0100   H         1 RES1   0.0000
    70 C30     -0.8113  -3.6450   8.2320   C.ar      1 RES1   0.0000
    71 H30     -1.6003  -4.0367   8.6132   H         1 RES1   0.0000
    72 C31      0.0148  -4.4049   7.4609   C.ar      1 RES1   0.0000
    73 H31     -0.2186  -5.3188   7.2866   H         1 RES1   0.0000
    74 C32      1.1879  -3.8521   6.9278   C.ar      1 RES1   0.0000
    75 H32      1.7891  -4.3978   6.4155   H         1 RES1   0.0000
    76 N5       6.0088  -0.7939   5.0803   N.ar      1 RES1   0.0000
    77 C33      6.4516  -1.5926   4.0953   C.ar      1 RES1   0.0000
    78 H33      5.9744  -1.5902   3.2621   H         1 RES1   0.0000
    79 C34      7.5572  -2.4089   4.2264   C.ar      1 RES1   0.0000
    80 H34      7.8360  -2.9723   3.5001   H         1 RES1   0.0000
    81 C35      8.2569  -2.4089   5.4098   C.ar      1 RES1   0.0000
    82 H35      9.0303  -2.9664   5.5236   H         1 RES1   0.0000
    83 C36      7.8195  -1.5926   6.4120   C.ar      1 RES1   0.0000
    84 H36      8.2907  -1.5738   7.2487   H         1 RES1   0.0000
    85 C37      6.7082  -0.8092   6.2275   C.ar      1 RES1   0.0000
    86 H37      6.4199  -0.2411   6.9451   H         1 RES1   0.0000
    87 N6       2.8080   1.6455   4.6197   N.ar      1 RES1   0.0000
    88 C38      2.9171   2.8640   4.0815   C.ar      1 RES1   0.0000
    89 H38      3.7939   3.1557   3.8210   H         1 RES1   0.0000
    90 C39      1.8494   3.7050   3.8883   C.ar      1 RES1   0.0000
    91 H39      1.9753   4.5707   3.4932   H         1 RES1   0.0000
    92 C40      0.5905   3.2828   4.2488   C.ar      1 RES1   0.0000
    93 H40     -0.1766   3.8462   4.1246   H         1 RES1   0.0000
    94 C41      0.4683   2.0560   4.8008   C.ar      1 RES1   0.0000
    95 H41     -0.3972   1.7420   5.0751   H         1 RES1   0.0000
    96 C42      1.5740   1.2609   4.9785   C.ar      1 RES1   0.0000
    97 H42      1.4663   0.3870   5.3615   H         1 RES1   0.0000
@<TRIPOS>BOND
     1     1     2    1
     2     2     6    1
     3     3     1    1
     4     4     1    1
     5     5     1    1
     6     6    30    1
     7     7     3    1
     8     8     4    1
     9     9     5    1
    10    10     2    2
    11    11     3    2
    12    12     4    2
    13    13     5    2
    14    14    10    1
    15    15    14    1
    16    16    14    1
    17    17    14    1
    18    18    11    1
    19    19    18    1
    20    20    18    1
    21    21    18    1
    22    22    12    1
    23    23    22    1
    24    24    22    1
    25    25    22    1
    26    26    13    1
    27    27    26    1
    28    28    26    1
    29    29    26    1
    30    30     9    1
    31    31     7    1
    32    32    30    1
    33    33    32   ar
    34    34    33    1
    35    35    33   ar
    36    36    35    1
    37    37    35   ar
    38    38    37    1
    39    39    37   ar
    40    40    39    1
    41    41    32   ar
    42    42    41    1
    43    43    31    1
    44    44    43   ar
    45    45    44    1
    46    46    44   ar
    47    47    46    1
    48    48    46   ar
    49    49    48    1
    50    50    48   ar
    51    51    50    1
    52    52    43   ar
    53    53    52    1
    54    54    31    1
    55    55    54   ar
    56    56    55    1
    57    57    55   ar
    58    58    57    1
    59    59    57   ar
    60    60    59    1
    61    61    59   ar
    62    62    61    1
    63    63    54   ar
    64    64    63    1
    65    65    30    1
    66    66    65   ar
    67    67    66    1
    68    68    66   ar
    69    69    68    1
    70    70    68   ar
    71    71    70    1
    72    72    70   ar
    73    73    72    1
    74    74    65   ar
    75    75    74    1
    76    76     1    1
    77    77    76   ar
    78    78    77    1
    79    79    77   ar
    80    80    79    1
    81    81    79   ar
    82    82    81    1
    83    83    81   ar
    84    84    83    1
    85    85    76   ar
    86    86    85    1
    87    87     1    1
    88    88    87   ar
    89    89    88    1
    90    90    88   ar
    91    91    90    1
    92    92    90   ar
    93    93    92    1
    94    94    92   ar
    95    95    94    1
    96    96    87   ar
    97    97    96    1
    98     8    31    1
    99    10    11    1
   100    12    13    1
   101    39    41   ar
   102    50    52   ar
   103    61    63   ar
   104    72    74   ar
   105    83    85   ar
   106    94    96   ar
@<TRIPOS>SUBSTRUCTURE
     1 RES1        1 GROUP             0 ****  ****    0  
@<TRIPOS>CRYSIN
   19.6940   11.7620   17.2640   90.0000   92.2600   90.0000    14     1
