@<TRIPOS>MOLECULE
NALQOG
    90    96     2     0     0
SMALL
NO_CHARGES
****
Generated from the CSD

@<TRIPOS>ATOM
     1 Fe1      0.0000   0.0000   0.0000   Fe        1 RES1   0.0000
     2 N1       1.7274   0.1710   0.7849   N.2       1 RES1   0.0000
     3 N2       0.4181   1.7420  -0.6087   N.2       1 RES1   0.0000
     4 O1       2.3800  -0.8560   1.4185   O.3       1 RES1   0.0000
     5 O2      -0.4927   2.5573  -1.2121   O.3       1 RES1   0.0000
     6 C1       2.3575   1.3028   0.5469   C.2       1 RES1   0.0000
     7 C2       1.5445   2.2453  -0.2209   C.2       1 RES1   0.0000
     8 C3       3.7697   1.5492   0.9597   C.3       1 RES1   0.0000
     9 H1       4.0901   0.7932   1.4580   H         1 RES1   0.0000
    10 H2       4.3161   1.6742   0.1814   H         1 RES1   0.0000
    11 H3       3.8107   2.3341   1.5106   H         1 RES1   0.0000
    12 C4       1.9922   3.6398  -0.5114   C.3       1 RES1   0.0000
    13 H4       1.3128   4.0776  -1.0294   H         1 RES1   0.0000
    14 H5       2.1302   4.1206   0.3076   H         1 RES1   0.0000
    15 H6       2.8112   3.6174  -1.0123   H         1 RES1   0.0000
    16 B1       1.4585  -1.8301   2.1377   B         1 RES1   0.0000
    17 C5       0.7043  -1.1752   3.3682   C.ar      1 RES1   0.0000
    18 C6       1.2836  -0.1504   4.1320   C.ar      1 RES1   0.0000
    19 H7       2.1352   0.1927   3.8507   H         1 RES1   0.0000
    20 C7       0.6715   0.3636   5.2587   C.ar      1 RES1   0.0000
    21 H8       1.0928   1.0694   5.7544   H         1 RES1   0.0000
    22 C8      -0.5585  -0.1178   5.6794   C.ar      1 RES1   0.0000
    23 H9      -0.9890   0.2436   6.4577   H         1 RES1   0.0000
    24 C9      -1.1565  -1.1221   4.9577   C.ar      1 RES1   0.0000
    25 H10     -2.0081  -1.4653   5.2390   H         1 RES1   0.0000
    26 C10     -0.5261  -1.6393   3.8349   C.ar      1 RES1   0.0000
    27 H11     -0.9471  -2.3447   3.3380   H         1 RES1   0.0000
    28 C11      2.4696  -3.0068   2.6754   C.ar      1 RES1   0.0000
    29 C12      2.0750  -4.3341   2.7345   C.ar      1 RES1   0.0000
    30 H12      1.2153  -4.5684   2.3756   H         1 RES1   0.0000
    31 C13      2.8481  -5.3004   3.3091   C.ar      1 RES1   0.0000
    32 H13      2.5393  -6.2083   3.3564   H         1 RES1   0.0000
    33 C14      4.0767  -4.9979   3.8454   C.ar      1 RES1   0.0000
    34 H14      4.6276  -5.6715   4.2517   H         1 RES1   0.0000
    35 C15      4.5254  -3.6981   3.7679   C.ar      1 RES1   0.0000
    36 H15      5.3843  -3.4647   4.1268   H         1 RES1   0.0000
    37 C16      3.7221  -2.7163   3.1920   C.ar      1 RES1   0.0000
    38 H16      4.0306  -1.8088   3.1460   H         1 RES1   0.0000
    39 N3       0.8725  -0.8647  -1.4935   N.1       1 RES1   0.0000
    40 C17      1.3870  -1.4427  -2.3112   C.1       1 RES1   0.0000
    41 C18      2.0393  -2.1936  -3.3774   C.3       1 RES1   0.0000
    42 H17      2.7951  -1.7152  -3.7258   H         1 RES1   0.0000
    43 H18      1.4267  -2.3707  -4.0939   H         1 RES1   0.0000
    44 H19      2.3155  -3.0025  -2.9620   H         1 RES1   0.0000
    45 O2A      0.4927  -2.5573   1.2121   O.3       1 RES1   0.0000
    46 N2A     -0.4181  -1.7420   0.6087   N.2       1 RES1   0.0000
    47 N1A     -1.7274  -0.1710  -0.7849   N.2       1 RES1   0.0000
    48 O1A     -2.3800   0.8560  -1.4185   O.3       1 RES1   0.0000
    49 B1A     -1.4585   1.8301  -2.1377   B         1 RES1   0.0000
    50 N3A     -0.8725   0.8647   1.4935   N.1       1 RES1   0.0000
    51 C17A    -1.3870   1.4427   2.3112   C.1       1 RES1   0.0000
    52 C18A    -2.0393   2.1936   3.3774   C.3       1 RES1   0.0000
    53 H17A    -2.7951   1.7152   3.7258   H         1 RES1   0.0000
    54 H18A    -1.4267   2.3707   4.0939   H         1 RES1   0.0000
    55 H19A    -2.3155   3.0025   2.9620   H         1 RES1   0.0000
    56 C5A     -0.7043   1.1752  -3.3682   C.ar      1 RES1   0.0000
    57 C6A     -1.2836   0.1504  -4.1320   C.ar      1 RES1   0.0000
    58 H7A     -2.1352  -0.1927  -3.8507   H         1 RES1   0.0000
    59 C7A     -0.6715  -0.3636  -5.2587   C.ar      1 RES1   0.0000
    60 H8A     -1.0928  -1.0694  -5.7544   H         1 RES1   0.0000
    61 C8A      0.5585   0.1178  -5.6794   C.ar      1 RES1   0.0000
    62 H9A      0.9890  -0.2436  -6.4577   H         1 RES1   0.0000
    63 C9A      1.1565   1.1221  -4.9577   C.ar      1 RES1   0.0000
    64 H10A     2.0081   1.4653  -5.2390   H         1 RES1   0.0000
    65 C10A     0.5261   1.6393  -3.8349   C.ar      1 RES1   0.0000
    66 H11A     0.9471   2.3447  -3.3380   H         1 RES1   0.0000
    67 C11A    -2.4696   3.0068  -2.6754   C.ar      1 RES1   0.0000
    68 C12A    -2.0750   4.3341  -2.7345   C.ar      1 RES1   0.0000
    69 H12A    -1.2153   4.5684  -2.3756   H         1 RES1   0.0000
    70 C13A    -2.8481   5.3004  -3.3091   C.ar      1 RES1   0.0000
    71 H13A    -2.5393   6.2083  -3.3564   H         1 RES1   0.0000
    72 C14A    -4.0767   4.9979  -3.8454   C.ar      1 RES1   0.0000
    73 H14A    -4.6276   5.6715  -4.2517   H         1 RES1   0.0000
    74 C15A    -4.5254   3.6981  -3.7679   C.ar      1 RES1   0.0000
    75 H15A    -5.3843   3.4647  -4.1268   H         1 RES1   0.0000
    76 C16A    -3.7221   2.7163  -3.1920   C.ar      1 RES1   0.0000
    77 H16A    -4.0306   1.8088  -3.1460   H         1 RES1   0.0000
    78 C1A     -2.3575  -1.3028  -0.5469   C.2       1 RES1   0.0000
    79 C2A     -1.5445  -2.2453   0.2209   C.2       1 RES1   0.0000
    80 C4A     -1.9922  -3.6398   0.5114   C.3       1 RES1   0.0000
    81 H4A     -1.3128  -4.0776   1.0294   H         1 RES1   0.0000
    82 H5A     -2.1302  -4.1206  -0.3076   H         1 RES1   0.0000
    83 H6A     -2.8112  -3.6174   1.0123   H         1 RES1   0.0000
    84 C3A     -3.7697  -1.5492  -0.9597   C.3       1 RES1   0.0000
    85 H1A     -4.0901  -0.7932  -1.4580   H         1 RES1   0.0000
    86 H2A     -4.3161  -1.6742  -0.1814   H         1 RES1   0.0000
    87 H3A     -3.8107  -2.3341  -1.5106   H         1 RES1   0.0000
    88 C19      3.8068  -0.9595   6.8521   C.3       2 RES2   0.0000
    89 C20      4.2600   0.2971   6.3644   C.1       2 RES2   0.0000
    90 N4       4.5686   1.2819   5.9831   N.1       2 RES2   0.0000
@<TRIPOS>BOND
     1     1     2    1
     2     2     4    1
     3     3     1    1
     4     4    16    1
     5     5     3    1
     6     6     2    2
     7     7     3    2
     8     8     6    1
     9     9     8    1
    10    10     8    1
    11    11     8    1
    12    12     7    1
    13    13    12    1
    14    14    12    1
    15    15    12    1
    16    16    17    1
    17    17    18   ar
    18    18    19    1
    19    20    18   ar
    20    21    20    1
    21    22    20   ar
    22    23    22    1
    23    24    22   ar
    24    25    24    1
    25    26    17   ar
    26    27    26    1
    27    28    16    1
    28    29    28   ar
    29    30    29    1
    30    31    29   ar
    31    32    31    1
    32    33    31   ar
    33    34    33    1
    34    35    33   ar
    35    36    35    1
    36    37    28   ar
    37    38    37    1
    38    39     1    1
    39    40    39    3
    40    41    40    1
    41    42    41    1
    42    43    41    1
    43    44    41    1
    44    45    16    1
    45    46     1    1
    46    47     1    1
    47    48    47    1
    48    49     5    1
    49    50     1    1
    50    51    50    3
    51    52    51    1
    52    53    52    1
    53    54    52    1
    54    55    52    1
    55    56    49    1
    56    57    56   ar
    57    58    57    1
    58    59    57   ar
    59    60    59    1
    60    61    59   ar
    61    62    61    1
    62    63    61   ar
    63    64    63    1
    64    65    56   ar
    65    66    65    1
    66    67    49    1
    67    68    67   ar
    68    69    68    1
    69    70    68   ar
    70    71    70    1
    71    72    70   ar
    72    73    72    1
    73    74    72   ar
    74    75    74    1
    75    76    67   ar
    76    77    76    1
    77    78    47    2
    78    79    46    2
    79    80    79    1
    80    81    80    1
    81    82    80    1
    82    83    80    1
    83    84    78    1
    84    85    84    1
    85    86    84    1
    86    87    84    1
    87     6     7    1
    88    24    26   ar
    89    35    37   ar
    90    45    46    1
    91    48    49    1
    92    63    65   ar
    93    74    76   ar
    94    78    79    1
    95    88    89    1
    96    89    90    3
@<TRIPOS>SUBSTRUCTURE
     1 RES1        1 GROUP             0 ****  ****    0  
     2 RES2       88 GROUP             0 ****  ****    0  
@<TRIPOS>CRYSIN
    8.6410    8.9500   14.2770  106.0600  103.7100   97.3800     2     1
