@<TRIPOS>MOLECULE
NALRAT
   106   112     2     0     0
SMALL
NO_CHARGES
****
Generated from the CSD

@<TRIPOS>ATOM
     1 Fe1      0.0000   0.0000   0.0000   Fe        1 RES1   0.0000
     2 N1       0.1014   1.8465   0.4307   N.2       1 RES1   0.0000
     3 N2       1.8064  -0.4362   0.2808   N.2       1 RES1   0.0000
     4 O1       1.2054   2.4720   0.9536   O.3       1 RES1   0.0000
     5 O2       2.7449   0.4031   0.8551   O.3       1 RES1   0.0000
     6 C1      -1.0434   2.5110   0.3668   C.2       1 RES1   0.0000
     7 C2       2.1522  -1.6870   0.1174   C.2       1 RES1   0.0000
     8 C3      -1.1998   3.9248   0.8583   C.3       1 RES1   0.0000
     9 H1      -0.3422   4.2687   1.1181   H         1 RES1   0.0000
    10 H2      -1.7848   3.9138   1.6190   H         1 RES1   0.0000
    11 H3      -1.5753   4.4840   0.1740   H         1 RES1   0.0000
    12 C4       3.5112  -2.2335   0.4391   C.3       1 RES1   0.0000
    13 H4       4.0783  -1.5137   0.7294   H         1 RES1   0.0000
    14 H5       3.4184  -2.8728   1.1485   H         1 RES1   0.0000
    15 H6       3.9030  -2.6596  -0.3270   H         1 RES1   0.0000
    16 B1       2.5467   1.8906   0.4684   B         1 RES1   0.0000
    17 C5       2.7890   2.1236  -1.0846   C.ar      1 RES1   0.0000
    18 C6       3.6540   1.3058  -1.8255   C.ar      1 RES1   0.0000
    19 H7       4.0951   0.5877  -1.3654   H         1 RES1   0.0000
    20 C7       3.8943   1.4890  -3.1773   C.ar      1 RES1   0.0000
    21 H8       4.4955   0.9106  -3.6541   H         1 RES1   0.0000
    22 C8       3.2597   2.5541  -3.8354   C.ar      1 RES1   0.0000
    23 H9       3.4191   2.6940  -4.7712   H         1 RES1   0.0000
    24 C9       2.3967   3.3746  -3.1626   C.ar      1 RES1   0.0000
    25 H10      1.9449   4.0955  -3.6059   H         1 RES1   0.0000
    26 C10      2.1816   3.1414  -1.7920   C.ar      1 RES1   0.0000
    27 H11      1.5800   3.7187  -1.3162   H         1 RES1   0.0000
    28 C11      3.6578   2.6743   1.4105   C.ar      1 RES1   0.0000
    29 C12      4.3501   2.0796   2.5024   C.ar      1 RES1   0.0000
    30 H12      4.1746   1.1578   2.7068   H         1 RES1   0.0000
    31 C13      5.2561   2.7787   3.2339   C.ar      1 RES1   0.0000
    32 H13      5.7169   2.3531   3.9601   H         1 RES1   0.0000
    33 C14      5.5349   4.1128   2.9667   C.ar      1 RES1   0.0000
    34 H14      6.1711   4.6077   3.4885   H         1 RES1   0.0000
    35 C15      4.8843   4.7236   1.9188   C.ar      1 RES1   0.0000
    36 H15      5.0588   5.6442   1.7144   H         1 RES1   0.0000
    37 C16      3.9703   4.0145   1.1726   C.ar      1 RES1   0.0000
    38 H16      3.5094   4.4401   0.4464   H         1 RES1   0.0000
    39 N3       0.3240   0.4133  -1.9774   N.3       1 RES1   0.0000
    40 H17      1.2106   0.3268  -2.1011   H         1 RES1   0.0000
    41 H18      0.1389   1.2886  -2.0728   H         1 RES1   0.0000
    42 C17     -0.3018  -0.2393  -3.1343   C.3       1 RES1   0.0000
    43 H19     -0.9096  -0.9059  -2.8053   H         1 RES1   0.0000
    44 C18     -1.0676   0.7721  -3.9486   C.3       1 RES1   0.0000
    45 H20     -1.5222   0.3825  -4.6989   H         1 RES1   0.0000
    46 H21     -1.7110   1.1641  -3.3534   H         1 RES1   0.0000
    47 H22     -0.4629   1.4512  -4.2577   H         1 RES1   0.0000
    48 C19      0.6958  -0.8959  -4.0020   C.3       1 RES1   0.0000
    49 H23      0.2756  -1.3246  -4.7513   H         1 RES1   0.0000
    50 H24      1.3139  -0.2334  -4.3185   H         1 RES1   0.0000
    51 H25      1.1666  -1.5509  -3.4823   H         1 RES1   0.0000
    52 N1A     -0.1014  -1.8465  -0.4307   N.2       1 RES1   0.0000
    53 O1A     -1.2054  -2.4720  -0.9536   O.3       1 RES1   0.0000
    54 B1A     -2.5467  -1.8906  -0.4684   B         1 RES1   0.0000
    55 O2A     -2.7449  -0.4031  -0.8551   O.3       1 RES1   0.0000
    56 N2A     -1.8064   0.4362  -0.2808   N.2       1 RES1   0.0000
    57 N3A     -0.3240  -0.4133   1.9774   N.3       1 RES1   0.0000
    58 H17A    -1.2106  -0.3268   2.1011   H         1 RES1   0.0000
    59 H18A    -0.1389  -1.2886   2.0728   H         1 RES1   0.0000
    60 C17A     0.3018   0.2393   3.1343   C.3       1 RES1   0.0000
    61 H19A     0.9096   0.9059   2.8053   H         1 RES1   0.0000
    62 C18A     1.0676  -0.7721   3.9486   C.3       1 RES1   0.0000
    63 H20A     1.5222  -0.3825   4.6989   H         1 RES1   0.0000
    64 H21A     1.7110  -1.1641   3.3534   H         1 RES1   0.0000
    65 H22A     0.4629  -1.4512   4.2577   H         1 RES1   0.0000
    66 C19A    -0.6958   0.8959   4.0020   C.3       1 RES1   0.0000
    67 H23A    -0.2756   1.3246   4.7513   H         1 RES1   0.0000
    68 H24A    -1.3139   0.2334   4.3185   H         1 RES1   0.0000
    69 H25A    -1.1666   1.5509   3.4823   H         1 RES1   0.0000
    70 C2A     -2.1522   1.6870  -0.1174   C.2       1 RES1   0.0000
    71 C4A     -3.5112   2.2335  -0.4391   C.3       1 RES1   0.0000
    72 H4A     -4.0783   1.5137  -0.7294   H         1 RES1   0.0000
    73 H5A     -3.4184   2.8728  -1.1485   H         1 RES1   0.0000
    74 H6A     -3.9030   2.6596   0.3270   H         1 RES1   0.0000
    75 C5A     -2.7890  -2.1236   1.0846   C.ar      1 RES1   0.0000
    76 C6A     -3.6540  -1.3058   1.8255   C.ar      1 RES1   0.0000
    77 H7A     -4.0951  -0.5877   1.3654   H         1 RES1   0.0000
    78 C7A     -3.8943  -1.4890   3.1773   C.ar      1 RES1   0.0000
    79 H8A     -4.4955  -0.9106   3.6541   H         1 RES1   0.0000
    80 C8A     -3.2597  -2.5541   3.8354   C.ar      1 RES1   0.0000
    81 H9A     -3.4191  -2.6940   4.7712   H         1 RES1   0.0000
    82 C9A     -2.3967  -3.3746   3.1626   C.ar      1 RES1   0.0000
    83 H10A    -1.9449  -4.0955   3.6059   H         1 RES1   0.0000
    84 C10A    -2.1816  -3.1414   1.7920   C.ar      1 RES1   0.0000
    85 H11A    -1.5800  -3.7187   1.3162   H         1 RES1   0.0000
    86 C11A    -3.6578  -2.6743  -1.4105   C.ar      1 RES1   0.0000
    87 C12A    -4.3501  -2.0796  -2.5024   C.ar      1 RES1   0.0000
    88 H12A    -4.1746  -1.1578  -2.7068   H         1 RES1   0.0000
    89 C13A    -5.2561  -2.7787  -3.2339   C.ar      1 RES1   0.0000
    90 H13A    -5.7169  -2.3531  -3.9601   H         1 RES1   0.0000
    91 C14A    -5.5349  -4.1128  -2.9667   C.ar      1 RES1   0.0000
    92 H14A    -6.1711  -4.6077  -3.4885   H         1 RES1   0.0000
    93 C15A    -4.8843  -4.7236  -1.9188   C.ar      1 RES1   0.0000
    94 H15A    -5.0588  -5.6442  -1.7144   H         1 RES1   0.0000
    95 C16A    -3.9703  -4.0145  -1.1726   C.ar      1 RES1   0.0000
    96 H16A    -3.5094  -4.4401  -0.4464   H         1 RES1   0.0000
    97 C1A      1.0434  -2.5110  -0.3668   C.2       1 RES1   0.0000
    98 C3A      1.1998  -3.9248  -0.8583   C.3       1 RES1   0.0000
    99 H1A      0.3422  -4.2687  -1.1181   H         1 RES1   0.0000
   100 H2A      1.7848  -3.9138  -1.6190   H         1 RES1   0.0000
   101 H3A      1.5753  -4.4840  -0.1740   H         1 RES1   0.0000
   102 C20     11.9478   4.6156   3.7055   C.3       2 RES2   0.0000
   103 H26     12.8288   4.6113   4.0880   H         2 RES2   0.0000
   104 H27     11.8910   3.9041   3.0631   H         2 RES2   0.0000
   105 Cl1     10.7588   4.3538   4.9598   Cl        2 RES2   0.0000
   106 Cl2     11.6493   6.1459   2.8986   Cl        2 RES2   0.0000
@<TRIPOS>BOND
     1     1     2    1
     2     2     4    1
     3     3     1    1
     4     4    16    1
     5     5     3    1
     6     6     2    2
     7     7     3    2
     8     8     6    1
     9     9     8    1
    10    10     8    1
    11    11     8    1
    12    12     7    1
    13    13    12    1
    14    14    12    1
    15    15    12    1
    16    16     5    1
    17    17    16    1
    18    18    17   ar
    19    19    18    1
    20    20    18   ar
    21    21    20    1
    22    22    20   ar
    23    23    22    1
    24    24    22   ar
    25    25    24    1
    26    26    17   ar
    27    27    26    1
    28    28    16    1
    29    29    28   ar
    30    30    29    1
    31    31    29   ar
    32    32    31    1
    33    33    31   ar
    34    34    33    1
    35    35    33   ar
    36    36    35    1
    37    37    28   ar
    38    38    37    1
    39    39     1    1
    40    40    39    1
    41    41    39    1
    42    42    39    1
    43    43    42    1
    44    44    42    1
    45    45    44    1
    46    46    44    1
    47    47    44    1
    48    48    42    1
    49    49    48    1
    50    50    48    1
    51    51    48    1
    52    52     1    1
    53    53    52    1
    54    54    53    1
    55    55    54    1
    56    56     1    1
    57    57     1    1
    58    58    57    1
    59    59    57    1
    60    60    57    1
    61    61    60    1
    62    62    60    1
    63    63    62    1
    64    64    62    1
    65    65    62    1
    66    66    60    1
    67    67    66    1
    68    68    66    1
    69    69    66    1
    70    70     6    1
    71    71    70    1
    72    72    71    1
    73    73    71    1
    74    74    71    1
    75    75    54    1
    76    76    75   ar
    77    77    76    1
    78    78    76   ar
    79    79    78    1
    80    80    78   ar
    81    81    80    1
    82    82    80   ar
    83    83    82    1
    84    84    75   ar
    85    85    84    1
    86    86    54    1
    87    87    86   ar
    88    88    87    1
    89    89    87   ar
    90    90    89    1
    91    91    89   ar
    92    92    91    1
    93    93    91   ar
    94    94    93    1
    95    95    86   ar
    96    96    95    1
    97    97     7    1
    98    98    97    1
    99    99    98    1
   100   100    98    1
   101   101    98    1
   102    24    26   ar
   103    35    37   ar
   104    52    97    2
   105    55    56    1
   106    56    70    2
   107    82    84   ar
   108    93    95   ar
   109   102   103    1
   110   104   102    1
   111   105   102    1
   112   106   102    1
@<TRIPOS>SUBSTRUCTURE
     1 RES1        1 GROUP             0 ****  ****    0  
     2 RES2      102 GROUP             0 ****  ****    0  
@<TRIPOS>CRYSIN
   10.3130   10.5970   11.3760   84.7200   67.7800   89.9700     2     1
