@<TRIPOS>MOLECULE
NAMGIT
    78    83     2     0     0
SMALL
NO_CHARGES
****
Generated from the CSD

@<TRIPOS>ATOM
     1 Fe1      2.3203   8.4635   7.1676   Fe        1 RES1   0.0000
     2 F1       4.1320   4.3058   6.7574   F         1 RES1   0.0000
     3 F2       4.9623   5.0861   4.9676   F         1 RES1   0.0000
     4 F3       3.3216   3.7524   4.8630   F         1 RES1   0.0000
     5 O1       3.4069   6.9207   6.3303   O.2       1 RES1   0.0000
     6 O2       0.9205   8.0442   5.6972   O.2       1 RES1   0.0000
     7 N1       1.0744   9.9511   8.0785   N.2       1 RES1   0.0000
     8 N2       1.6654  11.1361   8.4225   N.pl3     1 RES1   0.0000
     9 N3       3.8368   8.9141   8.6435   N.2       1 RES1   0.0000
    10 N4       3.9394  10.2262   9.0255   N.pl3     1 RES1   0.0000
    11 N5       3.1884  10.0982   6.0359   N.2       1 RES1   0.0000
    12 N6       3.5517  11.2088   6.7484   N.pl3     1 RES1   0.0000
    13 N7       1.4490   6.8620   8.4949   N.1       1 RES1   0.0000
    14 C1       3.8182   4.7649   5.5610   C.3       1 RES1   0.0000
    15 C2       2.9014   5.9825   5.6616   C.2       1 RES1   0.0000
    16 C3       1.6826   5.9220   5.0140   C.2       1 RES1   0.0000
    17 H1       1.4506   5.1264   4.5482   H         1 RES1   0.0000
    18 C4       0.7650   7.0025   5.0179   C.2       1 RES1   0.0000
    19 C5      -0.4253   6.9474   4.1177   C.ar      1 RES1   0.0000
    20 C6      -0.9739   5.7544   3.6645   C.ar      1 RES1   0.0000
    21 H2      -0.6151   4.9275   3.9644   H         1 RES1   0.0000
    22 C7      -2.0448   5.7593   2.7735   C.ar      1 RES1   0.0000
    23 H3      -2.4174   4.9398   2.4703   H         1 RES1   0.0000
    24 C8      -2.5614   6.9568   2.3342   C.ar      1 RES1   0.0000
    25 H4      -3.2879   6.9620   1.7217   H         1 RES1   0.0000
    26 C9      -2.0297   8.1532   2.7804   C.ar      1 RES1   0.0000
    27 H5      -2.3886   8.9779   2.4734   H         1 RES1   0.0000
    28 C10     -0.9715   8.1454   3.6786   C.ar      1 RES1   0.0000
    29 H6      -0.6171   8.9681   3.9958   H         1 RES1   0.0000
    30 C11     -0.2334  10.0857   8.3213   C.2       1 RES1   0.0000
    31 C12     -0.4900  11.3626   8.8152   C.2       1 RES1   0.0000
    32 H7      -1.3346  11.7202   9.0635   H         1 RES1   0.0000
    33 C13      0.7296  12.0006   8.8704   C.2       1 RES1   0.0000
    34 C14      4.6508   8.2155   9.4423   C.2       1 RES1   0.0000
    35 C15      5.2733   9.0701  10.3479   C.2       1 RES1   0.0000
    36 H8       5.8964   8.8322  11.0237   H         1 RES1   0.0000
    37 C16      4.7997  10.3319  10.0634   C.2       1 RES1   0.0000
    38 C17      3.6078  10.2899   4.7813   C.2       1 RES1   0.0000
    39 C18      4.2503  11.5273   4.6837   C.2       1 RES1   0.0000
    40 H9       4.6428  11.9080   3.9063   H         1 RES1   0.0000
    41 C19      4.1996  12.0840   5.9466   C.2       1 RES1   0.0000
    42 C20     -1.2018   8.9782   8.0691   C.3       1 RES1   0.0000
    43 H10     -1.1706   8.3418   8.8139   H         1 RES1   0.0000
    44 H11     -0.9634   8.5197   7.2367   H         1 RES1   0.0000
    45 H12     -2.1070   9.3473   7.9916   H         1 RES1   0.0000
    46 C21      4.8408   6.7447   9.2721   C.3       1 RES1   0.0000
    47 H13      4.1367   6.2665   9.7556   H         1 RES1   0.0000
    48 H14      5.7169   6.4852   9.6285   H         1 RES1   0.0000
    49 H15      4.7947   6.5173   8.3196   H         1 RES1   0.0000
    50 C22      3.3585   9.2765   3.7109   C.3       1 RES1   0.0000
    51 H16      3.6661   8.3974   4.0146   H         1 RES1   0.0000
    52 H17      3.8463   9.5313   2.9003   H         1 RES1   0.0000
    53 H18      2.3991   9.2361   3.5155   H         1 RES1   0.0000
    54 C23      1.0446  13.3911   9.3108   C.3       1 RES1   0.0000
    55 H19      1.4060  13.8993   8.5550   H         1 RES1   0.0000
    56 H20      1.7070  13.3632  10.0318   H         1 RES1   0.0000
    57 H21      0.2278  13.8239   9.6347   H         1 RES1   0.0000
    58 C24      5.0944  11.6285  10.7382   C.3       1 RES1   0.0000
    59 H22      5.4570  12.2625  10.0852   H         1 RES1   0.0000
    60 H23      5.7508  11.4831  11.4522   H         1 RES1   0.0000
    61 H24      4.2684  11.9920  11.1226   H         1 RES1   0.0000
    62 C25      4.7166  13.3930   6.4380   C.3       1 RES1   0.0000
    63 H25      4.0024  13.8708   6.9102   H         1 RES1   0.0000
    64 H26      5.0208  13.9301   5.6766   H         1 RES1   0.0000
    65 H27      5.4655  13.2396   7.0499   H         1 RES1   0.0000
    66 C26      1.1638   5.9857   9.1592   C.1       1 RES1   0.0000
    67 C27      0.8173   4.8654  10.0226   C.3       1 RES1   0.0000
    68 H28      0.0202   4.4173   9.6708   H         1 RES1   0.0000
    69 H29      0.6359   5.1943  10.9280   H         1 RES1   0.0000
    70 H30      1.5641   4.2308  10.0491   H         1 RES1   0.0000
    71 B1       3.1889  11.3233   8.2497   B         1 RES1   0.0000
    72 H34      3.4596  12.2230   8.5926   H         1 RES1   0.0000
    73 N8       8.9735   9.0803   5.7187   N.1       2 RES2   0.0000
    74 C28      7.8976   9.0921   6.0789   C.1       2 RES2   0.0000
    75 C29      6.5127   9.1010   6.5372   C.3       2 RES2   0.0000
    76 H31      6.0562   8.2948   6.2165   H         2 RES2   0.0000
    77 H32      6.0578   9.8945   6.1867   H         2 RES2   0.0000
    78 H33      6.4921   9.1188   7.5176   H         2 RES2   0.0000
@<TRIPOS>BOND
     1     1     5    1
     2     2    14    1
     3     3    14    1
     4     4    14    1
     5     5    15   un
     6     6     1    1
     7     7     1    1
     8     8     7    1
     9     9     1    1
    10    10     9    1
    11    11     1    1
    12    12    11    1
    13    13     1    1
    14    14    15    1
    15    15    16   un
    16    16    17    1
    17    18     6   un
    18    19    18    1
    19    20    19   ar
    20    21    20    1
    21    22    20   ar
    22    23    22    1
    23    24    22   ar
    24    25    24    1
    25    26    24   ar
    26    27    26    1
    27    28    19   ar
    28    29    28    1
    29    30     7    2
    30    31    30    1
    31    32    31    1
    32    33     8    1
    33    34     9    2
    34    35    34    1
    35    36    35    1
    36    37    10    1
    37    38    11    2
    38    39    38    1
    39    40    39    1
    40    41    12    1
    41    42    30    1
    42    43    42    1
    43    44    42    1
    44    45    42    1
    45    46    34    1
    46    47    46    1
    47    48    46    1
    48    49    46    1
    49    50    38    1
    50    51    50    1
    51    52    50    1
    52    53    50    1
    53    54    33    1
    54    55    54    1
    55    56    54    1
    56    57    54    1
    57    58    37    1
    58    59    58    1
    59    60    58    1
    60    61    58    1
    61    62    41    1
    62    63    62    1
    63    64    62    1
    64    65    62    1
    65    66    13    3
    66    67    66    1
    67    68    67    1
    68    69    67    1
    69    70    67    1
    70    71     8    1
    71    72    71    1
    72    10    71    1
    73    12    71    1
    74    16    18   un
    75    26    28   ar
    76    31    33    2
    77    35    37    2
    78    39    41    2
    79    73    74    3
    80    74    75    1
    81    75    76    1
    82    77    75    1
    83    78    75    1
@<TRIPOS>SUBSTRUCTURE
     1 RES1        1 GROUP             0 ****  ****    0  
     2 RES2       73 GROUP             0 ****  ****    0  
@<TRIPOS>CRYSIN
   16.3762   12.3527   16.0614   90.0000  102.2730   90.0000    14     1
