@<TRIPOS>MOLECULE
NAMJES
    96   101     4     0     0
SMALL
USER_CHARGES
****
Generated from the CSD

@<TRIPOS>ATOM
     1 Fe1     15.0369   8.6102   6.1205   Fe        1 RES1   1.0000
     2 P1      13.1918   5.5983   5.9986   P.3       1 RES1   0.0000
     3 F1      14.1379  13.2629   5.3689   F         1 RES1   0.0000
     4 F2      12.5524  12.5967   6.6498   F         1 RES1   0.0000
     5 F3      14.1452  13.8048   7.4428   F         1 RES1   0.0000
     6 F4      17.9362   9.6728   9.7010   F         1 RES1   0.0000
     7 F5      18.9086  10.7397   8.1155   F         1 RES1   0.0000
     8 F6      17.7588  11.8127   9.5692   F         1 RES1   0.0000
     9 O1      14.2103  10.5120   6.2734   O.2       1 RES1   0.0000
    10 O2      16.3765   9.3198   7.5618   O.2       1 RES1   0.0000
    11 N1      13.6280   7.9726   4.4670   N.2       1 RES1   0.0000
    12 N2      12.1638   7.7151   2.8381   N.pl3     1 RES1   0.0000
    13 H1      11.7055   7.8724   2.1041   H         1 RES1   0.0000
    14 N3      15.8753   6.6122   5.9940   N.2       1 RES1   0.0000
    15 N4      16.9981   4.8391   5.3183   N.pl3     1 RES1   0.0000
    16 H2      17.6691   4.3325   5.0597   H         1 RES1   0.0000
    17 N5      13.6256   7.8746   7.6571   N.2       1 RES1   0.0000
    18 N6      12.2630   7.4522   9.3436   N.pl3     1 RES1   0.0000
    19 H3      11.8275   7.5541  10.1017   H         1 RES1   0.0000
    20 N7      16.4514   9.2481   4.5816   N.1       1 RES1   0.0000
    21 C1      13.8644  12.8087   6.6062   C.3       1 RES1   0.0000
    22 C2      14.6556  11.5248   6.8739   C.2       1 RES1   0.0000
    23 C3      15.7783  11.6176   7.6883   C.2       1 RES1   0.0000
    24 H4      16.0195  12.4581   8.0617   H         1 RES1   0.0000
    25 C4      16.5500  10.5039   7.9634   C.2       1 RES1   0.0000
    26 C5      17.7938  10.6916   8.8462   C.3       1 RES1   0.0000
    27 C6      13.1818   8.4753   3.3157   C.2       1 RES1   0.0000
    28 C7      12.8846   6.8113   4.6910   C.2       1 RES1   0.0000
    29 C8      11.9701   6.6659   3.6886   C.2       1 RES1   0.0000
    30 H5      11.3272   5.9723   3.6006   H         1 RES1   0.0000
    31 C9      17.0813   6.1459   5.6701   C.2       1 RES1   0.0000
    32 C10     14.9924   5.5355   5.8559   C.2       1 RES1   0.0000
    33 C11     15.7004   4.4422   5.4328   C.2       1 RES1   0.0000
    34 H6      15.3544   3.5765   5.2539   H         1 RES1   0.0000
    35 C12     13.1720   8.3305   8.8241   C.2       1 RES1   0.0000
    36 C13     12.9851   6.6491   7.4542   C.2       1 RES1   0.0000
    37 C14     12.1440   6.3992   8.5013   C.2       1 RES1   0.0000
    38 H7      11.5875   5.6387   8.6158   H         1 RES1   0.0000
    39 C15     13.7083   9.5952   2.5128   C.ar      1 RES1   0.0000
    40 C16     13.8084   9.4313   1.1267   C.ar      1 RES1   0.0000
    41 H8      13.5239   8.6177   0.7269   H         1 RES1   0.0000
    42 C17     14.3194  10.4483   0.3323   C.ar      1 RES1   0.0000
    43 H9      14.3720  10.3332  -0.6093   H         1 RES1   0.0000
    44 C18     14.7526  11.6314   0.9099   C.ar      1 RES1   0.0000
    45 H10     15.1083  12.3255   0.3670   H         1 RES1   0.0000
    46 C19     14.6633  11.7961   2.2854   C.ar      1 RES1   0.0000
    47 H11     14.9660  12.6036   2.6831   H         1 RES1   0.0000
    48 C20     14.1369  10.7907   3.0829   C.ar      1 RES1   0.0000
    49 H12     14.0690  10.9188   4.0211   H         1 RES1   0.0000
    50 C21     18.3873   6.8418   5.6760   C.ar      1 RES1   0.0000
    51 C22     19.2489   6.6730   4.5923   C.ar      1 RES1   0.0000
    52 H13     18.9769   6.1604   3.8411   H         1 RES1   0.0000
    53 C23     20.5099   7.2606   4.6179   C.ar      1 RES1   0.0000
    54 H14     21.0963   7.1542   3.8785   H         1 RES1   0.0000
    55 C24     20.9133   7.9969   5.7141   C.ar      1 RES1   0.0000
    56 H15     21.7736   8.3977   5.7261   H         1 RES1   0.0000
    57 C25     20.0651   8.1500   6.7907   C.ar      1 RES1   0.0000
    58 H16     20.3499   8.6485   7.5469   H         1 RES1   0.0000
    59 C26     18.7941   7.5787   6.7774   C.ar      1 RES1   0.0000
    60 H17     18.2101   7.6937   7.5184   H         1 RES1   0.0000
    61 C27     13.5357   9.5795   9.5308   C.ar      1 RES1   0.0000
    62 C28     14.6867   9.6433  10.3017   C.ar      1 RES1   0.0000
    63 H18     15.2670   8.8922  10.3511   H         1 RES1   0.0000
    64 C29     14.9954  10.8064  11.0041   C.ar      1 RES1   0.0000
    65 H19     15.7856  10.8443  11.5287   H         1 RES1   0.0000
    66 C30     14.1703  11.8910  10.9433   C.ar      1 RES1   0.0000
    67 H20     14.3903  12.6793  11.4254   H         1 RES1   0.0000
    68 C31     13.0127  11.8484  10.1838   C.ar      1 RES1   0.0000
    69 H21     12.4398  12.6059  10.1426   H         1 RES1   0.0000
    70 C32     12.6901  10.6846   9.4774   C.ar      1 RES1   0.0000
    71 H22     11.8947  10.6479   8.9614   H         1 RES1   0.0000
    72 C33     17.1183   9.5479   3.7155   C.1       1 RES1   0.0000
    73 C34     17.9606   9.9191   2.5849   C.3       1 RES1   0.0000
    74 H23     17.4779   9.7523   1.7495   H         1 RES1   0.0000
    75 H24     18.7817   9.3844   2.5994   H         1 RES1   0.0000
    76 H25     18.1878  10.8703   2.6457   H         1 RES1   0.0000
    77 S1      18.6287   1.9358   4.0653   S.o2      2 RES2   0.0000
    78 F7      18.5468  -0.3086   5.4020   F         2 RES2   0.0000
    79 F8      18.2325   1.4624   6.5925   F         2 RES2   0.0000
    80 F9      20.2077   0.9585   5.9110   F         2 RES2   0.0000
    81 O3      19.1091   3.2469   4.4513   O.3       2 RES2  -1.0000
    82 O4      19.4496   1.2914   3.0574   O.2       2 RES2   0.0000
    83 O5      17.2137   1.8395   3.8607   O.2       2 RES2   0.0000
    84 C35     18.9214   0.9535   5.5680   C.3       2 RES2   0.0000
    85 N8      19.6663   6.3556  10.2449   N.1       3 RES3   0.0000
    86 C36     19.2558   7.0513  11.0468   C.1       3 RES3   0.0000
    87 C37     18.7377   7.9244  12.0857   C.3       3 RES3   0.0000
    88 H26     19.1275   8.8188  11.9866   H         3 RES3   0.0000
    89 H27     18.9729   7.5624  12.9647   H         3 RES3   0.0000
    90 H28     17.7627   7.9836  12.0080   H         3 RES3   0.0000
    91 N9      20.1690   2.4321   9.4382   N.1       4 RES4   0.0000
    92 C38     20.0271   3.2451   8.6605   C.1       4 RES4   0.0000
    93 C39     19.8123   4.2990   7.6696   C.3       4 RES4   0.0000
    94 H29     20.1099   3.9859   6.7897   H         4 RES4   0.0000
    95 H30     20.3234   5.0956   7.9246   H         4 RES4   0.0000
    96 H31     18.8590   4.5218   7.6306   H         4 RES4   0.0000
@<TRIPOS>BOND
     1     1     9    1
     2     2    28    1
     3     3    21    1
     4     4    21    1
     5     5    21    1
     6     6    26    1
     7     7    26    1
     8     8    26    1
     9     9    22   un
    10    10     1    1
    11    11     1    1
    12    12    13    1
    13    14     1    1
    14    15    16    1
    15    17     1    1
    16    18    19    1
    17    20     1    1
    18    21    22    1
    19    22    23   un
    20    23    24    1
    21    25    10   un
    22    26    25    1
    23    27    11    2
    24    28    11    1
    25    29    12    1
    26    30    29    1
    27    31    14    2
    28    32     2    1
    29    33    15    1
    30    34    33    1
    31    35    17    2
    32    36     2    1
    33    37    18    1
    34    38    37    1
    35    39    27    1
    36    40    39   ar
    37    41    40    1
    38    42    40   ar
    39    43    42    1
    40    44    42   ar
    41    45    44    1
    42    46    44   ar
    43    47    46    1
    44    48    39   ar
    45    49    48    1
    46    50    31    1
    47    51    50   ar
    48    52    51    1
    49    53    51   ar
    50    54    53    1
    51    55    53   ar
    52    56    55    1
    53    57    55   ar
    54    58    57    1
    55    59    50   ar
    56    60    59    1
    57    61    35    1
    58    62    61   ar
    59    63    62    1
    60    64    62   ar
    61    65    64    1
    62    66    64   ar
    63    67    66    1
    64    68    66   ar
    65    69    68    1
    66    70    61   ar
    67    71    70    1
    68    72    20    3
    69    73    72    1
    70    74    73    1
    71    75    73    1
    72    76    73    1
    73    12    27    1
    74    14    32    1
    75    15    31    1
    76    17    36    1
    77    18    35    1
    78    23    25   un
    79    28    29    2
    80    32    33    2
    81    36    37    2
    82    46    48   ar
    83    57    59   ar
    84    68    70   ar
    85    77    81    1
    86    78    84    1
    87    79    84    1
    88    80    84    1
    89    82    77    2
    90    83    77    2
    91    84    77    1
    92    85    86    3
    93    86    87    1
    94    87    88    1
    95    89    87    1
    96    90    87    1
    97    91    92    3
    98    92    93    1
    99    93    94    1
   100    95    93    1
   101    96    93    1
@<TRIPOS>SUBSTRUCTURE
     1 RES1        1 GROUP             0 ****  ****    0  
     2 RES2       77 GROUP             0 ****  ****    0  
     3 RES3       85 GROUP             0 ****  ****    0  
     4 RES4       91 GROUP             0 ****  ****    0  
@<TRIPOS>CRYSIN
   20.3397   11.8310   17.8160   90.0000   90.0000   90.0000    33     1
