@<TRIPOS>MOLECULE
NANJIX
   122   133     2     0     0
SMALL
USER_CHARGES
****
Generated from the CSD

@<TRIPOS>ATOM
     1 B1       9.0186   6.0395   4.7860   B         1 RES1  -1.0000
     2 C1       9.3047   5.1750   6.1528   C.ar      1 RES1   0.0000
     3 C2      10.5124   5.1250   6.8311   C.ar      1 RES1   0.0000
     4 H1      11.2589   5.5903   6.4736   H         1 RES1   0.0000
     5 C3      10.6723   4.4127   8.0257   C.ar      1 RES1   0.0000
     6 H2      11.5204   4.3960   8.4524   H         1 RES1   0.0000
     7 C4       9.6163   3.7373   8.5863   C.ar      1 RES1   0.0000
     8 H3       9.7142   3.2864   9.4161   H         1 RES1   0.0000
     9 C5       8.4187   3.7300   7.9198   C.ar      1 RES1   0.0000
    10 H4       7.6843   3.2469   8.2773   H         1 RES1   0.0000
    11 C6       8.2706   4.4231   6.7281   C.ar      1 RES1   0.0000
    12 H5       7.4327   4.3876   6.2808   H         1 RES1   0.0000
    13 C7      10.4058   6.8007   4.3137   C.ar      1 RES1   0.0000
    14 C8      10.8426   7.9394   4.9993   C.ar      1 RES1   0.0000
    15 H6      10.2991   8.2923   5.6938   H         1 RES1   0.0000
    16 C9      12.0529   8.5817   4.7007   C.ar      1 RES1   0.0000
    17 H7      12.3269   9.3398   5.2009   H         1 RES1   0.0000
    18 C10     12.8456   8.1057   3.6752   C.ar      1 RES1   0.0000
    19 H8      13.6680   8.5323   3.4648   H         1 RES1   0.0000
    20 C11     12.4305   7.0043   2.9616   C.ar      1 RES1   0.0000
    21 H9      12.9590   6.6802   2.2422   H         1 RES1   0.0000
    22 C12     11.2347   6.3628   3.2927   C.ar      1 RES1   0.0000
    23 H10     10.9774   5.5932   2.7969   H         1 RES1   0.0000
    24 C13      7.8959   7.2008   5.0847   C.ar      1 RES1   0.0000
    25 C14      7.1262   7.3084   6.2484   C.ar      1 RES1   0.0000
    26 H11      7.2483   6.6576   6.9282   H         1 RES1   0.0000
    27 C15      6.1914   8.3194   6.4647   C.ar      1 RES1   0.0000
    28 H12      5.7052   8.3488   7.2798   H         1 RES1   0.0000
    29 C16      5.9765   9.2588   5.5158   C.ar      1 RES1   0.0000
    30 H13      5.3301   9.9412   5.6555   H         1 RES1   0.0000
    31 C17      6.6999   9.2167   4.3520   C.ar      1 RES1   0.0000
    32 H14      6.5519   9.8678   3.6767   H         1 RES1   0.0000
    33 C18      7.6513   8.2189   4.1563   C.ar      1 RES1   0.0000
    34 H15      8.1596   8.2302   3.3545   H         1 RES1   0.0000
    35 C19      8.5409   5.0053   3.5928   C.ar      1 RES1   0.0000
    36 C20      9.0932   3.7153   3.5031   C.ar      1 RES1   0.0000
    37 H16      9.6701   3.4304   4.2019   H         1 RES1   0.0000
    38 C21      8.8483   2.8307   2.4570   C.ar      1 RES1   0.0000
    39 H17      9.2795   1.9849   2.4364   H         1 RES1   0.0000
    40 C22      7.9772   3.1865   1.4507   C.ar      1 RES1   0.0000
    41 H18      7.7934   2.5862   0.7371   H         1 RES1   0.0000
    42 C23      7.3687   4.4389   1.4977   C.ar      1 RES1   0.0000
    43 H19      6.7549   4.6953   0.8195   H         1 RES1   0.0000
    44 C24      7.6621   5.3196   2.5453   C.ar      1 RES1   0.0000
    45 H20      7.2446   6.1720   2.5468   H         1 RES1   0.0000
    46 C25      3.1426   3.9689   5.9704   C.3       2 RES2   0.0000
    47 C26      4.3564   3.7848   5.0199   C.3       2 RES2   0.0000
    48 H21      5.1924   4.0064   5.5216   H         2 RES2   0.0000
    49 C27      4.2247   1.2782   5.4334   C.3       2 RES2   0.0000
    50 H22      5.0231   1.1689   6.0248   H         2 RES2   0.0000
    51 C28      2.9739   1.5122   6.3147   C.3       2 RES2   0.0000
    52 C29      1.6500   1.5515   5.5540   C.3       2 RES2   0.0000
    53 H23      1.5052   0.6776   5.1126   H         2 RES2   0.0000
    54 H24      0.9109   1.6912   6.1984   H         2 RES2   0.0000
    55 C30      1.8006   3.9223   5.2377   C.3       2 RES2   0.0000
    56 H25      1.0681   4.0488   5.8909   H         2 RES2   0.0000
    57 H26      1.7592   4.6643   4.5845   H         2 RES2   0.0000
    58 C31      3.2118   2.8488   7.0679   C.3       2 RES2   0.0000
    59 C32      3.4041   5.3232   6.6722   C.2       2 RES2   0.0000
    60 C33      2.6098   7.5018   7.0635   C.3       2 RES2   0.0000
    61 H27      2.6939   7.4058   8.0360   H         2 RES2   0.0000
    62 H28      1.8365   8.0665   6.8575   H         2 RES2   0.0000
    63 H29      3.4233   7.9168   6.7060   H         2 RES2   0.0000
    64 C34      2.9348   0.3721   7.3666   C.2       2 RES2   0.0000
    65 C35      1.4458  -1.1011   8.5171   C.3       2 RES2   0.0000
    66 H30      2.2882  -1.5500   8.7408   H         2 RES2   0.0000
    67 H31      0.8068  -1.7590   8.1699   H         2 RES2   0.0000
    68 H32      1.0760  -0.6804   9.3219   H         2 RES2   0.0000
    69 C36      4.2169   4.7498   3.8576   C.ar      2 RES2   0.0000
    70 C37      4.6703   6.0542   3.9091   C.ar      2 RES2   0.0000
    71 H33      5.1287   6.3809   4.6742   H         2 RES2   0.0000
    72 C38      4.4416   6.8781   2.8131   C.ar      2 RES2   0.0000
    73 H34      4.7225   7.7841   2.8307   H         2 RES2   0.0000
    74 C39      3.8031   6.3721   1.6978   C.ar      2 RES2   0.0000
    75 H35      3.6575   6.9173   0.9328   H         2 RES2   0.0000
    76 C40      3.3840   5.0691   1.7199   C.ar      2 RES2   0.0000
    77 H36      2.9438   4.7179   0.9548   H         2 RES2   0.0000
    78 C41      4.0686   0.0409   4.5859   C.ar      2 RES2   0.0000
    79 C42      4.6171  -1.1855   4.9096   C.ar      2 RES2   0.0000
    80 H37      5.1523  -1.2875   5.6879   H         2 RES2   0.0000
    81 C43      4.3711  -2.2672   4.0754   C.ar      2 RES2   0.0000
    82 H38      4.7319  -3.1227   4.2799   H         2 RES2   0.0000
    83 C44      3.6031  -2.0944   2.9514   C.ar      2 RES2   0.0000
    84 H39      3.4088  -2.8290   2.3834   H         2 RES2   0.0000
    85 C45      3.1190  -0.8433   2.6600   C.ar      2 RES2   0.0000
    86 H40      2.6090  -0.7171   1.8700   H         2 RES2   0.0000
    87 C46      5.8679   2.2440   3.9371   C.3       2 RES2   0.0000
    88 H41      6.0687   2.9843   3.3280   H         2 RES2   0.0000
    89 H42      5.9323   1.3948   3.4516   H         2 RES2   0.0000
    90 H43      6.5095   2.2474   4.6786   H         2 RES2   0.0000
    91 C47      0.2295   2.6430   3.9768   C.3       2 RES2   0.0000
    92 H44      0.0490   1.7929   3.5251   H         2 RES2   0.0000
    93 H45      0.1421   3.3796   3.3353   H         2 RES2   0.0000
    94 H46     -0.4119   2.7669   4.7080   H         2 RES2   0.0000
    95 C48      3.4728   1.7090   0.1839   C.ar      2 RES2   0.0000
    96 C49      2.0661   1.7844   0.3663   C.ar      2 RES2   0.0000
    97 C50      1.2163   1.5924  -0.7239   C.ar      2 RES2   0.0000
    98 C51      1.7510   1.3473  -1.9774   C.ar      2 RES2   0.0000
    99 C52      3.1415   1.2875  -2.1701   C.ar      2 RES2   0.0000
   100 C53      3.9981   1.4648  -1.0593   C.ar      2 RES2   0.0000
   101 C54      2.2618   3.8878   9.0409   C.3       2 RES2   0.0000
   102 H47      3.1893   3.9076   9.3572   H         2 RES2   0.0000
   103 H48      1.6699   3.6337   9.7780   H         2 RES2   0.0000
   104 H49      2.0106   4.7772   8.7128   H         2 RES2   0.0000
   105 Cl1     -0.4845   1.6864  -0.4264   Cl        2 RES2   0.0000
   106 Cl2      0.6857   1.1443  -3.3359   Cl        2 RES2   0.0000
   107 Cl3      3.8336   1.0263  -3.7242   Cl        2 RES2   0.0000
   108 Cl4      5.7180   1.3984  -1.2572   Cl        2 RES2   0.0000
   109 Fe1      3.0667   2.2240   2.8332   Fe        2 RES2   1.0000
   110 N1       3.5705   4.2647   2.7807   N.ar      2 RES2   0.0000
   111 N2       3.3469   0.2070   3.4619   N.ar      2 RES2   0.0000
   112 N3       4.4776   2.4055   4.4785   N.3       2 RES2   0.0000
   113 N4       1.6010   2.6283   4.5227   N.3       2 RES2   0.0000
   114 O1       4.3803   5.5443   7.3225   O.2       2 RES2   0.0000
   115 O2       2.4241   6.1691   6.4485   O.3       2 RES2   0.0000
   116 O3       3.8938  -0.0248   7.9581   O.2       2 RES2   0.0000
   117 O4       1.6909  -0.0822   7.5064   O.3       2 RES2   0.0000
   118 O5       4.4501   2.8361   7.6976   O.3       2 RES2   0.0000
   119 H50      4.6614   3.6196   7.9154   H         2 RES2   0.0000
   120 O6       2.1398   2.9352   7.9801   O.3       2 RES2   0.0000
   121 O7       4.1942   1.8911   1.2816   O.3       2 RES2   0.0000
   122 O8       1.6332   2.0362   1.5801   O.3       2 RES2   0.0000
@<TRIPOS>BOND
     1     1     2    1
     2     2     3   ar
     3     3     4    1
     4     5     3   ar
     5     6     5    1
     6     7     5   ar
     7     8     7    1
     8     9     7   ar
     9    10     9    1
    10    11     2   ar
    11    12    11    1
    12    13     1    1
    13    14    13   ar
    14    15    14    1
    15    16    14   ar
    16    17    16    1
    17    18    16   ar
    18    19    18    1
    19    20    18   ar
    20    21    20    1
    21    22    13   ar
    22    23    22    1
    23    24     1    1
    24    25    24   ar
    25    26    25    1
    26    27    25   ar
    27    28    27    1
    28    29    27   ar
    29    30    29    1
    30    31    29   ar
    31    32    31    1
    32    33    24   ar
    33    34    33    1
    34    35     1    1
    35    36    35   ar
    36    37    36    1
    37    38    36   ar
    38    39    38    1
    39    40    38   ar
    40    41    40    1
    41    42    40   ar
    42    43    42    1
    43    44    35   ar
    44    45    44    1
    45     9    11   ar
    46    20    22   ar
    47    31    33   ar
    48    42    44   ar
    49    46    47    1
    50    47    48    1
    51    49    50    1
    52    51    49    1
    53    52    51    1
    54    53    52    1
    55    54    52    1
    56    55    46    1
    57    56    55    1
    58    57    55    1
    59    58    46    1
    60    59    46    1
    61    60    61    1
    62    62    60    1
    63    63    60    1
    64    64    51    1
    65    65    66    1
    66    67    65    1
    67    68    65    1
    68    69    47    1
    69    70    69   ar
    70    71    70    1
    71    72    70   ar
    72    73    72    1
    73    74    72   ar
    74    75    74    1
    75    76    74   ar
    76    77    76    1
    77    78    49    1
    78    79    78   ar
    79    80    79    1
    80    81    79   ar
    81    82    81    1
    82    83    81   ar
    83    84    83    1
    84    85    83   ar
    85    86    85    1
    86    87    88    1
    87    89    87    1
    88    90    87    1
    89    91    92    1
    90    93    91    1
    91    94    91    1
    92    95    96   ar
    93    96    97   ar
    94    97    98   ar
    95    98    99   ar
    96    99   100   ar
    97   100    95   ar
    98   101   102    1
    99   103   101    1
   100   104   101    1
   101   105    97    1
   102   106    98    1
   103   107    99    1
   104   108   100    1
   105   109   110    1
   106   110    69   ar
   107   111    78   ar
   108   112    47    1
   109   113    52    1
   110   114    59    2
   111   115    59    1
   112   116    64    2
   113   117    64    1
   114   118    58    1
   115   119   118    1
   116   120    58    1
   117   121    95    1
   118   122    96    1
   119    49   112    1
   120    51    58    1
   121    55   113    1
   122    60   115    1
   123    65   117    1
   124    76   110   ar
   125    85   111   ar
   126    87   112    1
   127    91   113    1
   128   101   120    1
   129   109   111    1
   130   109   112    1
   131   109   113    1
   132   109   121    1
   133   109   122    1
@<TRIPOS>SUBSTRUCTURE
     1 RES1        1 GROUP             0 ****  ****    0  
     2 RES2       46 GROUP             0 ****  ****    0  
@<TRIPOS>CRYSIN
   12.1685   28.2340   14.7596   90.0000   94.5730   90.0000   231     1
