@<TRIPOS>MOLECULE
NANJUJ
   196   202     2     0     0
SMALL
USER_CHARGES
****
Generated from the CSD

@<TRIPOS>ATOM
     1 Fe1     -0.1983   5.0642   4.5775   Fe        1 RES1   0.0000
     2 Se1      0.7366   3.3013   2.6182   Se        1 RES1   0.0000
     3 Se2     -0.9242   3.2277   6.5340   Se        1 RES1   0.0000
     4 O1       0.0574   6.2640   3.1369   O.3       1 RES1  -1.0000
     5 C1       0.6046   6.0897   1.9374   C.ar      1 RES1   0.0000
     6 C2       1.0335   4.8341   1.4872   C.ar      1 RES1   0.0000
     7 C3       1.6318   4.6581   0.2359   C.ar      1 RES1   0.0000
     8 H1       1.9050   3.7904  -0.0360   H         1 RES1   0.0000
     9 C4       1.8305   5.7330  -0.6124   C.ar      1 RES1   0.0000
    10 C5       1.3659   6.9890  -0.1719   C.ar      1 RES1   0.0000
    11 H2       1.4709   7.7333  -0.7541   H         1 RES1   0.0000
    12 C6       0.7626   7.2063   1.0645   C.ar      1 RES1   0.0000
    13 C7       0.2645   8.5869   1.5166   C.3       1 RES1   0.0000
    14 C8       0.5112   9.6618   0.4390   C.3       1 RES1   0.0000
    15 H3       0.0629   9.3986  -0.3922   H         1 RES1   0.0000
    16 H4       1.4735   9.7488   0.2785   H         1 RES1   0.0000
    17 H5       0.1513  10.5207   0.7466   H         1 RES1   0.0000
    18 C9       0.9936   9.0241   2.7939   C.3       1 RES1   0.0000
    19 H6       0.6938   9.9203   3.0507   H         1 RES1   0.0000
    20 H7       1.9593   9.0364   2.6300   H         1 RES1   0.0000
    21 H8       0.7916   8.3932   3.5168   H         1 RES1   0.0000
    22 C10     -1.2570   8.5297   1.7663   C.3       1 RES1   0.0000
    23 H9      -1.7139   8.2622   0.9417   H         1 RES1   0.0000
    24 H10     -1.5759   9.4129   2.0426   H         1 RES1   0.0000
    25 H11     -1.4480   7.8786   2.4727   H         1 RES1   0.0000
    26 C11      2.5045   5.6051  -1.9945   C.3       1 RES1   0.0000
    27 C12      3.7085   6.5506  -2.0843   C.3       1 RES1   0.0000
    28 H12      4.3665   6.3062  -1.4003   H         1 RES1   0.0000
    29 H13      3.4107   7.4736  -1.9365   H         1 RES1   0.0000
    30 H14      4.1166   6.4777  -2.9730   H         1 RES1   0.0000
    31 C13      3.0203   4.1859  -2.2429   C.3       1 RES1   0.0000
    32 H15      3.6537   3.9405  -1.5367   H         1 RES1   0.0000
    33 H16      3.4703   4.1501  -3.1132   H         1 RES1   0.0000
    34 H17      2.2664   3.5593  -2.2378   H         1 RES1   0.0000
    35 C14      1.5024   5.9734  -3.0893   C.3       1 RES1   0.0000
    36 H18      0.7392   5.3604  -3.0544   H         1 RES1   0.0000
    37 H19      1.9361   5.9060  -3.9658   H         1 RES1   0.0000
    38 H20      1.1897   6.8923  -2.9502   H         1 RES1   0.0000
    39 O2       1.6270   4.7641   5.1245   O.3       1 RES1   0.0000
    40 C15      2.5920   3.9669   4.6936   C.ar      1 RES1   0.0000
    41 C16      2.4178   3.1791   3.5302   C.ar      1 RES1   0.0000
    42 C17      3.4207   2.3238   3.0579   C.ar      1 RES1   0.0000
    43 H21      3.2682   1.8059   2.2757   H         1 RES1   0.0000
    44 C18      4.6266   2.2266   3.7184   C.ar      1 RES1   0.0000
    45 C19      4.8064   3.0273   4.8644   C.ar      1 RES1   0.0000
    46 H22      5.6390   2.9756   5.3187   H         1 RES1   0.0000
    47 C20      3.8357   3.8907   5.3722   C.ar      1 RES1   0.0000
    48 C21      4.0899   4.7510   6.6228   C.3       1 RES1   0.0000
    49 C22      3.9869   6.2471   6.2550   C.3       1 RES1   0.0000
    50 H23      3.1019   6.4301   5.8739   H         1 RES1   0.0000
    51 H24      4.6778   6.4706   5.5973   H         1 RES1   0.0000
    52 H25      4.1129   6.7922   7.0601   H         1 RES1   0.0000
    53 C23      3.0491   4.4203   7.7200   C.3       1 RES1   0.0000
    54 H26      2.1492   4.6219   7.3879   H         1 RES1   0.0000
    55 H27      3.2321   4.9602   8.5172   H         1 RES1   0.0000
    56 H28      3.1079   3.4688   7.9506   H         1 RES1   0.0000
    57 C24      5.4775   4.5025   7.2179   C.3       1 RES1   0.0000
    58 H29      5.6015   5.0721   8.0056   H         1 RES1   0.0000
    59 H30      6.1626   4.7172   6.5504   H         1 RES1   0.0000
    60 H31      5.5566   3.5617   7.4788   H         1 RES1   0.0000
    61 C25      5.7617   1.2948   3.2542   C.3       1 RES1   0.0000
    62 C26      7.0460   2.1151   3.0319   C.3       1 RES1   0.0000
    63 H32      7.7792   1.5128   2.7816   H         1 RES1   0.0000
    64 H33      7.2784   2.5873   3.8578   H         1 RES1   0.0000
    65 H34      6.8990   2.7660   2.3136   H         1 RES1   0.0000
    66 C27      6.0155   0.2242   4.3376   C.3       1 RES1   0.0000
    67 H35      6.7584  -0.3526   4.0606   H         1 RES1   0.0000
    68 H36      5.2075  -0.3192   4.4566   H         1 RES1   0.0000
    69 H37      6.2412   0.6623   5.1842   H         1 RES1   0.0000
    70 C28      5.4228   0.5877   1.9475   C.3       1 RES1   0.0000
    71 H38      6.1800   0.0286   1.6731   H         1 RES1   0.0000
    72 H39      5.2398   1.2555   1.2525   H         1 RES1   0.0000
    73 H40      4.6318   0.0238   2.0767   H         1 RES1   0.0000
    74 O3      -0.5512   6.2400   6.0183   O.3       1 RES1   0.0000
    75 C29     -1.0123   6.0110   7.2382   C.ar      1 RES1   0.0000
    76 C30     -1.3141   4.7131   7.6992   C.ar      1 RES1   0.0000
    77 C31     -1.8808   4.4737   8.9530   C.ar      1 RES1   0.0000
    78 H41     -2.0703   3.5831   9.2221   H         1 RES1   0.0000
    79 C32     -2.1697   5.5253   9.8108   C.ar      1 RES1   0.0000
    80 C33     -1.7956   6.8144   9.3816   C.ar      1 RES1   0.0000
    81 H42     -1.9390   7.5403   9.9762   H         1 RES1   0.0000
    82 C34     -1.2267   7.0903   8.1377   C.ar      1 RES1   0.0000
    83 C35     -0.8249   8.5168   7.7094   C.3       1 RES1   0.0000
    84 C36      0.6921   8.5488   7.4311   C.3       1 RES1   0.0000
    85 H43      1.1790   8.2979   8.2443   H         1 RES1   0.0000
    86 H44      0.9559   9.4534   7.1605   H         1 RES1   0.0000
    87 H45      0.9051   7.9167   6.7133   H         1 RES1   0.0000
    88 C37     -1.1061   9.5444   8.8168   C.3       1 RES1   0.0000
    89 H46     -0.6375   9.2794   9.6351   H         1 RES1   0.0000
    90 H47     -2.0693   9.5820   8.9909   H         1 RES1   0.0000
    91 H48     -0.7896  10.4278   8.5305   H         1 RES1   0.0000
    92 C38     -1.6103   8.9469   6.4736   C.3       1 RES1   0.0000
    93 H49     -1.4118   8.3360   5.7318   H         1 RES1   0.0000
    94 H50     -1.3515   9.8584   6.2245   H         1 RES1   0.0000
    95 H51     -2.5689   8.9221   6.6716   H         1 RES1   0.0000
    96 C39     -2.8426   5.3366  11.1849   C.3       1 RES1   0.0000
    97 C40     -3.3838   3.9050  11.3359   C.3       1 RES1   0.0000
    98 H52     -4.0568   3.7356  10.6432   H         1 RES1   0.0000
    99 H53     -3.7913   3.8023  12.2216   H         1 RES1   0.0000
   100 H54     -2.6473   3.2663  11.2400   H         1 RES1   0.0000
   101 C41     -1.8414   5.6175  12.2972   C.3       1 RES1   0.0000
   102 H55     -1.0873   4.9959  12.2234   H         1 RES1   0.0000
   103 H56     -2.2769   5.4986  13.1671   H         1 RES1   0.0000
   104 H57     -1.5144   6.5373  12.2178   H         1 RES1   0.0000
   105 C42     -4.0415   6.2943  11.3312   C.3       1 RES1   0.0000
   106 H58     -4.6890   6.1180  10.6166   H         1 RES1   0.0000
   107 H59     -3.7288   7.2211  11.2685   H         1 RES1   0.0000
   108 H60     -4.4676   6.1537  12.2026   H         1 RES1   0.0000
   109 O4      -1.9911   4.5868   4.0312   O.3       1 RES1   0.0000
   110 C43     -2.8952   3.7594   4.5258   C.ar      1 RES1   0.0000
   111 C44     -2.6274   2.9859   5.6822   C.ar      1 RES1   0.0000
   112 C45     -3.5511   2.0879   6.2129   C.ar      1 RES1   0.0000
   113 H61     -3.3298   1.5891   6.9900   H         1 RES1   0.0000
   114 C46     -4.7842   1.9190   5.6174   C.ar      1 RES1   0.0000
   115 C47     -5.0694   2.7100   4.4835   C.ar      1 RES1   0.0000
   116 H62     -5.9215   2.6135   4.0757   H         1 RES1   0.0000
   117 C48     -4.1744   3.6243   3.9249   C.ar      1 RES1   0.0000
   118 C49     -4.5541   4.4827   2.7094   C.3       1 RES1   0.0000
   119 C50     -4.4681   5.9801   3.0666   C.3       1 RES1   0.0000
   120 H63     -4.6896   6.5182   2.2776   H         1 RES1   0.0000
   121 H64     -3.5581   6.1942   3.3614   H         1 RES1   0.0000
   122 H65     -5.1015   6.1799   3.7877   H         1 RES1   0.0000
   123 C51     -3.5944   4.1837   1.5323   C.3       1 RES1   0.0000
   124 H66     -3.8556   4.7195   0.7541   H         1 RES1   0.0000
   125 H67     -3.6431   3.2329   1.3055   H         1 RES1   0.0000
   126 H68     -2.6772   4.4122   1.7925   H         1 RES1   0.0000
   127 C52     -5.9783   4.1925   2.2215   C.3       1 RES1   0.0000
   128 H69     -6.1822   4.7624   1.4514   H         1 RES1   0.0000
   129 H70     -6.6153   4.3765   2.9426   H         1 RES1   0.0000
   130 H71     -6.0470   3.2520   1.9573   H         1 RES1   0.0000
   131 C53     -5.8396   0.9275   6.1422   C.3       1 RES1   0.0000
   132 C54     -6.1145  -0.1437   5.0707   C.3       1 RES1   0.0000
   133 H72     -6.8125  -0.7528   5.3889   H         1 RES1   0.0000
   134 H73     -5.2933  -0.6504   4.8962   H         1 RES1   0.0000
   135 H74     -6.4116   0.2907   4.2444   H         1 RES1   0.0000
   136 C55     -7.1418   1.6724   6.4609   C.3       1 RES1   0.0000
   137 H75     -7.8049   1.0387   6.8062   H         1 RES1   0.0000
   138 H76     -7.4865   2.0917   5.6447   H         1 RES1   0.0000
   139 H77     -6.9675   2.3633   7.1340   H         1 RES1   0.0000
   140 C56     -5.3774   0.2390   7.4271   C.3       1 RES1   0.0000
   141 H78     -6.0908  -0.3478   7.7574   H         1 RES1   0.0000
   142 H79     -5.1726   0.9172   8.1041   H         1 RES1   0.0000
   143 H80     -4.5763  -0.2930   7.2420   H         1 RES1   0.0000
   144 N1       0.0188  -0.8033   4.5957   N.4       2 RES2   1.0000
   145 C57      0.7549  -1.6872   3.5984   C.3       2 RES2   0.0000
   146 H81      0.1025  -2.3109   3.1928   H         2 RES2   0.0000
   147 H82      1.4170  -2.2323   4.0928   H         2 RES2   0.0000
   148 C58      1.4801  -0.9534   2.4769   C.3       2 RES2   0.0000
   149 H83      2.1713  -0.3574   2.8612   H         2 RES2   0.0000
   150 H84      0.8364  -0.3931   1.9744   H         2 RES2   0.0000
   151 C59      2.1360  -1.9610   1.5284   C.3       2 RES2   0.0000
   152 H85      2.6591  -1.4652   0.8489   H         2 RES2   0.0000
   153 H86      2.7690  -2.5206   2.0445   H         2 RES2   0.0000
   154 C60      1.1510  -2.8660   0.8205   C.3       2 RES2   0.0000
   155 H87      1.6367  -3.4807   0.2312   H         2 RES2   0.0000
   156 H88      0.5321  -2.3228   0.2880   H         2 RES2   0.0000
   157 H89      0.6453  -3.3806   1.4836   H         2 RES2   0.0000
   158 C61     -0.6390  -1.7594   5.5865   C.3       2 RES2   0.0000
   159 H90     -1.3630  -2.2442   5.1160   H         2 RES2   0.0000
   160 H91      0.0339  -2.4300   5.8626   H         2 RES2   0.0000
   161 C62     -1.2244  -1.1293   6.8401   C.3       2 RES2   0.0000
   162 H92     -1.8576  -0.4122   6.5883   H         2 RES2   0.0000
   163 H93     -0.4997  -0.7266   7.3822   H         2 RES2   0.0000
   164 C63     -1.9532  -2.1963   7.6613   C.3       2 RES2   0.0000
   165 H94     -2.7745  -2.4705   7.1832   H         2 RES2   0.0000
   166 H95     -1.3707  -2.9923   7.7479   H         2 RES2   0.0000
   167 C64     -2.3254  -1.6975   9.0491   C.3       2 RES2   0.0000
   168 H96     -1.5105  -1.4866   9.5499   H         2 RES2   0.0000
   169 H97     -2.8282  -2.3919   9.5214   H         2 RES2   0.0000
   170 H98     -2.8776  -0.8910   8.9682   H         2 RES2   0.0000
   171 C65     -1.0239   0.0729   3.9225   C.3       2 RES2   0.0000
   172 H99     -1.5125   0.5670   4.6290   H         2 RES2   0.0000
   173 H100    -0.5495   0.7433   3.3690   H         2 RES2   0.0000
   174 C66     -2.0414  -0.6204   3.0469   C.3       2 RES2   0.0000
   175 H101    -2.5813  -1.2436   3.5926   H         2 RES2   0.0000
   176 H102    -1.5774  -1.1436   2.3458   H         2 RES2   0.0000
   177 C67     -2.9511   0.4160   2.3981   C.3       2 RES2   0.0000
   178 H103    -3.3907   0.9506   3.1056   H         2 RES2   0.0000
   179 H104    -2.4024   1.0316   1.8512   H         2 RES2   0.0000
   180 C68     -4.0154  -0.2180   1.5179   C.3       2 RES2   0.0000
   181 H105    -4.5273   0.4860   1.0668   H         2 RES2   0.0000
   182 H106    -4.6194  -0.7552   2.0710   H         2 RES2   0.0000
   183 H107    -3.5883  -0.7910   0.8489   H         2 RES2   0.0000
   184 C69      0.9744   0.1463   5.2960   C.3       2 RES2   0.0000
   185 H108     1.3623   0.7505   4.6139   H         2 RES2   0.0000
   186 H109     0.4490   0.7052   5.9213   H         2 RES2   0.0000
   187 C70      2.1099  -0.4820   6.0685   C.3       2 RES2   0.0000
   188 H110     2.7285  -0.9410   5.4476   H         2 RES2   0.0000
   189 H111     1.7558  -1.1507   6.7076   H         2 RES2   0.0000
   190 C71      2.8510   0.6254   6.8244   C.3       2 RES2   0.0000
   191 H112     3.2252   1.2674   6.1695   H         2 RES2   0.0000
   192 H113     2.2038   1.1150   7.3917   H         2 RES2   0.0000
   193 C72      3.9706   0.1048   7.6962   C.3       2 RES2   0.0000
   194 H114     4.3799   0.8505   8.1818   H         2 RES2   0.0000
   195 H115     4.6461  -0.3288   7.1359   H         2 RES2   0.0000
   196 H116     3.6117  -0.5432   8.3372   H         2 RES2   0.0000
@<TRIPOS>BOND
     1     1     2    1
     2     2     6    1
     3     3     1    1
     4     4     1    1
     5     5     4    1
     6     6     5   ar
     7     7     6   ar
     8     8     7    1
     9     9     7   ar
    10    10     9   ar
    11    11    10    1
    12    12     5   ar
    13    13    12    1
    14    14    13    1
    15    15    14    1
    16    16    14    1
    17    17    14    1
    18    18    13    1
    19    19    18    1
    20    20    18    1
    21    21    18    1
    22    22    13    1
    23    23    22    1
    24    24    22    1
    25    25    22    1
    26    26     9    1
    27    27    26    1
    28    28    27    1
    29    29    27    1
    30    30    27    1
    31    31    26    1
    32    32    31    1
    33    33    31    1
    34    34    31    1
    35    35    26    1
    36    36    35    1
    37    37    35    1
    38    38    35    1
    39    39     1    1
    40    40    39    1
    41    41     2    1
    42    42    41   ar
    43    43    42    1
    44    44    42   ar
    45    45    44   ar
    46    46    45    1
    47    47    40   ar
    48    48    47    1
    49    49    48    1
    50    50    49    1
    51    51    49    1
    52    52    49    1
    53    53    48    1
    54    54    53    1
    55    55    53    1
    56    56    53    1
    57    57    48    1
    58    58    57    1
    59    59    57    1
    60    60    57    1
    61    61    44    1
    62    62    61    1
    63    63    62    1
    64    64    62    1
    65    65    62    1
    66    66    61    1
    67    67    66    1
    68    68    66    1
    69    69    66    1
    70    70    61    1
    71    71    70    1
    72    72    70    1
    73    73    70    1
    74    74     1    1
    75    75    74    1
    76    76     3    1
    77    77    76   ar
    78    78    77    1
    79    79    77   ar
    80    80    79   ar
    81    81    80    1
    82    82    75   ar
    83    83    82    1
    84    84    83    1
    85    85    84    1
    86    86    84    1
    87    87    84    1
    88    88    83    1
    89    89    88    1
    90    90    88    1
    91    91    88    1
    92    92    83    1
    93    93    92    1
    94    94    92    1
    95    95    92    1
    96    96    79    1
    97    97    96    1
    98    98    97    1
    99    99    97    1
   100   100    97    1
   101   101    96    1
   102   102   101    1
   103   103   101    1
   104   104   101    1
   105   105    96    1
   106   106   105    1
   107   107   105    1
   108   108   105    1
   109   109     1    1
   110   110   109    1
   111   111     3    1
   112   112   111   ar
   113   113   112    1
   114   114   112   ar
   115   115   114   ar
   116   116   115    1
   117   117   110   ar
   118   118   117    1
   119   119   118    1
   120   120   119    1
   121   121   119    1
   122   122   119    1
   123   123   118    1
   124   124   123    1
   125   125   123    1
   126   126   123    1
   127   127   118    1
   128   128   127    1
   129   129   127    1
   130   130   127    1
   131   131   114    1
   132   132   131    1
   133   133   132    1
   134   134   132    1
   135   135   132    1
   136   136   131    1
   137   137   136    1
   138   138   136    1
   139   139   136    1
   140   140   131    1
   141   141   140    1
   142   142   140    1
   143   143   140    1
   144    10    12   ar
   145    40    41   ar
   146    45    47   ar
   147    75    76   ar
   148    80    82   ar
   149   110   111   ar
   150   115   117   ar
   151   144   145    1
   152   145   146    1
   153   147   145    1
   154   148   145    1
   155   149   148    1
   156   150   148    1
   157   151   148    1
   158   152   151    1
   159   153   151    1
   160   154   151    1
   161   155   154    1
   162   156   154    1
   163   157   154    1
   164   158   144    1
   165   159   158    1
   166   160   158    1
   167   161   158    1
   168   162   161    1
   169   163   161    1
   170   164   161    1
   171   165   164    1
   172   166   164    1
   173   167   164    1
   174   168   167    1
   175   169   167    1
   176   170   167    1
   177   171   144    1
   178   172   171    1
   179   173   171    1
   180   174   171    1
   181   175   174    1
   182   176   174    1
   183   177   174    1
   184   178   177    1
   185   179   177    1
   186   180   177    1
   187   181   180    1
   188   182   180    1
   189   183   180    1
   190   184   144    1
   191   185   184    1
   192   186   184    1
   193   187   184    1
   194   188   187    1
   195   189   187    1
   196   190   187    1
   197   191   190    1
   198   192   190    1
   199   193   190    1
   200   194   193    1
   201   195   193    1
   202   196   193    1
@<TRIPOS>SUBSTRUCTURE
     1 RES1        1 GROUP             0 ****  ****    0  
     2 RES2      144 GROUP             0 ****  ****    0  
@<TRIPOS>CRYSIN
   16.1348   23.8240   19.0000   90.0000   94.2340   90.0000   231     1
